MODEL 1
REMARK VINA RESULT:      -7.9      0.000      0.000
REMARK  Name = 
REMARK  9 active torsions:
REMARK  status: ('A' for Active; 'I' for Inactive)
REMARK    1  A    between atoms: C_1  and  C_2
REMARK    2  A    between atoms: N_4  and  C_5
REMARK    3  A    between atoms: C_5  and  C_6
REMARK    4  A    between atoms: C_5  and  C_7
REMARK    5  A    between atoms: C_10  and  O_11
REMARK    6  A    between atoms: O_11  and  C_12
REMARK    7  A    between atoms: N_15  and  C_16
REMARK    8  A    between atoms: C_20  and  O_21
REMARK    9  A    between atoms: O_21  and  C_22
REMARK                            x       y       z     vdW  Elec       q    Type
REMARK                         _______ _______ _______ _____ _____    ______ ____
ROOT
ATOM      1  C   UNL     1      -0.813  11.279  19.327  0.00  0.00    +0.000 C 
ATOM      2  C   UNL     1       0.478  12.084  19.491  0.00  0.00    +0.000 C 
ATOM      3  C   UNL     1       1.546  11.288  18.740  0.00  0.00    +0.000 C 
ATOM      4  N   UNL     1       1.086   9.914  18.815  0.00  0.00    +0.000 N 
ATOM      5  C   UNL     1      -0.311   9.820  19.230  0.00  0.00    +0.000 C 
ENDROOT
BRANCH   4   6
ATOM      6  C   UNL     1       1.878   8.810  18.635  0.00  0.00    +0.000 A 
ATOM      7  N   UNL     1       2.556   8.714  17.465  0.00  0.00    +0.000 NA
ATOM      8  C   UNL     1       3.307   7.615  17.264  0.00  0.00    +0.000 A 
ATOM      9  N   UNL     1       3.487   6.605  18.121  0.00  0.00    +0.000 NA
ATOM     10  C   UNL     1       2.826   6.733  19.281  0.00  0.00    +0.000 A 
ATOM     11  C   UNL     1       2.005   7.804  19.587  0.00  0.00    +0.000 A 
ATOM     12  F   UNL     1       1.371   7.866  20.769  0.00  0.00    +0.000 F 
BRANCH  10  13
ATOM     13  O   UNL     1       3.002   5.774  20.263  0.00  0.00    +0.000 OA
BRANCH  13  14
ATOM     14  C   UNL     1       1.922   4.835  20.413  0.00  0.00    +0.000 C 
ATOM     15  C   UNL     1       2.249   3.841  21.533  0.00  0.00    +0.000 C 
ATOM     16  C   UNL     1       1.382   2.597  21.472  0.00  0.00    +0.000 C 
ATOM     17  O   UNL     1       1.438   2.004  20.179  0.00  0.00    +0.000 OA
ATOM     18  C   UNL     1       0.909   2.872  19.180  0.00  0.00    +0.000 C 
ATOM     19  C   UNL     1       1.761   4.124  19.063  0.00  0.00    +0.000 C 
ENDBRANCH  13  14
ENDBRANCH  10  13
ENDBRANCH   4   6
BRANCH   1  20
ATOM     20  O   UNL     1      -1.492  11.744  18.146  0.00  0.00    +0.000 OA
BRANCH  20  24
ATOM     21  C   UNL     1      -5.688  11.900  18.318  0.00  0.00    +0.000 A 
ATOM     22  C   UNL     1      -5.011  11.519  17.151  0.00  0.00    +0.000 A 
ATOM     23  C   UNL     1      -3.604  11.498  17.118  0.00  0.00    +0.000 A 
ATOM     24  C   UNL     1      -2.857  11.873  18.241  0.00  0.00    +0.000 A 
ATOM     25  C   UNL     1      -3.528  12.286  19.385  0.00  0.00    +0.000 A 
ATOM     26  C   UNL     1      -4.926  12.302  19.425  0.00  0.00    +0.000 A 
BRANCH  21  27
ATOM     27  C   UNL     1      -7.208  11.815  18.429  0.00  0.00    +0.000 C 
ATOM     28  C   UNL     1      -7.853  13.188  18.212  0.00  0.00    +0.000 C 
BRANCH  27  32
ATOM     29  C   UNL     1      -7.867   9.642  21.479  0.00  0.00    +0.000 C 
ATOM     30  C   UNL     1      -7.461   9.932  20.057  0.00  0.00    +0.000 C 
ATOM     31  O   UNL     1      -7.103   9.054  19.282  0.00  0.00    +0.000 OA
ATOM     32  N   UNL     1      -7.541  11.265  19.742  0.00  0.00    +0.000 N 
ATOM     33  H   UNL     1      -7.665  11.924  20.500  0.00  0.00    +0.000 HD
ENDBRANCH  27  32
ENDBRANCH  21  27
ENDBRANCH  20  24
ENDBRANCH   1  20
TORSDOF 7
ENDMDL
MODEL 2
REMARK VINA RESULT:      -7.8      2.691      4.143
REMARK  Name = 
REMARK  9 active torsions:
REMARK  status: ('A' for Active; 'I' for Inactive)
REMARK    1  A    between atoms: C_1  and  C_2
REMARK    2  A    between atoms: N_4  and  C_5
REMARK    3  A    between atoms: C_5  and  C_6
REMARK    4  A    between atoms: C_5  and  C_7
REMARK    5  A    between atoms: C_10  and  O_11
REMARK    6  A    between atoms: O_11  and  C_12
REMARK    7  A    between atoms: N_15  and  C_16
REMARK    8  A    between atoms: C_20  and  O_21
REMARK    9  A    between atoms: O_21  and  C_22
REMARK                            x       y       z     vdW  Elec       q    Type
REMARK                         _______ _______ _______ _____ _____    ______ ____
ROOT
ATOM      1  C   UNL     1      -0.543   9.794  21.850  0.00  0.00    +0.000 C 
ATOM      2  C   UNL     1       0.632   9.746  22.829  0.00  0.00    +0.000 C 
ATOM      3  C   UNL     1       1.762   9.052  22.068  0.00  0.00    +0.000 C 
ATOM      4  N   UNL     1       1.078   8.190  21.121  0.00  0.00    +0.000 N 
ATOM      5  C   UNL     1      -0.334   8.530  20.984  0.00  0.00    +0.000 C 
ENDROOT
BRANCH   4   6
ATOM      6  C   UNL     1       1.640   7.105  20.501  0.00  0.00    +0.000 A 
ATOM      7  N   UNL     1       1.505   5.900  21.108  0.00  0.00    +0.000 NA
ATOM      8  C   UNL     1       2.086   4.835  20.525  0.00  0.00    +0.000 A 
ATOM      9  N   UNL     1       2.766   4.829  19.374  0.00  0.00    +0.000 NA
ATOM     10  C   UNL     1       2.866   6.027  18.779  0.00  0.00    +0.000 A 
ATOM     11  C   UNL     1       2.333   7.194  19.298  0.00  0.00    +0.000 A 
ATOM     12  F   UNL     1       2.474   8.360  18.648  0.00  0.00    +0.000 F 
BRANCH  10  13
ATOM     13  O   UNL     1       3.491   6.114  17.547  0.00  0.00    +0.000 OA
BRANCH  13  14
ATOM     14  C   UNL     1       4.835   5.603  17.496  0.00  0.00    +0.000 C 
ATOM     15  C   UNL     1       5.831   6.766  17.422  0.00  0.00    +0.000 C 
ATOM     16  C   UNL     1       7.204   6.321  16.950  0.00  0.00    +0.000 C 
ATOM     17  O   UNL     1       7.109   5.601  15.725  0.00  0.00    +0.000 OA
ATOM     18  C   UNL     1       6.363   4.397  15.881  0.00  0.00    +0.000 C 
ATOM     19  C   UNL     1       4.924   4.710  16.253  0.00  0.00    +0.000 C 
ENDBRANCH  13  14
ENDBRANCH  10  13
ENDBRANCH   4   6
BRANCH   1  20
ATOM     20  O   UNL     1      -0.468  11.028  21.110  0.00  0.00    +0.000 OA
BRANCH  20  24
ATOM     21  C   UNL     1      -3.166  11.181  17.892  0.00  0.00    +0.000 A 
ATOM     22  C   UNL     1      -2.002  10.400  17.844  0.00  0.00    +0.000 A 
ATOM     23  C   UNL     1      -1.106  10.387  18.929  0.00  0.00    +0.000 A 
ATOM     24  C   UNL     1      -1.351  11.165  20.067  0.00  0.00    +0.000 A 
ATOM     25  C   UNL     1      -2.485  11.967  20.099  0.00  0.00    +0.000 A 
ATOM     26  C   UNL     1      -3.382  11.979  19.025  0.00  0.00    +0.000 A 
BRANCH  21  27
ATOM     27  C   UNL     1      -4.218  11.123  16.788  0.00  0.00    +0.000 C 
ATOM     28  C   UNL     1      -3.576  10.812  15.431  0.00  0.00    +0.000 C 
BRANCH  27  32
ATOM     29  C   UNL     1      -6.698  13.990  17.083  0.00  0.00    +0.000 C 
ATOM     30  C   UNL     1      -6.210  12.572  17.229  0.00  0.00    +0.000 C 
ATOM     31  O   UNL     1      -6.900  11.683  17.711  0.00  0.00    +0.000 OA
ATOM     32  N   UNL     1      -4.928  12.400  16.767  0.00  0.00    +0.000 N 
ATOM     33  H   UNL     1      -4.384  13.229  16.564  0.00  0.00    +0.000 HD
ENDBRANCH  27  32
ENDBRANCH  21  27
ENDBRANCH  20  24
ENDBRANCH   1  20
TORSDOF 7
ENDMDL
MODEL 3
REMARK VINA RESULT:      -7.8      3.343     10.305
REMARK  Name = 
REMARK  9 active torsions:
REMARK  status: ('A' for Active; 'I' for Inactive)
REMARK    1  A    between atoms: C_1  and  C_2
REMARK    2  A    between atoms: N_4  and  C_5
REMARK    3  A    between atoms: C_5  and  C_6
REMARK    4  A    between atoms: C_5  and  C_7
REMARK    5  A    between atoms: C_10  and  O_11
REMARK    6  A    between atoms: O_11  and  C_12
REMARK    7  A    between atoms: N_15  and  C_16
REMARK    8  A    between atoms: C_20  and  O_21
REMARK    9  A    between atoms: O_21  and  C_22
REMARK                            x       y       z     vdW  Elec       q    Type
REMARK                         _______ _______ _______ _____ _____    ______ ____
ROOT
ATOM      1  C   UNL     1       2.567   3.269  20.953  0.00  0.00    +0.000 C 
ATOM      2  C   UNL     1       1.169   3.153  20.341  0.00  0.00    +0.000 C 
ATOM      3  C   UNL     1       1.102   4.252  19.280  0.00  0.00    +0.000 C 
ATOM      4  N   UNL     1       2.014   5.272  19.765  0.00  0.00    +0.000 N 
ATOM      5  C   UNL     1       2.886   4.776  20.825  0.00  0.00    +0.000 C 
ENDROOT
BRANCH   4   6
ATOM      6  C   UNL     1       2.001   6.585  19.373  0.00  0.00    +0.000 A 
ATOM      7  N   UNL     1       2.537   6.880  18.162  0.00  0.00    +0.000 NA
ATOM      8  C   UNL     1       2.563   8.171  17.786  0.00  0.00    +0.000 A 
ATOM      9  N   UNL     1       2.080   9.212  18.472  0.00  0.00    +0.000 NA
ATOM     10  C   UNL     1       1.533   8.894  19.656  0.00  0.00    +0.000 A 
ATOM     11  C   UNL     1       1.474   7.606  20.157  0.00  0.00    +0.000 A 
ATOM     12  F   UNL     1       0.914   7.361  21.352  0.00  0.00    +0.000 F 
BRANCH  10  13
ATOM     13  O   UNL     1       0.942   9.892  20.411  0.00  0.00    +0.000 OA
BRANCH  13  14
ATOM     14  C   UNL     1       0.249  10.907  19.664  0.00  0.00    +0.000 C 
ATOM     15  C   UNL     1       0.012  12.135  20.550  0.00  0.00    +0.000 C 
ATOM     16  C   UNL     1      -1.055  13.056  19.987  0.00  0.00    +0.000 C 
ATOM     17  O   UNL     1      -2.253  12.336  19.715  0.00  0.00    +0.000 OA
ATOM     18  C   UNL     1      -2.053  11.345  18.711  0.00  0.00    +0.000 C 
ATOM     19  C   UNL     1      -1.075  10.289  19.197  0.00  0.00    +0.000 C 
ENDBRANCH  13  14
ENDBRANCH  10  13
ENDBRANCH   4   6
BRANCH   1  20
ATOM     20  O   UNL     1       3.461   2.417  20.211  0.00  0.00    +0.000 OA
BRANCH  20  24
ATOM     21  C   UNL     1       5.380   4.304  16.983  0.00  0.00    +0.000 A 
ATOM     22  C   UNL     1       4.334   3.390  16.789  0.00  0.00    +0.000 A 
ATOM     23  C   UNL     1       3.727   2.757  17.889  0.00  0.00    +0.000 A 
ATOM     24  C   UNL     1       4.164   3.015  19.194  0.00  0.00    +0.000 A 
ATOM     25  C   UNL     1       5.224   3.893  19.383  0.00  0.00    +0.000 A 
ATOM     26  C   UNL     1       5.828   4.529  18.293  0.00  0.00    +0.000 A 
BRANCH  21  27
ATOM     27  C   UNL     1       5.976   5.099  15.825  0.00  0.00    +0.000 C 
ATOM     28  C   UNL     1       5.280   6.457  15.675  0.00  0.00    +0.000 C 
BRANCH  27  32
ATOM     29  C   UNL     1       6.330   3.486  12.401  0.00  0.00    +0.000 C 
ATOM     30  C   UNL     1       6.675   4.439  13.516  0.00  0.00    +0.000 C 
ATOM     31  O   UNL     1       7.590   5.248  13.432  0.00  0.00    +0.000 OA
ATOM     32  N   UNL     1       5.859   4.296  14.611  0.00  0.00    +0.000 N 
ATOM     33  H   UNL     1       5.262   3.481  14.652  0.00  0.00    +0.000 HD
ENDBRANCH  27  32
ENDBRANCH  21  27
ENDBRANCH  20  24
ENDBRANCH   1  20
TORSDOF 7
ENDMDL
MODEL 4
REMARK VINA RESULT:      -7.7      4.754      9.338
REMARK  Name = 
REMARK  9 active torsions:
REMARK  status: ('A' for Active; 'I' for Inactive)
REMARK    1  A    between atoms: C_1  and  C_2
REMARK    2  A    between atoms: N_4  and  C_5
REMARK    3  A    between atoms: C_5  and  C_6
REMARK    4  A    between atoms: C_5  and  C_7
REMARK    5  A    between atoms: C_10  and  O_11
REMARK    6  A    between atoms: O_11  and  C_12
REMARK    7  A    between atoms: N_15  and  C_16
REMARK    8  A    between atoms: C_20  and  O_21
REMARK    9  A    between atoms: O_21  and  C_22
REMARK                            x       y       z     vdW  Elec       q    Type
REMARK                         _______ _______ _______ _____ _____    ______ ____
ROOT
ATOM      1  C   UNL     1       0.236  11.906  20.171  0.00  0.00    +0.000 C 
ATOM      2  C   UNL     1      -0.702  13.094  19.949  0.00  0.00    +0.000 C 
ATOM      3  C   UNL     1       0.096  14.084  19.101  0.00  0.00    +0.000 C 
ATOM      4  N   UNL     1       1.480  13.821  19.453  0.00  0.00    +0.000 N 
ATOM      5  C   UNL     1       1.639  12.556  20.163  0.00  0.00    +0.000 C 
ENDROOT
BRANCH   4   6
ATOM      6  C   UNL     1       2.518  14.693  19.256  0.00  0.00    +0.000 A 
ATOM      7  N   UNL     1       2.477  15.874  19.922  0.00  0.00    +0.000 NA
ATOM      8  C   UNL     1       3.474  16.751  19.705  0.00  0.00    +0.000 A 
ATOM      9  N   UNL     1       4.538  16.571  18.916  0.00  0.00    +0.000 NA
ATOM     10  C   UNL     1       4.571  15.386  18.287  0.00  0.00    +0.000 A 
ATOM     11  C   UNL     1       3.590  14.418  18.411  0.00  0.00    +0.000 A 
ATOM     12  F   UNL     1       3.686  13.255  17.748  0.00  0.00    +0.000 F 
BRANCH  10  13
ATOM     13  O   UNL     1       5.667  15.074  17.501  0.00  0.00    +0.000 OA
BRANCH  13  14
ATOM     14  C   UNL     1       6.839  14.642  18.215  0.00  0.00    +0.000 C 
ATOM     15  C   UNL     1       7.915  15.732  18.155  0.00  0.00    +0.000 C 
ATOM     16  C   UNL     1       9.293  15.202  18.508  0.00  0.00    +0.000 C 
ATOM     17  O   UNL     1       9.617  14.066  17.712  0.00  0.00    +0.000 OA
ATOM     18  C   UNL     1       8.728  12.980  17.961  0.00  0.00    +0.000 C 
ATOM     19  C   UNL     1       7.315  13.347  17.545  0.00  0.00    +0.000 C 
ENDBRANCH  13  14
ENDBRANCH  10  13
ENDBRANCH   4   6
BRANCH   1  20
ATOM     20  O   UNL     1       0.026  10.956  19.110  0.00  0.00    +0.000 OA
BRANCH  20  24
ATOM     21  C   UNL     1       2.339   7.450  19.248  0.00  0.00    +0.000 A 
ATOM     22  C   UNL     1       1.669   7.938  20.379  0.00  0.00    +0.000 A 
ATOM     23  C   UNL     1       0.921   9.128  20.307  0.00  0.00    +0.000 A 
ATOM     24  C   UNL     1       0.844   9.853  19.111  0.00  0.00    +0.000 A 
ATOM     25  C   UNL     1       1.538   9.388  18.000  0.00  0.00    +0.000 A 
ATOM     26  C   UNL     1       2.278   8.203  18.066  0.00  0.00    +0.000 A 
BRANCH  21  27
ATOM     27  C   UNL     1       3.055   6.103  19.257  0.00  0.00    +0.000 C 
ATOM     28  C   UNL     1       4.098   6.026  18.136  0.00  0.00    +0.000 C 
BRANCH  27  32
ATOM     29  C   UNL     1       0.801   3.066  19.644  0.00  0.00    +0.000 C 
ATOM     30  C   UNL     1       1.915   4.009  20.017  0.00  0.00    +0.000 C 
ATOM     31  O   UNL     1       2.614   3.845  21.009  0.00  0.00    +0.000 OA
ATOM     32  N   UNL     1       2.051   5.050  19.131  0.00  0.00    +0.000 N 
ATOM     33  H   UNL     1       1.310   5.196  18.457  0.00  0.00    +0.000 HD
ENDBRANCH  27  32
ENDBRANCH  21  27
ENDBRANCH  20  24
ENDBRANCH   1  20
TORSDOF 7
ENDMDL
MODEL 5
REMARK VINA RESULT:      -7.7      3.644     10.145
REMARK  Name = 
REMARK  9 active torsions:
REMARK  status: ('A' for Active; 'I' for Inactive)
REMARK    1  A    between atoms: C_1  and  C_2
REMARK    2  A    between atoms: N_4  and  C_5
REMARK    3  A    between atoms: C_5  and  C_6
REMARK    4  A    between atoms: C_5  and  C_7
REMARK    5  A    between atoms: C_10  and  O_11
REMARK    6  A    between atoms: O_11  and  C_12
REMARK    7  A    between atoms: N_15  and  C_16
REMARK    8  A    between atoms: C_20  and  O_21
REMARK    9  A    between atoms: O_21  and  C_22
REMARK                            x       y       z     vdW  Elec       q    Type
REMARK                         _______ _______ _______ _____ _____    ______ ____
ROOT
ATOM      1  C   UNL     1       0.979  10.234  21.309  0.00  0.00    +0.000 C 
ATOM      2  C   UNL     1       0.478   9.612  22.614  0.00  0.00    +0.000 C 
ATOM      3  C   UNL     1      -0.834  10.332  22.925  0.00  0.00    +0.000 C 
ATOM      4  N   UNL     1      -0.678  11.640  22.315  0.00  0.00    +0.000 N 
ATOM      5  C   UNL     1       0.440  11.681  21.376  0.00  0.00    +0.000 C 
ENDROOT
BRANCH   4   6
ATOM      6  C   UNL     1      -1.406  12.752  22.646  0.00  0.00    +0.000 A 
ATOM      7  N   UNL     1      -0.917  13.548  23.630  0.00  0.00    +0.000 NA
ATOM      8  C   UNL     1      -1.644  14.622  23.987  0.00  0.00    +0.000 A 
ATOM      9  N   UNL     1      -2.802  15.018  23.446  0.00  0.00    +0.000 NA
ATOM     10  C   UNL     1      -3.253  14.229  22.458  0.00  0.00    +0.000 A 
ATOM     11  C   UNL     1      -2.605  13.086  22.025  0.00  0.00    +0.000 A 
ATOM     12  F   UNL     1      -3.118  12.343  21.032  0.00  0.00    +0.000 F 
BRANCH  10  13
ATOM     13  O   UNL     1      -4.408  14.592  21.787  0.00  0.00    +0.000 OA
BRANCH  13  14
ATOM     14  C   UNL     1      -5.641  14.239  22.438  0.00  0.00    +0.000 C 
ATOM     15  C   UNL     1      -5.356  13.320  23.631  0.00  0.00    +0.000 C 
ATOM     16  C   UNL     1      -6.595  12.581  24.101  0.00  0.00    +0.000 C 
ATOM     17  O   UNL     1      -7.217  11.897  23.017  0.00  0.00    +0.000 OA
ATOM     18  C   UNL     1      -7.682  12.804  22.022  0.00  0.00    +0.000 C 
ATOM     19  C   UNL     1      -6.514  13.539  21.388  0.00  0.00    +0.000 C 
ENDBRANCH  13  14
ENDBRANCH  10  13
ENDBRANCH   4   6
BRANCH   1  20
ATOM     20  O   UNL     1       0.455   9.466  20.209  0.00  0.00    +0.000 OA
BRANCH  20  24
ATOM     21  C   UNL     1       3.228   6.870  18.410  0.00  0.00    +0.000 A 
ATOM     22  C   UNL     1       2.763   8.020  17.758  0.00  0.00    +0.000 A 
ATOM     23  C   UNL     1       1.816   8.858  18.377  0.00  0.00    +0.000 A 
ATOM     24  C   UNL     1       1.311   8.550  19.647  0.00  0.00    +0.000 A 
ATOM     25  C   UNL     1       1.745   7.390  20.277  0.00  0.00    +0.000 A 
ATOM     26  C   UNL     1       2.689   6.557  19.668  0.00  0.00    +0.000 A 
BRANCH  21  27
ATOM     27  C   UNL     1       4.342   6.008  17.823  0.00  0.00    +0.000 C 
ATOM     28  C   UNL     1       4.840   6.585  16.493  0.00  0.00    +0.000 C 
BRANCH  27  32
ATOM     29  C   UNL     1       3.599   2.283  17.999  0.00  0.00    +0.000 C 
ATOM     30  C   UNL     1       4.299   3.566  18.365  0.00  0.00    +0.000 C 
ATOM     31  O   UNL     1       5.190   3.614  19.204  0.00  0.00    +0.000 OA
ATOM     32  N   UNL     1       3.832   4.648  17.662  0.00  0.00    +0.000 N 
ATOM     33  H   UNL     1       2.975   4.536  17.136  0.00  0.00    +0.000 HD
ENDBRANCH  27  32
ENDBRANCH  21  27
ENDBRANCH  20  24
ENDBRANCH   1  20
TORSDOF 7
ENDMDL
MODEL 6
REMARK VINA RESULT:      -7.7      3.849     10.347
REMARK  Name = 
REMARK  9 active torsions:
REMARK  status: ('A' for Active; 'I' for Inactive)
REMARK    1  A    between atoms: C_1  and  C_2
REMARK    2  A    between atoms: N_4  and  C_5
REMARK    3  A    between atoms: C_5  and  C_6
REMARK    4  A    between atoms: C_5  and  C_7
REMARK    5  A    between atoms: C_10  and  O_11
REMARK    6  A    between atoms: O_11  and  C_12
REMARK    7  A    between atoms: N_15  and  C_16
REMARK    8  A    between atoms: C_20  and  O_21
REMARK    9  A    between atoms: O_21  and  C_22
REMARK                            x       y       z     vdW  Elec       q    Type
REMARK                         _______ _______ _______ _____ _____    ______ ____
ROOT
ATOM      1  C   UNL     1       0.660  10.454  21.497  0.00  0.00    +0.000 C 
ATOM      2  C   UNL     1       0.152   9.872  22.818  0.00  0.00    +0.000 C 
ATOM      3  C   UNL     1      -1.168  10.593  23.094  0.00  0.00    +0.000 C 
ATOM      4  N   UNL     1      -1.014  11.880  22.441  0.00  0.00    +0.000 N 
ATOM      5  C   UNL     1       0.111  11.899  21.512  0.00  0.00    +0.000 C 
ENDROOT
BRANCH   4   6
ATOM      6  C   UNL     1      -1.753  12.998  22.729  0.00  0.00    +0.000 A 
ATOM      7  N   UNL     1      -1.263  13.844  23.669  0.00  0.00    +0.000 NA
ATOM      8  C   UNL     1      -2.000  14.925  23.985  0.00  0.00    +0.000 A 
ATOM      9  N   UNL     1      -3.168  15.281  23.440  0.00  0.00    +0.000 NA
ATOM     10  C   UNL     1      -3.621  14.442  22.495  0.00  0.00    +0.000 A 
ATOM     11  C   UNL     1      -2.963  13.289  22.107  0.00  0.00    +0.000 A 
ATOM     12  F   UNL     1      -3.477  12.493  21.156  0.00  0.00    +0.000 F 
BRANCH  10  13
ATOM     13  O   UNL     1      -4.788  14.759  21.820  0.00  0.00    +0.000 OA
BRANCH  13  14
ATOM     14  C   UNL     1      -6.003  14.284  22.426  0.00  0.00    +0.000 C 
ATOM     15  C   UNL     1      -5.672  13.414  23.644  0.00  0.00    +0.000 C 
ATOM     16  C   UNL     1      -6.845  12.553  24.074  0.00  0.00    +0.000 C 
ATOM     17  O   UNL     1      -7.344  11.794  22.977  0.00  0.00    +0.000 OA
ATOM     18  C   UNL     1      -7.861  12.636  21.949  0.00  0.00    +0.000 C 
ATOM     19  C   UNL     1      -6.751  13.484  21.353  0.00  0.00    +0.000 C 
ENDBRANCH  13  14
ENDBRANCH  10  13
ENDBRANCH   4   6
BRANCH   1  20
ATOM     20  O   UNL     1       0.152   9.646  20.419  0.00  0.00    +0.000 OA
BRANCH  20  24
ATOM     21  C   UNL     1       2.872   7.223  18.324  0.00  0.00    +0.000 A 
ATOM     22  C   UNL     1       2.492   6.937  19.643  0.00  0.00    +0.000 A 
ATOM     23  C   UNL     1       1.597   7.780  20.326  0.00  0.00    +0.000 A 
ATOM     24  C   UNL     1       1.082   8.927  19.708  0.00  0.00    +0.000 A 
ATOM     25  C   UNL     1       1.486   9.229  18.414  0.00  0.00    +0.000 A 
ATOM     26  C   UNL     1       2.372   8.391  17.729  0.00  0.00    +0.000 A 
BRANCH  21  27
ATOM     27  C   UNL     1       3.741   6.266  17.513  0.00  0.00    +0.000 C 
ATOM     28  C   UNL     1       3.394   4.806  17.827  0.00  0.00    +0.000 C 
BRANCH  27  32
ATOM     29  C   UNL     1       7.487   6.916  17.436  0.00  0.00    +0.000 C 
ATOM     30  C   UNL     1       6.134   6.590  16.858  0.00  0.00    +0.000 C 
ATOM     31  O   UNL     1       5.962   6.375  15.665  0.00  0.00    +0.000 OA
ATOM     32  N   UNL     1       5.142   6.561  17.806  0.00  0.00    +0.000 N 
ATOM     33  H   UNL     1       5.353   6.934  18.723  0.00  0.00    +0.000 HD
ENDBRANCH  27  32
ENDBRANCH  21  27
ENDBRANCH  20  24
ENDBRANCH   1  20
TORSDOF 7
ENDMDL
MODEL 7
REMARK VINA RESULT:      -7.7      4.202     10.801
REMARK  Name = 
REMARK  9 active torsions:
REMARK  status: ('A' for Active; 'I' for Inactive)
REMARK    1  A    between atoms: C_1  and  C_2
REMARK    2  A    between atoms: N_4  and  C_5
REMARK    3  A    between atoms: C_5  and  C_6
REMARK    4  A    between atoms: C_5  and  C_7
REMARK    5  A    between atoms: C_10  and  O_11
REMARK    6  A    between atoms: O_11  and  C_12
REMARK    7  A    between atoms: N_15  and  C_16
REMARK    8  A    between atoms: C_20  and  O_21
REMARK    9  A    between atoms: O_21  and  C_22
REMARK                            x       y       z     vdW  Elec       q    Type
REMARK                         _______ _______ _______ _____ _____    ______ ____
ROOT
ATOM      1  C   UNL     1       2.592   5.337  19.228  0.00  0.00    +0.000 C 
ATOM      2  C   UNL     1       2.361   6.202  17.986  0.00  0.00    +0.000 C 
ATOM      3  C   UNL     1       2.347   7.642  18.497  0.00  0.00    +0.000 C 
ATOM      4  N   UNL     1       1.880   7.531  19.867  0.00  0.00    +0.000 N 
ATOM      5  C   UNL     1       1.933   6.158  20.359  0.00  0.00    +0.000 C 
ENDROOT
BRANCH   4   6
ATOM      6  C   UNL     1       1.341   8.557  20.598  0.00  0.00    +0.000 A 
ATOM      7  N   UNL     1       1.528   8.531  21.941  0.00  0.00    +0.000 NA
ATOM      8  C   UNL     1       0.969   9.515  22.671  0.00  0.00    +0.000 A 
ATOM      9  N   UNL     1       0.266  10.553  22.205  0.00  0.00    +0.000 NA
ATOM     10  C   UNL     1       0.115  10.570  20.872  0.00  0.00    +0.000 A 
ATOM     11  C   UNL     1       0.621   9.600  20.025  0.00  0.00    +0.000 A 
ATOM     12  F   UNL     1       0.428   9.681  18.699  0.00  0.00    +0.000 F 
BRANCH  10  13
ATOM     13  O   UNL     1      -0.538  11.640  20.285  0.00  0.00    +0.000 OA
BRANCH  13  14
ATOM     14  C   UNL     1       0.313  12.637  19.692  0.00  0.00    +0.000 C 
ATOM     15  C   UNL     1       1.270  13.200  20.749  0.00  0.00    +0.000 C 
ATOM     16  C   UNL     1       1.893  14.516  20.321  0.00  0.00    +0.000 C 
ATOM     17  O   UNL     1       0.888  15.450  19.938  0.00  0.00    +0.000 OA
ATOM     18  C   UNL     1       0.159  14.998  18.800  0.00  0.00    +0.000 C 
ATOM     19  C   UNL     1      -0.606  13.729  19.130  0.00  0.00    +0.000 C 
ENDBRANCH  13  14
ENDBRANCH  10  13
ENDBRANCH   4   6
BRANCH   1  20
ATOM     20  O   UNL     1       4.011   5.148  19.392  0.00  0.00    +0.000 OA
BRANCH  20  24
ATOM     21  C   UNL     1       5.950   4.244  15.775  0.00  0.00    +0.000 A 
ATOM     22  C   UNL     1       4.868   3.486  16.242  0.00  0.00    +0.000 A 
ATOM     23  C   UNL     1       4.254   3.799  17.469  0.00  0.00    +0.000 A 
ATOM     24  C   UNL     1       4.721   4.862  18.252  0.00  0.00    +0.000 A 
ATOM     25  C   UNL     1       5.817   5.591  17.806  0.00  0.00    +0.000 A 
ATOM     26  C   UNL     1       6.427   5.286  16.585  0.00  0.00    +0.000 A 
BRANCH  21  27
ATOM     27  C   UNL     1       6.559   4.011  14.396  0.00  0.00    +0.000 C 
ATOM     28  C   UNL     1       7.486   5.167  14.000  0.00  0.00    +0.000 C 
BRANCH  27  32
ATOM     29  C   UNL     1       4.334   3.235  11.412  0.00  0.00    +0.000 C 
ATOM     30  C   UNL     1       5.621   3.280  12.194  0.00  0.00    +0.000 C 
ATOM     31  O   UNL     1       6.679   2.855  11.749  0.00  0.00    +0.000 OA
ATOM     32  N   UNL     1       5.469   3.843  13.437  0.00  0.00    +0.000 N 
ATOM     33  H   UNL     1       4.528   3.988  13.778  0.00  0.00    +0.000 HD
ENDBRANCH  27  32
ENDBRANCH  21  27
ENDBRANCH  20  24
ENDBRANCH   1  20
TORSDOF 7
ENDMDL
MODEL 8
REMARK VINA RESULT:      -7.7      2.908      3.913
REMARK  Name = 
REMARK  9 active torsions:
REMARK  status: ('A' for Active; 'I' for Inactive)
REMARK    1  A    between atoms: C_1  and  C_2
REMARK    2  A    between atoms: N_4  and  C_5
REMARK    3  A    between atoms: C_5  and  C_6
REMARK    4  A    between atoms: C_5  and  C_7
REMARK    5  A    between atoms: C_10  and  O_11
REMARK    6  A    between atoms: O_11  and  C_12
REMARK    7  A    between atoms: N_15  and  C_16
REMARK    8  A    between atoms: C_20  and  O_21
REMARK    9  A    between atoms: O_21  and  C_22
REMARK                            x       y       z     vdW  Elec       q    Type
REMARK                         _______ _______ _______ _____ _____    ______ ____
ROOT
ATOM      1  C   UNL     1      -0.765   9.866  22.918  0.00  0.00    +0.000 C 
ATOM      2  C   UNL     1       0.505   9.271  23.529  0.00  0.00    +0.000 C 
ATOM      3  C   UNL     1       1.572   9.398  22.442  0.00  0.00    +0.000 C 
ATOM      4  N   UNL     1       0.823   9.359  21.199  0.00  0.00    +0.000 N 
ATOM      5  C   UNL     1      -0.607   9.566  21.410  0.00  0.00    +0.000 C 
ENDROOT
BRANCH   4   6
ATOM      6  C   UNL     1       1.352   9.054  19.973  0.00  0.00    +0.000 A 
ATOM      7  N   UNL     1       1.364  10.035  19.037  0.00  0.00    +0.000 NA
ATOM      8  C   UNL     1       1.847   9.732  17.818  0.00  0.00    +0.000 A 
ATOM      9  N   UNL     1       2.358   8.558  17.431  0.00  0.00    +0.000 NA
ATOM     10  C   UNL     1       2.358   7.610  18.381  0.00  0.00    +0.000 A 
ATOM     11  C   UNL     1       1.863   7.798  19.659  0.00  0.00    +0.000 A 
ATOM     12  F   UNL     1       1.893   6.802  20.559  0.00  0.00    +0.000 F 
BRANCH  10  13
ATOM     13  O   UNL     1       2.929   6.381  18.101  0.00  0.00    +0.000 OA
BRANCH  13  14
ATOM     14  C   UNL     1       4.367   6.357  18.075  0.00  0.00    +0.000 C 
ATOM     15  C   UNL     1       4.857   6.063  16.653  0.00  0.00    +0.000 C 
ATOM     16  C   UNL     1       6.306   5.611  16.623  0.00  0.00    +0.000 C 
ATOM     17  O   UNL     1       6.513   4.518  17.512  0.00  0.00    +0.000 OA
ATOM     18  C   UNL     1       6.270   4.890  18.866  0.00  0.00    +0.000 C 
ATOM     19  C   UNL     1       4.811   5.265  19.057  0.00  0.00    +0.000 C 
ENDBRANCH  13  14
ENDBRANCH  10  13
ENDBRANCH   4   6
BRANCH   1  20
ATOM     20  O   UNL     1      -0.806  11.271  23.233  0.00  0.00    +0.000 OA
BRANCH  20  24
ATOM     21  C   UNL     1      -4.353  13.172  22.022  0.00  0.00    +0.000 A 
ATOM     22  C   UNL     1      -3.220  13.127  21.197  0.00  0.00    +0.000 A 
ATOM     23  C   UNL     1      -2.039  12.502  21.640  0.00  0.00    +0.000 A 
ATOM     24  C   UNL     1      -1.969  11.930  22.916  0.00  0.00    +0.000 A 
ATOM     25  C   UNL     1      -3.079  12.007  23.747  0.00  0.00    +0.000 A 
ATOM     26  C   UNL     1      -4.257  12.622  23.309  0.00  0.00    +0.000 A 
BRANCH  21  27
ATOM     27  C   UNL     1      -5.685  13.730  21.529  0.00  0.00    +0.000 C 
ATOM     28  C   UNL     1      -6.115  14.944  22.360  0.00  0.00    +0.000 C 
BRANCH  27  32
ATOM     29  C   UNL     1      -7.916  10.710  20.934  0.00  0.00    +0.000 C 
ATOM     30  C   UNL     1      -6.809  11.685  20.627  0.00  0.00    +0.000 C 
ATOM     31  O   UNL     1      -6.114  11.599  19.623  0.00  0.00    +0.000 OA
ATOM     32  N   UNL     1      -6.678  12.659  21.585  0.00  0.00    +0.000 N 
ATOM     33  H   UNL     1      -7.172  12.533  22.459  0.00  0.00    +0.000 HD
ENDBRANCH  27  32
ENDBRANCH  21  27
ENDBRANCH  20  24
ENDBRANCH   1  20
TORSDOF 7
ENDMDL
MODEL 9
REMARK VINA RESULT:      -7.7      4.089      6.555
REMARK  Name = 
REMARK  9 active torsions:
REMARK  status: ('A' for Active; 'I' for Inactive)
REMARK    1  A    between atoms: C_1  and  C_2
REMARK    2  A    between atoms: N_4  and  C_5
REMARK    3  A    between atoms: C_5  and  C_6
REMARK    4  A    between atoms: C_5  and  C_7
REMARK    5  A    between atoms: C_10  and  O_11
REMARK    6  A    between atoms: O_11  and  C_12
REMARK    7  A    between atoms: N_15  and  C_16
REMARK    8  A    between atoms: C_20  and  O_21
REMARK    9  A    between atoms: O_21  and  C_22
REMARK                            x       y       z     vdW  Elec       q    Type
REMARK                         _______ _______ _______ _____ _____    ______ ____
ROOT
ATOM      1  C   UNL     1       1.887   6.545  19.448  0.00  0.00    +0.000 C 
ATOM      2  C   UNL     1       2.078   5.288  20.300  0.00  0.00    +0.000 C 
ATOM      3  C   UNL     1       3.581   5.011  20.277  0.00  0.00    +0.000 C 
ATOM      4  N   UNL     1       4.027   5.564  19.011  0.00  0.00    +0.000 N 
ATOM      5  C   UNL     1       3.031   6.447  18.413  0.00  0.00    +0.000 C 
ENDROOT
BRANCH   4   6
ATOM      6  C   UNL     1       5.191   5.224  18.374  0.00  0.00    +0.000 A 
ATOM      7  N   UNL     1       6.355   5.614  18.951  0.00  0.00    +0.000 NA
ATOM      8  C   UNL     1       7.502   5.318  18.312  0.00  0.00    +0.000 A 
ATOM      9  N   UNL     1       7.625   4.640  17.166  0.00  0.00    +0.000 NA
ATOM     10  C   UNL     1       6.462   4.243  16.626  0.00  0.00    +0.000 A 
ATOM     11  C   UNL     1       5.222   4.513  17.178  0.00  0.00    +0.000 A 
ATOM     12  F   UNL     1       4.098   4.087  16.580  0.00  0.00    +0.000 F 
BRANCH  10  13
ATOM     13  O   UNL     1       6.485   3.474  15.475  0.00  0.00    +0.000 OA
BRANCH  13  14
ATOM     14  C   UNL     1       6.308   4.196  14.244  0.00  0.00    +0.000 C 
ATOM     15  C   UNL     1       5.904   3.227  13.126  0.00  0.00    +0.000 C 
ATOM     16  C   UNL     1       6.106   3.822  11.745  0.00  0.00    +0.000 C 
ATOM     17  O   UNL     1       7.436   4.310  11.595  0.00  0.00    +0.000 OA
ATOM     18  C   UNL     1       7.708   5.377  12.500  0.00  0.00    +0.000 C 
ATOM     19  C   UNL     1       7.644   4.882  13.934  0.00  0.00    +0.000 C 
ENDBRANCH  13  14
ENDBRANCH  10  13
ENDBRANCH   4   6
BRANCH   1  20
ATOM     20  O   UNL     1       1.975   7.696  20.309  0.00  0.00    +0.000 OA
BRANCH  20  24
ATOM     21  C   UNL     1      -0.328  11.110  19.470  0.00  0.00    +0.000 A 
ATOM     22  C   UNL     1      -0.458  10.410  20.677  0.00  0.00    +0.000 A 
ATOM     23  C   UNL     1       0.310   9.256  20.920  0.00  0.00    +0.000 A 
ATOM     24  C   UNL     1       1.206   8.778  19.956  0.00  0.00    +0.000 A 
ATOM     25  C   UNL     1       1.309   9.452  18.745  0.00  0.00    +0.000 A 
ATOM     26  C   UNL     1       0.551  10.602  18.501  0.00  0.00    +0.000 A 
BRANCH  21  27
ATOM     27  C   UNL     1      -1.052  12.430  19.224  0.00  0.00    +0.000 C 
ATOM     28  C   UNL     1      -0.816  13.410  20.379  0.00  0.00    +0.000 C 
BRANCH  27  32
ATOM     29  C   UNL     1      -4.505  11.457  17.965  0.00  0.00    +0.000 C 
ATOM     30  C   UNL     1      -3.014  11.655  17.879  0.00  0.00    +0.000 C 
ATOM     31  O   UNL     1      -2.373  11.402  16.867  0.00  0.00    +0.000 OA
ATOM     32  N   UNL     1      -2.473  12.145  19.042  0.00  0.00    +0.000 N 
ATOM     33  H   UNL     1      -3.054  12.143  19.871  0.00  0.00    +0.000 HD
ENDBRANCH  27  32
ENDBRANCH  21  27
ENDBRANCH  20  24
ENDBRANCH   1  20
TORSDOF 7
ENDMDL
