MODEL 1
REMARK VINA RESULT:      -8.2      0.000      0.000
REMARK  Name = 
REMARK  8 active torsions:
REMARK  status: ('A' for Active; 'I' for Inactive)
REMARK    1  A    between atoms: C_1  and  C_2
REMARK    2  A    between atoms: C_6  and  N_7
REMARK    3  A    between atoms: C_8  and  C_10
REMARK    4  A    between atoms: C_10  and  N_11
REMARK    5  A    between atoms: C_10  and  C_19
REMARK    6  A    between atoms: C_10  and  C_25
REMARK    7  A    between atoms: N_11  and  C_12
REMARK    8  A    between atoms: C_16  and  C_17
REMARK                            x       y       z     vdW  Elec       q    Type
REMARK                         _______ _______ _______ _____ _____    ______ ____
ROOT
ATOM      1  C   UNL     1       4.960   5.519  17.598  0.00  0.00    +0.000 C 
ENDROOT
BRANCH   1   2
ATOM      2  C   UNL     1       6.253   6.066  18.294  0.00  0.00    +0.000 A 
ATOM      3  C   UNL     1       6.804   5.342  19.377  0.00  0.00    +0.000 A 
ATOM      4  C   UNL     1       8.038   5.679  19.937  0.00  0.00    +0.000 A 
ATOM      5  C   UNL     1       8.753   6.761  19.439  0.00  0.00    +0.000 A 
ATOM      6  C   UNL     1       8.217   7.521  18.403  0.00  0.00    +0.000 A 
ATOM      7  C   UNL     1       6.976   7.185  17.842  0.00  0.00    +0.000 A 
ENDBRANCH   1   2
BRANCH   1   8
ATOM      8  C   UNL     1       3.797   6.512  17.973  0.00  0.00    +0.000 A 
ATOM      9  C   UNL     1       3.275   7.443  17.056  0.00  0.00    +0.000 A 
ATOM     10  C   UNL     1       2.283   8.352  17.447  0.00  0.00    +0.000 A 
ATOM     11  C   UNL     1       1.775   8.337  18.742  0.00  0.00    +0.000 A 
ATOM     12  C   UNL     1       2.242   7.399  19.653  0.00  0.00    +0.000 A 
ATOM     13  C   UNL     1       3.225   6.491  19.265  0.00  0.00    +0.000 A 
ENDBRANCH   1   8
BRANCH   1  15
ATOM     14  N   UNL     1       5.578   4.238  15.421  0.00  0.00    +0.000 N 
ATOM     15  C   UNL     1       5.178   5.440  15.990  0.00  0.00    +0.000 C 
ATOM     16  O   UNL     1       5.018   6.447  15.277  0.00  0.00    +0.000 OA
ATOM     17  H   UNL     1       5.936   3.520  16.039  0.00  0.00    +0.000 HD
BRANCH  14  23
ATOM     18  C   UNL     1       3.700   2.991  11.009  0.00  0.00    +0.000 C 
ATOM     19  C   UNL     1       4.865   3.439  11.842  0.00  0.00    +0.000 A 
ATOM     20  C   UNL     1       6.119   3.631  11.254  0.00  0.00    +0.000 A 
ATOM     21  C   UNL     1       7.190   4.053  12.030  0.00  0.00    +0.000 A 
ATOM     22  C   UNL     1       7.014   4.277  13.396  0.00  0.00    +0.000 A 
ATOM     23  C   UNL     1       5.775   4.065  14.020  0.00  0.00    +0.000 A 
ATOM     24  C   UNL     1       4.698   3.660  13.225  0.00  0.00    +0.000 A 
ENDBRANCH  14  23
ENDBRANCH   1  15
BRANCH   1  25
ATOM     25  N   UNL     1       4.642   4.125  18.088  0.00  0.00    +0.000 N 
ATOM     26  H   UNL     1       5.302   3.836  18.804  0.00  0.00    +0.000 HD
BRANCH  25  27
ATOM     27  C   UNL     1       3.359   3.724  18.507  0.00  0.00    +0.000 A 
ATOM     28  C   UNL     1       2.252   3.613  17.664  0.00  0.00    +0.000 A 
ATOM     29  C   UNL     1       1.009   3.169  18.105  0.00  0.00    +0.000 A 
ATOM     30  C   UNL     1       0.827   2.837  19.436  0.00  0.00    +0.000 A 
ATOM     31  C   UNL     1       1.896   2.945  20.329  0.00  0.00    +0.000 A 
ATOM     32  C   UNL     1       1.685   2.601  21.772  0.00  0.00    +0.000 C 
ATOM     33  C   UNL     1       3.155   3.380  19.856  0.00  0.00    +0.000 A 
ENDBRANCH  25  27
ENDBRANCH   1  25
TORSDOF 6
ENDMDL
MODEL 2
REMARK VINA RESULT:      -8.1      0.246      1.244
REMARK  Name = 
REMARK  8 active torsions:
REMARK  status: ('A' for Active; 'I' for Inactive)
REMARK    1  A    between atoms: C_1  and  C_2
REMARK    2  A    between atoms: C_6  and  N_7
REMARK    3  A    between atoms: C_8  and  C_10
REMARK    4  A    between atoms: C_10  and  N_11
REMARK    5  A    between atoms: C_10  and  C_19
REMARK    6  A    between atoms: C_10  and  C_25
REMARK    7  A    between atoms: N_11  and  C_12
REMARK    8  A    between atoms: C_16  and  C_17
REMARK                            x       y       z     vdW  Elec       q    Type
REMARK                         _______ _______ _______ _____ _____    ______ ____
ROOT
ATOM      1  C   UNL     1       5.129   5.335  17.514  0.00  0.00    +0.000 C 
ENDROOT
BRANCH   1   2
ATOM      2  C   UNL     1       6.461   5.848  18.162  0.00  0.00    +0.000 A 
ATOM      3  C   UNL     1       7.070   7.013  17.638  0.00  0.00    +0.000 A 
ATOM      4  C   UNL     1       8.163   7.618  18.263  0.00  0.00    +0.000 A 
ATOM      5  C   UNL     1       8.688   7.067  19.424  0.00  0.00    +0.000 A 
ATOM      6  C   UNL     1       8.140   5.895  19.940  0.00  0.00    +0.000 A 
ATOM      7  C   UNL     1       7.044   5.286  19.312  0.00  0.00    +0.000 A 
ENDBRANCH   1   2
BRANCH   1   8
ATOM      8  C   UNL     1       4.001   6.340  17.955  0.00  0.00    +0.000 A 
ATOM      9  C   UNL     1       3.441   6.326  19.246  0.00  0.00    +0.000 A 
ATOM     10  C   UNL     1       2.395   7.196  19.580  0.00  0.00    +0.000 A 
ATOM     11  C   UNL     1       1.906   8.109  18.653  0.00  0.00    +0.000 A 
ATOM     12  C   UNL     1       2.472   8.174  17.387  0.00  0.00    +0.000 A 
ATOM     13  C   UNL     1       3.515   7.313  17.053  0.00  0.00    +0.000 A 
ENDBRANCH   1   8
BRANCH   1  15
ATOM     14  N   UNL     1       5.637   4.082  15.292  0.00  0.00    +0.000 N 
ATOM     15  C   UNL     1       5.276   5.279  15.897  0.00  0.00    +0.000 C 
ATOM     16  O   UNL     1       5.097   6.299  15.208  0.00  0.00    +0.000 OA
ATOM     17  H   UNL     1       6.014   3.350  15.883  0.00  0.00    +0.000 HD
BRANCH  14  23
ATOM     18  C   UNL     1       3.535   3.004  10.938  0.00  0.00    +0.000 C 
ATOM     19  C   UNL     1       4.750   3.386  11.731  0.00  0.00    +0.000 A 
ATOM     20  C   UNL     1       5.987   3.537  11.096  0.00  0.00    +0.000 A 
ATOM     21  C   UNL     1       7.104   3.898  11.837  0.00  0.00    +0.000 A 
ATOM     22  C   UNL     1       6.992   4.102  13.212  0.00  0.00    +0.000 A 
ATOM     23  C   UNL     1       5.771   3.929  13.882  0.00  0.00    +0.000 A 
ATOM     24  C   UNL     1       4.647   3.586  13.124  0.00  0.00    +0.000 A 
ENDBRANCH  14  23
ENDBRANCH   1  15
BRANCH   1  25
ATOM     25  N   UNL     1       4.808   3.938  17.995  0.00  0.00    +0.000 N 
ATOM     26  H   UNL     1       5.487   3.630  18.685  0.00  0.00    +0.000 HD
BRANCH  25  27
ATOM     27  C   UNL     1       3.535   3.548  18.451  0.00  0.00    +0.000 A 
ATOM     28  C   UNL     1       2.418   3.385  17.629  0.00  0.00    +0.000 A 
ATOM     29  C   UNL     1       1.184   2.955  18.109  0.00  0.00    +0.000 A 
ATOM     30  C   UNL     1       1.023   2.689  19.457  0.00  0.00    +0.000 A 
ATOM     31  C   UNL     1       2.102   2.850  20.329  0.00  0.00    +0.000 A 
ATOM     32  C   UNL     1       1.912   2.578  21.791  0.00  0.00    +0.000 C 
ATOM     33  C   UNL     1       3.351   3.271  19.818  0.00  0.00    +0.000 A 
ENDBRANCH  25  27
ENDBRANCH   1  25
TORSDOF 6
ENDMDL
MODEL 3
REMARK VINA RESULT:      -7.9      0.932      1.310
REMARK  Name = 
REMARK  8 active torsions:
REMARK  status: ('A' for Active; 'I' for Inactive)
REMARK    1  A    between atoms: C_1  and  C_2
REMARK    2  A    between atoms: C_6  and  N_7
REMARK    3  A    between atoms: C_8  and  C_10
REMARK    4  A    between atoms: C_10  and  N_11
REMARK    5  A    between atoms: C_10  and  C_19
REMARK    6  A    between atoms: C_10  and  C_25
REMARK    7  A    between atoms: N_11  and  C_12
REMARK    8  A    between atoms: C_16  and  C_17
REMARK                            x       y       z     vdW  Elec       q    Type
REMARK                         _______ _______ _______ _____ _____    ______ ____
ROOT
ATOM      1  C   UNL     1       5.362   5.392  17.628  0.00  0.00    +0.000 C 
ENDROOT
BRANCH   1   2
ATOM      2  C   UNL     1       6.640   6.186  18.067  0.00  0.00    +0.000 A 
ATOM      3  C   UNL     1       6.943   7.406  17.418  0.00  0.00    +0.000 A 
ATOM      4  C   UNL     1       7.968   8.243  17.863  0.00  0.00    +0.000 A 
ATOM      5  C   UNL     1       8.731   7.878  18.964  0.00  0.00    +0.000 A 
ATOM      6  C   UNL     1       8.487   6.662  19.598  0.00  0.00    +0.000 A 
ATOM      7  C   UNL     1       7.460   5.819  19.150  0.00  0.00    +0.000 A 
ENDBRANCH   1   2
BRANCH   1   8
ATOM      8  C   UNL     1       4.126   6.289  18.011  0.00  0.00    +0.000 A 
ATOM      9  C   UNL     1       3.623   7.286  17.154  0.00  0.00    +0.000 A 
ATOM     10  C   UNL     1       2.561   8.105  17.557  0.00  0.00    +0.000 A 
ATOM     11  C   UNL     1       1.964   7.934  18.802  0.00  0.00    +0.000 A 
ATOM     12  C   UNL     1       2.412   6.929  19.647  0.00  0.00    +0.000 A 
ATOM     13  C   UNL     1       3.465   6.110  19.247  0.00  0.00    +0.000 A 
ENDBRANCH   1   8
BRANCH   1  15
ATOM     14  N   UNL     1       6.636   4.898  15.415  0.00  0.00    +0.000 N 
ATOM     15  C   UNL     1       5.407   5.093  16.032  0.00  0.00    +0.000 C 
ATOM     16  O   UNL     1       4.360   5.067  15.361  0.00  0.00    +0.000 OA
ATOM     17  H   UNL     1       7.468   5.169  15.926  0.00  0.00    +0.000 HD
BRANCH  14  23
ATOM     18  C   UNL     1       5.456   2.031  11.551  0.00  0.00    +0.000 C 
ATOM     19  C   UNL     1       6.214   3.196  12.117  0.00  0.00    +0.000 A 
ATOM     20  C   UNL     1       7.071   3.942  11.302  0.00  0.00    +0.000 A 
ATOM     21  C   UNL     1       7.762   5.023  11.831  0.00  0.00    +0.000 A 
ATOM     22  C   UNL     1       7.606   5.358  13.177  0.00  0.00    +0.000 A 
ATOM     23  C   UNL     1       6.777   4.610  14.027  0.00  0.00    +0.000 A 
ATOM     24  C   UNL     1       6.069   3.536  13.479  0.00  0.00    +0.000 A 
ENDBRANCH  14  23
ENDBRANCH   1  15
BRANCH   1  25
ATOM     25  N   UNL     1       5.290   4.062  18.344  0.00  0.00    +0.000 N 
ATOM     26  H   UNL     1       5.823   4.089  19.207  0.00  0.00    +0.000 HD
BRANCH  25  27
ATOM     27  C   UNL     1       4.083   3.390  18.611  0.00  0.00    +0.000 A 
ATOM     28  C   UNL     1       3.303   2.752  17.644  0.00  0.00    +0.000 A 
ATOM     29  C   UNL     1       2.137   2.058  17.952  0.00  0.00    +0.000 A 
ATOM     30  C   UNL     1       1.696   1.997  19.261  0.00  0.00    +0.000 A 
ATOM     31  C   UNL     1       2.428   2.630  20.269  0.00  0.00    +0.000 A 
ATOM     32  C   UNL     1       1.932   2.575  21.682  0.00  0.00    +0.000 C 
ATOM     33  C   UNL     1       3.620   3.314  19.937  0.00  0.00    +0.000 A 
ENDBRANCH  25  27
ENDBRANCH   1  25
TORSDOF 6
ENDMDL
MODEL 4
REMARK VINA RESULT:      -7.8      6.486     11.393
REMARK  Name = 
REMARK  8 active torsions:
REMARK  status: ('A' for Active; 'I' for Inactive)
REMARK    1  A    between atoms: C_1  and  C_2
REMARK    2  A    between atoms: C_6  and  N_7
REMARK    3  A    between atoms: C_8  and  C_10
REMARK    4  A    between atoms: C_10  and  N_11
REMARK    5  A    between atoms: C_10  and  C_19
REMARK    6  A    between atoms: C_10  and  C_25
REMARK    7  A    between atoms: N_11  and  C_12
REMARK    8  A    between atoms: C_16  and  C_17
REMARK                            x       y       z     vdW  Elec       q    Type
REMARK                         _______ _______ _______ _____ _____    ______ ____
ROOT
ATOM      1  C   UNL     1       0.051  11.157  19.025  0.00  0.00    +0.000 C 
ENDROOT
BRANCH   1   2
ATOM      2  C   UNL     1       0.758   9.768  19.190  0.00  0.00    +0.000 A 
ATOM      3  C   UNL     1       1.473   9.231  18.093  0.00  0.00    +0.000 A 
ATOM      4  C   UNL     1       2.258   8.082  18.216  0.00  0.00    +0.000 A 
ATOM      5  C   UNL     1       2.341   7.428  19.438  0.00  0.00    +0.000 A 
ATOM      6  C   UNL     1       1.613   7.906  20.525  0.00  0.00    +0.000 A 
ATOM      7  C   UNL     1       0.822   9.057  20.402  0.00  0.00    +0.000 A 
ENDBRANCH   1   2
BRANCH   1   8
ATOM      8  C   UNL     1      -1.265  10.894  18.203  0.00  0.00    +0.000 A 
ATOM      9  C   UNL     1      -1.689  11.746  17.167  0.00  0.00    +0.000 A 
ATOM     10  C   UNL     1      -2.900  11.513  16.500  0.00  0.00    +0.000 A 
ATOM     11  C   UNL     1      -3.694  10.420  16.831  0.00  0.00    +0.000 A 
ATOM     12  C   UNL     1      -3.275   9.539  17.818  0.00  0.00    +0.000 A 
ATOM     13  C   UNL     1      -2.070   9.767  18.479  0.00  0.00    +0.000 A 
ENDBRANCH   1   8
BRANCH   1  15
ATOM     14  N   UNL     1      -1.480  12.460  20.674  0.00  0.00    +0.000 N 
ATOM     15  C   UNL     1      -0.276  11.797  20.482  0.00  0.00    +0.000 C 
ATOM     16  O   UNL     1       0.552  11.721  21.408  0.00  0.00    +0.000 OA
ATOM     17  H   UNL     1      -2.012  12.719  19.852  0.00  0.00    +0.000 HD
BRANCH  14  23
ATOM     18  C   UNL     1      -4.422  12.338  24.659  0.00  0.00    +0.000 C 
ATOM     19  C   UNL     1      -3.319  12.994  23.882  0.00  0.00    +0.000 A 
ATOM     20  C   UNL     1      -2.725  14.169  24.356  0.00  0.00    +0.000 A 
ATOM     21  C   UNL     1      -1.699  14.765  23.635  0.00  0.00    +0.000 A 
ATOM     22  C   UNL     1      -1.269  14.196  22.436  0.00  0.00    +0.000 A 
ATOM     23  C   UNL     1      -1.866  13.035  21.920  0.00  0.00    +0.000 A 
ATOM     24  C   UNL     1      -2.883  12.431  22.664  0.00  0.00    +0.000 A 
ENDBRANCH  14  23
ENDBRANCH   1  15
BRANCH   1  25
ATOM     25  N   UNL     1       0.949  12.126  18.289  0.00  0.00    +0.000 N 
ATOM     26  H   UNL     1       0.694  12.178  17.308  0.00  0.00    +0.000 HD
BRANCH  25  27
ATOM     27  C   UNL     1       1.202  13.437  18.732  0.00  0.00    +0.000 A 
ATOM     28  C   UNL     1       2.385  13.848  19.350  0.00  0.00    +0.000 A 
ATOM     29  C   UNL     1       2.618  15.165  19.734  0.00  0.00    +0.000 A 
ATOM     30  C   UNL     1       1.646  16.127  19.526  0.00  0.00    +0.000 A 
ATOM     31  C   UNL     1       0.436  15.770  18.926  0.00  0.00    +0.000 A 
ATOM     32  C   UNL     1      -0.619  16.815  18.722  0.00  0.00    +0.000 C 
ATOM     33  C   UNL     1       0.227  14.430  18.526  0.00  0.00    +0.000 A 
ENDBRANCH  25  27
ENDBRANCH   1  25
TORSDOF 6
ENDMDL
MODEL 5
REMARK VINA RESULT:      -7.7      6.473     10.950
REMARK  Name = 
REMARK  8 active torsions:
REMARK  status: ('A' for Active; 'I' for Inactive)
REMARK    1  A    between atoms: C_1  and  C_2
REMARK    2  A    between atoms: C_6  and  N_7
REMARK    3  A    between atoms: C_8  and  C_10
REMARK    4  A    between atoms: C_10  and  N_11
REMARK    5  A    between atoms: C_10  and  C_19
REMARK    6  A    between atoms: C_10  and  C_25
REMARK    7  A    between atoms: N_11  and  C_12
REMARK    8  A    between atoms: C_16  and  C_17
REMARK                            x       y       z     vdW  Elec       q    Type
REMARK                         _______ _______ _______ _____ _____    ______ ____
ROOT
ATOM      1  C   UNL     1       0.478  11.682  19.321  0.00  0.00    +0.000 C 
ENDROOT
BRANCH   1   2
ATOM      2  C   UNL     1       1.673  12.695  19.358  0.00  0.00    +0.000 A 
ATOM      3  C   UNL     1       2.059  13.341  18.160  0.00  0.00    +0.000 A 
ATOM      4  C   UNL     1       3.003  14.370  18.148  0.00  0.00    +0.000 A 
ATOM      5  C   UNL     1       3.600  14.776  19.335  0.00  0.00    +0.000 A 
ATOM      6  C   UNL     1       3.275  14.130  20.524  0.00  0.00    +0.000 A 
ATOM      7  C   UNL     1       2.330  13.094  20.537  0.00  0.00    +0.000 A 
ENDBRANCH   1   2
BRANCH   1   8
ATOM      8  C   UNL     1       1.113  10.244  19.263  0.00  0.00    +0.000 A 
ATOM      9  C   UNL     1       1.702   9.725  18.094  0.00  0.00    +0.000 A 
ATOM     10  C   UNL     1       2.200   8.416  18.065  0.00  0.00    +0.000 A 
ATOM     11  C   UNL     1       2.148   7.610  19.198  0.00  0.00    +0.000 A 
ATOM     12  C   UNL     1       1.613   8.113  20.375  0.00  0.00    +0.000 A 
ATOM     13  C   UNL     1       1.121   9.416  20.408  0.00  0.00    +0.000 A 
ENDBRANCH   1   8
BRANCH   1  15
ATOM     14  N   UNL     1      -0.917  13.134  20.966  0.00  0.00    +0.000 N 
ATOM     15  C   UNL     1      -0.456  11.867  20.637  0.00  0.00    +0.000 C 
ATOM     16  O   UNL     1      -0.734  10.893  21.360  0.00  0.00    +0.000 OA
ATOM     17  H   UNL     1      -0.478  13.928  20.514  0.00  0.00    +0.000 HD
BRANCH  14  23
ATOM     18  C   UNL     1      -5.452  13.058  22.960  0.00  0.00    +0.000 C 
ATOM     19  C   UNL     1      -3.990  13.374  23.077  0.00  0.00    +0.000 A 
ATOM     20  C   UNL     1      -3.486  13.952  24.246  0.00  0.00    +0.000 A 
ATOM     21  C   UNL     1      -2.131  14.234  24.350  0.00  0.00    +0.000 A 
ATOM     22  C   UNL     1      -1.276  13.946  23.285  0.00  0.00    +0.000 A 
ATOM     23  C   UNL     1      -1.758  13.393  22.088  0.00  0.00    +0.000 A 
ATOM     24  C   UNL     1      -3.120  13.094  22.002  0.00  0.00    +0.000 A 
ENDBRANCH  14  23
ENDBRANCH   1  15
BRANCH   1  25
ATOM     25  N   UNL     1      -0.387  11.926  18.105  0.00  0.00    +0.000 N 
ATOM     26  H   UNL     1       0.138  11.766  17.251  0.00  0.00    +0.000 HD
BRANCH  25  27
ATOM     27  C   UNL     1      -1.661  11.353  17.933  0.00  0.00    +0.000 A 
ATOM     28  C   UNL     1      -1.896  10.116  17.329  0.00  0.00    +0.000 A 
ATOM     29  C   UNL     1      -3.167   9.560  17.217  0.00  0.00    +0.000 A 
ATOM     30  C   UNL     1      -4.266  10.248  17.696  0.00  0.00    +0.000 A 
ATOM     31  C   UNL     1      -4.093  11.498  18.295  0.00  0.00    +0.000 A 
ATOM     32  C   UNL     1      -5.293  12.247  18.794  0.00  0.00    +0.000 C 
ATOM     33  C   UNL     1      -2.792  12.037  18.416  0.00  0.00    +0.000 A 
ENDBRANCH  25  27
ENDBRANCH   1  25
TORSDOF 6
ENDMDL
MODEL 6
REMARK VINA RESULT:      -7.7      6.536     11.133
REMARK  Name = 
REMARK  8 active torsions:
REMARK  status: ('A' for Active; 'I' for Inactive)
REMARK    1  A    between atoms: C_1  and  C_2
REMARK    2  A    between atoms: C_6  and  N_7
REMARK    3  A    between atoms: C_8  and  C_10
REMARK    4  A    between atoms: C_10  and  N_11
REMARK    5  A    between atoms: C_10  and  C_19
REMARK    6  A    between atoms: C_10  and  C_25
REMARK    7  A    between atoms: N_11  and  C_12
REMARK    8  A    between atoms: C_16  and  C_17
REMARK                            x       y       z     vdW  Elec       q    Type
REMARK                         _______ _______ _______ _____ _____    ______ ____
ROOT
ATOM      1  C   UNL     1       0.430  11.697  19.367  0.00  0.00    +0.000 C 
ENDROOT
BRANCH   1   2
ATOM      2  C   UNL     1       1.653  12.677  19.391  0.00  0.00    +0.000 A 
ATOM      3  C   UNL     1       2.051  13.302  18.186  0.00  0.00    +0.000 A 
ATOM      4  C   UNL     1       3.023  14.305  18.162  0.00  0.00    +0.000 A 
ATOM      5  C   UNL     1       3.635  14.704  19.343  0.00  0.00    +0.000 A 
ATOM      6  C   UNL     1       3.297  14.077  20.539  0.00  0.00    +0.000 A 
ATOM      7  C   UNL     1       2.324  13.067  20.564  0.00  0.00    +0.000 A 
ENDBRANCH   1   2
BRANCH   1   8
ATOM      8  C   UNL     1       1.026  10.241  19.310  0.00  0.00    +0.000 A 
ATOM      9  C   UNL     1       1.018   9.379  20.422  0.00  0.00    +0.000 A 
ATOM     10  C   UNL     1       1.615   8.113  20.350  0.00  0.00    +0.000 A 
ATOM     11  C   UNL     1       2.204   7.672  19.170  0.00  0.00    +0.000 A 
ATOM     12  C   UNL     1       2.186   8.485  18.046  0.00  0.00    +0.000 A 
ATOM     13  C   UNL     1       1.589   9.742  18.114  0.00  0.00    +0.000 A 
ENDBRANCH   1   8
BRANCH   1  15
ATOM     14  N   UNL     1      -0.947  13.186  20.994  0.00  0.00    +0.000 N 
ATOM     15  C   UNL     1      -0.489  11.912  20.689  0.00  0.00    +0.000 C 
ATOM     16  O   UNL     1      -0.756  10.955  21.438  0.00  0.00    +0.000 OA
ATOM     17  H   UNL     1      -0.515  13.969  20.518  0.00  0.00    +0.000 HD
BRANCH  14  23
ATOM     18  C   UNL     1      -1.465  15.339  25.426  0.00  0.00    +0.000 C 
ATOM     19  C   UNL     1      -2.038  14.515  24.310  0.00  0.00    +0.000 A 
ATOM     20  C   UNL     1      -3.337  14.006  24.406  0.00  0.00    +0.000 A 
ATOM     21  C   UNL     1      -3.863  13.251  23.366  0.00  0.00    +0.000 A 
ATOM     22  C   UNL     1      -3.091  12.998  22.231  0.00  0.00    +0.000 A 
ATOM     23  C   UNL     1      -1.775  13.471  22.119  0.00  0.00    +0.000 A 
ATOM     24  C   UNL     1      -1.262  14.247  23.162  0.00  0.00    +0.000 A 
ENDBRANCH  14  23
ENDBRANCH   1  15
BRANCH   1  25
ATOM     25  N   UNL     1      -0.437  11.959  18.157  0.00  0.00    +0.000 N 
ATOM     26  H   UNL     1       0.088  11.818  17.300  0.00  0.00    +0.000 HD
BRANCH  25  27
ATOM     27  C   UNL     1      -1.708  11.383  17.974  0.00  0.00    +0.000 A 
ATOM     28  C   UNL     1      -1.937  10.154  17.353  0.00  0.00    +0.000 A 
ATOM     29  C   UNL     1      -3.205   9.594  17.231  0.00  0.00    +0.000 A 
ATOM     30  C   UNL     1      -4.308  10.271  17.718  0.00  0.00    +0.000 A 
ATOM     31  C   UNL     1      -4.142  11.513  18.335  0.00  0.00    +0.000 A 
ATOM     32  C   UNL     1      -5.345  12.248  18.843  0.00  0.00    +0.000 C 
ATOM     33  C   UNL     1      -2.843  12.055  18.466  0.00  0.00    +0.000 A 
ENDBRANCH  25  27
ENDBRANCH   1  25
TORSDOF 6
ENDMDL
MODEL 7
REMARK VINA RESULT:      -7.6      6.409     10.695
REMARK  Name = 
REMARK  8 active torsions:
REMARK  status: ('A' for Active; 'I' for Inactive)
REMARK    1  A    between atoms: C_1  and  C_2
REMARK    2  A    between atoms: C_6  and  N_7
REMARK    3  A    between atoms: C_8  and  C_10
REMARK    4  A    between atoms: C_10  and  N_11
REMARK    5  A    between atoms: C_10  and  C_19
REMARK    6  A    between atoms: C_10  and  C_25
REMARK    7  A    between atoms: N_11  and  C_12
REMARK    8  A    between atoms: C_16  and  C_17
REMARK                            x       y       z     vdW  Elec       q    Type
REMARK                         _______ _______ _______ _____ _____    ______ ____
ROOT
ATOM      1  C   UNL     1       0.257  11.071  20.276  0.00  0.00    +0.000 C 
ENDROOT
BRANCH   1   2
ATOM      2  C   UNL     1      -1.068  11.166  19.446  0.00  0.00    +0.000 A 
ATOM      3  C   UNL     1      -1.398  10.113  18.561  0.00  0.00    +0.000 A 
ATOM      4  C   UNL     1      -2.634  10.052  17.914  0.00  0.00    +0.000 A 
ATOM      5  C   UNL     1      -3.574  11.053  18.122  0.00  0.00    +0.000 A 
ATOM      6  C   UNL     1      -3.263  12.127  18.952  0.00  0.00    +0.000 A 
ATOM      7  C   UNL     1      -2.021  12.190  19.600  0.00  0.00    +0.000 A 
ENDBRANCH   1   2
BRANCH   1   8
ATOM      8  C   UNL     1       0.985   9.757  19.806  0.00  0.00    +0.000 A 
ATOM      9  C   UNL     1       1.148   8.642  20.649  0.00  0.00    +0.000 A 
ATOM     10  C   UNL     1       1.857   7.515  20.214  0.00  0.00    +0.000 A 
ATOM     11  C   UNL     1       2.393   7.463  18.931  0.00  0.00    +0.000 A 
ATOM     12  C   UNL     1       2.207   8.531  18.065  0.00  0.00    +0.000 A 
ATOM     13  C   UNL     1       1.499   9.652  18.494  0.00  0.00    +0.000 A 
ENDBRANCH   1   8
BRANCH   1  15
ATOM     14  N   UNL     1       0.977  13.135  18.868  0.00  0.00    +0.000 N 
ATOM     15  C   UNL     1       1.177  12.385  20.019  0.00  0.00    +0.000 C 
ATOM     16  O   UNL     1       2.070  12.702  20.825  0.00  0.00    +0.000 OA
ATOM     17  H   UNL     1       0.428  12.720  18.124  0.00  0.00    +0.000 HD
BRANCH  14  23
ATOM     18  C   UNL     1       1.222  18.083  18.822  0.00  0.00    +0.000 C 
ATOM     19  C   UNL     1       1.846  16.752  18.523  0.00  0.00    +0.000 A 
ATOM     20  C   UNL     1       3.105  16.684  17.918  0.00  0.00    +0.000 A 
ATOM     21  C   UNL     1       3.680  15.448  17.653  0.00  0.00    +0.000 A 
ATOM     22  C   UNL     1       2.996  14.278  17.984  0.00  0.00    +0.000 A 
ATOM     23  C   UNL     1       1.719  14.314  18.565  0.00  0.00    +0.000 A 
ATOM     24  C   UNL     1       1.159  15.563  18.847  0.00  0.00    +0.000 A 
ENDBRANCH  14  23
ENDBRANCH   1  15
BRANCH   1  25
ATOM     25  N   UNL     1      -0.047  11.005  21.756  0.00  0.00    +0.000 N 
ATOM     26  H   UNL     1       0.811  10.986  22.299  0.00  0.00    +0.000 HD
BRANCH  25  27
ATOM     27  C   UNL     1      -0.939  11.880  22.404  0.00  0.00    +0.000 A 
ATOM     28  C   UNL     1      -2.165  11.496  22.949  0.00  0.00    +0.000 A 
ATOM     29  C   UNL     1      -3.002  12.380  23.623  0.00  0.00    +0.000 A 
ATOM     30  C   UNL     1      -2.639  13.708  23.756  0.00  0.00    +0.000 A 
ATOM     31  C   UNL     1      -1.431  14.153  23.215  0.00  0.00    +0.000 A 
ATOM     32  C   UNL     1      -1.054  15.598  23.346  0.00  0.00    +0.000 C 
ATOM     33  C   UNL     1      -0.587  13.234  22.551  0.00  0.00    +0.000 A 
ENDBRANCH  25  27
ENDBRANCH   1  25
TORSDOF 6
ENDMDL
MODEL 8
REMARK VINA RESULT:      -7.6      6.554     11.029
REMARK  Name = 
REMARK  8 active torsions:
REMARK  status: ('A' for Active; 'I' for Inactive)
REMARK    1  A    between atoms: C_1  and  C_2
REMARK    2  A    between atoms: C_6  and  N_7
REMARK    3  A    between atoms: C_8  and  C_10
REMARK    4  A    between atoms: C_10  and  N_11
REMARK    5  A    between atoms: C_10  and  C_19
REMARK    6  A    between atoms: C_10  and  C_25
REMARK    7  A    between atoms: N_11  and  C_12
REMARK    8  A    between atoms: C_16  and  C_17
REMARK                            x       y       z     vdW  Elec       q    Type
REMARK                         _______ _______ _______ _____ _____    ______ ____
ROOT
ATOM      1  C   UNL     1       0.274  11.726  19.316  0.00  0.00    +0.000 C 
ENDROOT
BRANCH   1   2
ATOM      2  C   UNL     1       1.447  12.765  19.352  0.00  0.00    +0.000 A 
ATOM      3  C   UNL     1       2.049  13.072  20.594  0.00  0.00    +0.000 A 
ATOM      4  C   UNL     1       3.199  13.861  20.682  0.00  0.00    +0.000 A 
ATOM      5  C   UNL     1       3.773  14.378  19.528  0.00  0.00    +0.000 A 
ATOM      6  C   UNL     1       3.178  14.131  18.293  0.00  0.00    +0.000 A 
ATOM      7  C   UNL     1       2.022  13.342  18.205  0.00  0.00    +0.000 A 
ENDBRANCH   1   2
BRANCH   1   8
ATOM      8  C   UNL     1       0.941  10.302  19.255  0.00  0.00    +0.000 A 
ATOM      9  C   UNL     1       0.978   9.438  20.365  0.00  0.00    +0.000 A 
ATOM     10  C   UNL     1       1.637   8.204  20.289  0.00  0.00    +0.000 A 
ATOM     11  C   UNL     1       2.245   7.795  19.106  0.00  0.00    +0.000 A 
ATOM     12  C   UNL     1       2.183   8.608  17.984  0.00  0.00    +0.000 A 
ATOM     13  C   UNL     1       1.526   9.835  18.056  0.00  0.00    +0.000 A 
ENDBRANCH   1   8
BRANCH   1  15
ATOM     14  N   UNL     1      -1.197  13.134  20.934  0.00  0.00    +0.000 N 
ATOM     15  C   UNL     1      -0.661  11.889  20.635  0.00  0.00    +0.000 C 
ATOM     16  O   UNL     1      -0.872  10.919  21.386  0.00  0.00    +0.000 OA
ATOM     17  H   UNL     1      -0.811  13.941  20.457  0.00  0.00    +0.000 HD
BRANCH  14  23
ATOM     18  C   UNL     1      -5.743  13.016  22.900  0.00  0.00    +0.000 C 
ATOM     19  C   UNL     1      -4.282  13.331  23.031  0.00  0.00    +0.000 A 
ATOM     20  C   UNL     1      -3.785  13.888  24.214  0.00  0.00    +0.000 A 
ATOM     21  C   UNL     1      -2.431  14.169  24.331  0.00  0.00    +0.000 A 
ATOM     22  C   UNL     1      -1.570  13.902  23.265  0.00  0.00    +0.000 A 
ATOM     23  C   UNL     1      -2.044  13.371  22.056  0.00  0.00    +0.000 A 
ATOM     24  C   UNL     1      -3.406  13.072  21.956  0.00  0.00    +0.000 A 
ENDBRANCH  14  23
ENDBRANCH   1  15
BRANCH   1  25
ATOM     25  N   UNL     1      -0.600  11.953  18.103  0.00  0.00    +0.000 N 
ATOM     26  H   UNL     1      -0.076  11.792  17.248  0.00  0.00    +0.000 HD
BRANCH  25  27
ATOM     27  C   UNL     1      -1.868  11.365  17.941  0.00  0.00    +0.000 A 
ATOM     28  C   UNL     1      -2.086  10.089  17.415  0.00  0.00    +0.000 A 
ATOM     29  C   UNL     1      -3.353   9.522  17.312  0.00  0.00    +0.000 A 
ATOM     30  C   UNL     1      -4.464  10.237  17.720  0.00  0.00    +0.000 A 
ATOM     31  C   UNL     1      -4.308  11.524  18.238  0.00  0.00    +0.000 A 
ATOM     32  C   UNL     1      -5.520  12.299  18.660  0.00  0.00    +0.000 C 
ATOM     33  C   UNL     1      -3.010  12.074  18.352  0.00  0.00    +0.000 A 
ENDBRANCH  25  27
ENDBRANCH   1  25
TORSDOF 6
ENDMDL
MODEL 9
REMARK VINA RESULT:      -7.6      6.705     10.668
REMARK  Name = 
REMARK  8 active torsions:
REMARK  status: ('A' for Active; 'I' for Inactive)
REMARK    1  A    between atoms: C_1  and  C_2
REMARK    2  A    between atoms: C_6  and  N_7
REMARK    3  A    between atoms: C_8  and  C_10
REMARK    4  A    between atoms: C_10  and  N_11
REMARK    5  A    between atoms: C_10  and  C_19
REMARK    6  A    between atoms: C_10  and  C_25
REMARK    7  A    between atoms: N_11  and  C_12
REMARK    8  A    between atoms: C_16  and  C_17
REMARK                            x       y       z     vdW  Elec       q    Type
REMARK                         _______ _______ _______ _____ _____    ______ ____
ROOT
ATOM      1  C   UNL     1       0.486  11.941  20.129  0.00  0.00    +0.000 C 
ENDROOT
BRANCH   1   2
ATOM      2  C   UNL     1       0.946  10.527  19.634  0.00  0.00    +0.000 A 
ATOM      3  C   UNL     1       1.427  10.390  18.310  0.00  0.00    +0.000 A 
ATOM      4  C   UNL     1       2.002   9.202  17.854  0.00  0.00    +0.000 A 
ATOM      5  C   UNL     1       2.100   8.109  18.706  0.00  0.00    +0.000 A 
ATOM      6  C   UNL     1       1.595   8.198  20.000  0.00  0.00    +0.000 A 
ATOM      7  C   UNL     1       1.015   9.389  20.458  0.00  0.00    +0.000 A 
ENDBRANCH   1   2
BRANCH   1   8
ATOM      8  C   UNL     1       1.635  12.945  19.740  0.00  0.00    +0.000 A 
ATOM      9  C   UNL     1       1.808  13.422  18.427  0.00  0.00    +0.000 A 
ATOM     10  C   UNL     1       2.881  14.265  18.109  0.00  0.00    +0.000 A 
ATOM     11  C   UNL     1       3.781  14.670  19.089  0.00  0.00    +0.000 A 
ATOM     12  C   UNL     1       3.607  14.251  20.400  0.00  0.00    +0.000 A 
ATOM     13  C   UNL     1       2.538  13.415  20.720  0.00  0.00    +0.000 A 
ENDBRANCH   1   8
BRANCH   1  15
ATOM     14  N   UNL     1      -1.890  11.374  19.238  0.00  0.00    +0.000 N 
ATOM     15  C   UNL     1      -0.922  12.351  19.430  0.00  0.00    +0.000 C 
ATOM     16  O   UNL     1      -1.124  13.516  19.044  0.00  0.00    +0.000 OA
ATOM     17  H   UNL     1      -1.608  10.405  19.329  0.00  0.00    +0.000 HD
BRANCH  14  23
ATOM     18  C   UNL     1      -6.542  12.988  19.789  0.00  0.00    +0.000 C 
ATOM     19  C   UNL     1      -5.462  12.419  18.916  0.00  0.00    +0.000 A 
ATOM     20  C   UNL     1      -5.726  12.117  17.576  0.00  0.00    +0.000 A 
ATOM     21  C   UNL     1      -4.719  11.600  16.773  0.00  0.00    +0.000 A 
ATOM     22  C   UNL     1      -3.449  11.375  17.306  0.00  0.00    +0.000 A 
ATOM     23  C   UNL     1      -3.163  11.640  18.654  0.00  0.00    +0.000 A 
ATOM     24  C   UNL     1      -4.178  12.181  19.449  0.00  0.00    +0.000 A 
ENDBRANCH  14  23
ENDBRANCH   1  15
BRANCH   1  25
ATOM     25  N   UNL     1       0.273  11.937  21.626  0.00  0.00    +0.000 N 
ATOM     26  H   UNL     1       1.159  12.017  22.115  0.00  0.00    +0.000 HD
BRANCH  25  27
ATOM     27  C   UNL     1      -0.650  12.774  22.279  0.00  0.00    +0.000 A 
ATOM     28  C   UNL     1      -0.519  14.160  22.391  0.00  0.00    +0.000 A 
ATOM     29  C   UNL     1      -1.476  14.961  23.006  0.00  0.00    +0.000 A 
ATOM     30  C   UNL     1      -2.607  14.387  23.557  0.00  0.00    +0.000 A 
ATOM     31  C   UNL     1      -2.784  13.003  23.489  0.00  0.00    +0.000 A 
ATOM     32  C   UNL     1      -4.003  12.386  24.106  0.00  0.00    +0.000 C 
ATOM     33  C   UNL     1      -1.808  12.209  22.844  0.00  0.00    +0.000 A 
ENDBRANCH  25  27
ENDBRANCH   1  25
TORSDOF 6
ENDMDL
