MODEL 1
REMARK VINA RESULT:      -7.4      0.000      0.000
REMARK  Name = 
REMARK  11 active torsions:
REMARK  status: ('A' for Active; 'I' for Inactive)
REMARK    1  A    between atoms: C_1  and  O_2
REMARK    2  A    between atoms: O_2  and  C_3
REMARK    3  A    between atoms: C_3  and  C_4
REMARK    4  A    between atoms: C_4  and  N_5
REMARK    5  A    between atoms: C_6  and  C_8
REMARK    6  A    between atoms: C_8  and  C_9
REMARK    7  A    between atoms: N_12  and  C_13
REMARK    8  A    between atoms: C_13  and  C_14
REMARK    9  A    between atoms: C_17  and  C_18
REMARK   10  A    between atoms: C_18  and  C_19
REMARK   11  A    between atoms: C_18  and  C_20
REMARK                            x       y       z     vdW  Elec       q    Type
REMARK                         _______ _______ _______ _____ _____    ______ ____
ROOT
ATOM      1  C   UNL     1       5.722   5.139  15.958  0.00  0.00    +0.000 C 
ATOM      2  C   UNL     1       4.628   4.079  16.158  0.00  0.00    +0.000 C 
ATOM      3  C   UNL     1       6.581   5.272  17.230  0.00  0.00    +0.000 C 
ATOM      4  C   UNL     1       5.713   6.145  18.134  0.00  0.00    +0.000 C 
ATOM      5  N   UNL     1       5.059   7.102  17.227  0.00  0.00    +0.000 NA
ATOM      6  C   UNL     1       5.102   6.536  15.869  0.00  0.00    +0.000 C 
ENDROOT
BRANCH   1   8
ATOM      7  N   UNL     1       5.811   4.021  13.750  0.00  0.00    +0.000 N 
ATOM      8  C   UNL     1       6.490   4.803  14.691  0.00  0.00    +0.000 C 
ATOM      9  O   UNL     1       7.640   5.160  14.490  0.00  0.00    +0.000 OA
ATOM     10  H   UNL     1       4.938   3.560  13.981  0.00  0.00    +0.000 HD
BRANCH   7  11
ATOM     11  C   UNL     1       6.487   3.573  12.534  0.00  0.00    +0.000 C 
BRANCH  11  12
ATOM     12  C   UNL     1       5.592   2.710  11.640  0.00  0.00    +0.000 C 
BRANCH  12  14
ATOM     13  C   UNL     1       3.655   3.526  10.567  0.00  0.00    +0.000 C 
ATOM     14  O   UNL     1       4.226   3.116  11.804  0.00  0.00    +0.000 OA
ENDBRANCH  12  14
ENDBRANCH  11  12
ENDBRANCH   7  11
ENDBRANCH   1   8
BRANCH   5  15
ATOM     15  C   UNL     1       3.706   7.476  17.676  0.00  0.00    +0.000 C 
BRANCH  15  16
ATOM     16  C   UNL     1       2.923   6.364  18.367  0.00  0.00    +0.000 A 
ATOM     17  C   UNL     1       2.172   5.430  17.636  0.00  0.00    +0.000 A 
ATOM     18  C   UNL     1       1.503   4.369  18.282  0.00  0.00    +0.000 A 
ATOM     19  C   UNL     1       1.614   4.184  19.671  0.00  0.00    +0.000 A 
ATOM     20  C   UNL     1       2.333   5.144  20.393  0.00  0.00    +0.000 A 
ATOM     21  C   UNL     1       2.946   6.225  19.757  0.00  0.00    +0.000 A 
BRANCH  19  22
ATOM     22  C   UNL     1       1.009   2.973  20.367  0.00  0.00    +0.000 C 
ATOM     23  C   UNL     1       1.059   1.735  19.458  0.00  0.00    +0.000 C 
ATOM     24  C   UNL     1       1.694   2.628  21.696  0.00  0.00    +0.000 C 
ENDBRANCH  19  22
ENDBRANCH  15  16
ENDBRANCH   5  15
TORSDOF 7
ENDMDL
MODEL 2
REMARK VINA RESULT:      -7.4      0.891      1.266
REMARK  Name = 
REMARK  11 active torsions:
REMARK  status: ('A' for Active; 'I' for Inactive)
REMARK    1  A    between atoms: C_1  and  O_2
REMARK    2  A    between atoms: O_2  and  C_3
REMARK    3  A    between atoms: C_3  and  C_4
REMARK    4  A    between atoms: C_4  and  N_5
REMARK    5  A    between atoms: C_6  and  C_8
REMARK    6  A    between atoms: C_8  and  C_9
REMARK    7  A    between atoms: N_12  and  C_13
REMARK    8  A    between atoms: C_13  and  C_14
REMARK    9  A    between atoms: C_17  and  C_18
REMARK   10  A    between atoms: C_18  and  C_19
REMARK   11  A    between atoms: C_18  and  C_20
REMARK                            x       y       z     vdW  Elec       q    Type
REMARK                         _______ _______ _______ _____ _____    ______ ____
ROOT
ATOM      1  C   UNL     1       6.235   4.854  15.611  0.00  0.00    +0.000 C 
ATOM      2  C   UNL     1       5.055   3.940  15.973  0.00  0.00    +0.000 C 
ATOM      3  C   UNL     1       7.367   4.705  16.644  0.00  0.00    +0.000 C 
ATOM      4  C   UNL     1       6.881   5.569  17.807  0.00  0.00    +0.000 C 
ATOM      5  N   UNL     1       6.206   6.714  17.174  0.00  0.00    +0.000 NA
ATOM      6  C   UNL     1       5.850   6.324  15.801  0.00  0.00    +0.000 C 
ENDROOT
BRANCH   1   8
ATOM      7  N   UNL     1       6.052   3.451  13.579  0.00  0.00    +0.000 N 
ATOM      8  C   UNL     1       6.633   4.577  14.171  0.00  0.00    +0.000 C 
ATOM      9  O   UNL     1       7.427   5.266  13.551  0.00  0.00    +0.000 OA
ATOM     10  H   UNL     1       5.546   2.767  14.132  0.00  0.00    +0.000 HD
BRANCH   7  11
ATOM     11  C   UNL     1       6.429   3.049  12.226  0.00  0.00    +0.000 C 
BRANCH  11  12
ATOM     12  C   UNL     1       5.236   2.564  11.396  0.00  0.00    +0.000 C 
BRANCH  12  14
ATOM     13  C   UNL     1       3.307   3.393  10.319  0.00  0.00    +0.000 C 
ATOM     14  O   UNL     1       4.215   3.571  11.399  0.00  0.00    +0.000 OA
ENDBRANCH  12  14
ENDBRANCH  11  12
ENDBRANCH   7  11
ENDBRANCH   1   8
BRANCH   5  15
ATOM     15  C   UNL     1       5.069   7.212  17.968  0.00  0.00    +0.000 C 
BRANCH  15  16
ATOM     16  C   UNL     1       4.062   6.150  18.395  0.00  0.00    +0.000 A 
ATOM     17  C   UNL     1       4.332   5.260  19.447  0.00  0.00    +0.000 A 
ATOM     18  C   UNL     1       3.367   4.324  19.873  0.00  0.00    +0.000 A 
ATOM     19  C   UNL     1       2.087   4.290  19.292  0.00  0.00    +0.000 A 
ATOM     20  C   UNL     1       1.844   5.154  18.219  0.00  0.00    +0.000 A 
ATOM     21  C   UNL     1       2.821   6.041  17.762  0.00  0.00    +0.000 A 
BRANCH  19  22
ATOM     22  C   UNL     1       0.992   3.376  19.825  0.00  0.00    +0.000 C 
ATOM     23  C   UNL     1       0.784   2.169  18.899  0.00  0.00    +0.000 C 
ATOM     24  C   UNL     1       1.267   2.859  21.243  0.00  0.00    +0.000 C 
ENDBRANCH  19  22
ENDBRANCH  15  16
ENDBRANCH   5  15
TORSDOF 7
ENDMDL
MODEL 3
REMARK VINA RESULT:      -7.1      1.019      1.724
REMARK  Name = 
REMARK  11 active torsions:
REMARK  status: ('A' for Active; 'I' for Inactive)
REMARK    1  A    between atoms: C_1  and  O_2
REMARK    2  A    between atoms: O_2  and  C_3
REMARK    3  A    between atoms: C_3  and  C_4
REMARK    4  A    between atoms: C_4  and  N_5
REMARK    5  A    between atoms: C_6  and  C_8
REMARK    6  A    between atoms: C_8  and  C_9
REMARK    7  A    between atoms: N_12  and  C_13
REMARK    8  A    between atoms: C_13  and  C_14
REMARK    9  A    between atoms: C_17  and  C_18
REMARK   10  A    between atoms: C_18  and  C_19
REMARK   11  A    between atoms: C_18  and  C_20
REMARK                            x       y       z     vdW  Elec       q    Type
REMARK                         _______ _______ _______ _____ _____    ______ ____
ROOT
ATOM      1  C   UNL     1       6.224   5.243  15.777  0.00  0.00    +0.000 C 
ATOM      2  C   UNL     1       5.563   4.012  16.415  0.00  0.00    +0.000 C 
ATOM      3  C   UNL     1       7.300   5.822  16.714  0.00  0.00    +0.000 C 
ATOM      4  C   UNL     1       6.476   6.621  17.722  0.00  0.00    +0.000 C 
ATOM      5  N   UNL     1       5.371   7.198  16.939  0.00  0.00    +0.000 NA
ATOM      6  C   UNL     1       5.232   6.407  15.707  0.00  0.00    +0.000 C 
ENDROOT
BRANCH   1   8
ATOM      7  N   UNL     1       5.887   3.995  13.665  0.00  0.00    +0.000 N 
ATOM      8  C   UNL     1       6.713   4.860  14.390  0.00  0.00    +0.000 C 
ATOM      9  O   UNL     1       7.770   5.250  13.921  0.00  0.00    +0.000 OA
ATOM     10  H   UNL     1       5.110   3.515  14.106  0.00  0.00    +0.000 HD
BRANCH   7  11
ATOM     11  C   UNL     1       6.302   3.501  12.354  0.00  0.00    +0.000 C 
BRANCH  11  12
ATOM     12  C   UNL     1       5.270   2.565  11.717  0.00  0.00    +0.000 C 
BRANCH  12  14
ATOM     13  C   UNL     1       7.349   1.659  11.065  0.00  0.00    +0.000 C 
ATOM     14  O   UNL     1       5.944   1.444  11.131  0.00  0.00    +0.000 OA
ENDBRANCH  12  14
ENDBRANCH  11  12
ENDBRANCH   7  11
ENDBRANCH   1   8
BRANCH   5  15
ATOM     15  C   UNL     1       4.126   7.318  17.717  0.00  0.00    +0.000 C 
BRANCH  15  16
ATOM     16  C   UNL     1       3.574   6.005  18.262  0.00  0.00    +0.000 A 
ATOM     17  C   UNL     1       4.144   5.373  19.378  0.00  0.00    +0.000 A 
ATOM     18  C   UNL     1       3.585   4.192  19.910  0.00  0.00    +0.000 A 
ATOM     19  C   UNL     1       2.409   3.643  19.371  0.00  0.00    +0.000 A 
ATOM     20  C   UNL     1       1.872   4.259  18.235  0.00  0.00    +0.000 A 
ATOM     21  C   UNL     1       2.461   5.395  17.677  0.00  0.00    +0.000 A 
BRANCH  19  22
ATOM     22  C   UNL     1       1.720   2.446  20.011  0.00  0.00    +0.000 C 
ATOM     23  C   UNL     1       1.330   2.749  21.466  0.00  0.00    +0.000 C 
ATOM     24  C   UNL     1       0.464   1.991  19.256  0.00  0.00    +0.000 C 
ENDBRANCH  19  22
ENDBRANCH  15  16
ENDBRANCH   5  15
TORSDOF 7
ENDMDL
MODEL 4
REMARK VINA RESULT:      -6.9      2.808      7.007
REMARK  Name = 
REMARK  11 active torsions:
REMARK  status: ('A' for Active; 'I' for Inactive)
REMARK    1  A    between atoms: C_1  and  O_2
REMARK    2  A    between atoms: O_2  and  C_3
REMARK    3  A    between atoms: C_3  and  C_4
REMARK    4  A    between atoms: C_4  and  N_5
REMARK    5  A    between atoms: C_6  and  C_8
REMARK    6  A    between atoms: C_8  and  C_9
REMARK    7  A    between atoms: N_12  and  C_13
REMARK    8  A    between atoms: C_13  and  C_14
REMARK    9  A    between atoms: C_17  and  C_18
REMARK   10  A    between atoms: C_18  and  C_19
REMARK   11  A    between atoms: C_18  and  C_20
REMARK                            x       y       z     vdW  Elec       q    Type
REMARK                         _______ _______ _______ _____ _____    ______ ____
ROOT
ATOM      1  C   UNL     1       4.055   5.577  18.156  0.00  0.00    +0.000 C 
ATOM      2  C   UNL     1       3.544   4.488  17.201  0.00  0.00    +0.000 C 
ATOM      3  C   UNL     1       4.156   6.929  17.427  0.00  0.00    +0.000 C 
ATOM      4  C   UNL     1       5.468   6.801  16.656  0.00  0.00    +0.000 C 
ATOM      5  N   UNL     1       6.360   6.041  17.547  0.00  0.00    +0.000 NA
ATOM      6  C   UNL     1       5.521   5.323  18.519  0.00  0.00    +0.000 C 
ENDROOT
BRANCH   1   8
ATOM      7  N   UNL     1       3.069   4.352  20.070  0.00  0.00    +0.000 N 
ATOM      8  C   UNL     1       3.180   5.574  19.398  0.00  0.00    +0.000 C 
ATOM      9  O   UNL     1       2.578   6.559  19.795  0.00  0.00    +0.000 OA
ATOM     10  H   UNL     1       3.402   3.490  19.653  0.00  0.00    +0.000 HD
BRANCH   7  11
ATOM     11  C   UNL     1       2.188   4.222  21.228  0.00  0.00    +0.000 C 
BRANCH  11  12
ATOM     12  C   UNL     1       1.214   3.045  21.104  0.00  0.00    +0.000 C 
BRANCH  12  14
ATOM     13  C   UNL     1       0.972   2.227  18.904  0.00  0.00    +0.000 C 
ATOM     14  O   UNL     1       0.493   3.154  19.870  0.00  0.00    +0.000 OA
ENDBRANCH  12  14
ENDBRANCH  11  12
ENDBRANCH   7  11
ENDBRANCH   1   8
BRANCH   5  15
ATOM     15  C   UNL     1       7.295   5.174  16.807  0.00  0.00    +0.000 C 
BRANCH  15  16
ATOM     16  C   UNL     1       6.809   4.721  15.434  0.00  0.00    +0.000 A 
ATOM     17  C   UNL     1       7.408   5.184  14.252  0.00  0.00    +0.000 A 
ATOM     18  C   UNL     1       6.991   4.709  12.991  0.00  0.00    +0.000 A 
ATOM     19  C   UNL     1       6.000   3.718  12.884  0.00  0.00    +0.000 A 
ATOM     20  C   UNL     1       5.384   3.293  14.066  0.00  0.00    +0.000 A 
ATOM     21  C   UNL     1       5.759   3.807  15.308  0.00  0.00    +0.000 A 
BRANCH  19  22
ATOM     22  C   UNL     1       5.630   3.101  11.542  0.00  0.00    +0.000 C 
ATOM     23  C   UNL     1       6.098   1.640  11.462  0.00  0.00    +0.000 C 
ATOM     24  C   UNL     1       4.125   3.145  11.246  0.00  0.00    +0.000 C 
ENDBRANCH  19  22
ENDBRANCH  15  16
ENDBRANCH   5  15
TORSDOF 7
ENDMDL
MODEL 5
REMARK VINA RESULT:      -6.8      3.575      7.863
REMARK  Name = 
REMARK  11 active torsions:
REMARK  status: ('A' for Active; 'I' for Inactive)
REMARK    1  A    between atoms: C_1  and  O_2
REMARK    2  A    between atoms: O_2  and  C_3
REMARK    3  A    between atoms: C_3  and  C_4
REMARK    4  A    between atoms: C_4  and  N_5
REMARK    5  A    between atoms: C_6  and  C_8
REMARK    6  A    between atoms: C_8  and  C_9
REMARK    7  A    between atoms: N_12  and  C_13
REMARK    8  A    between atoms: C_13  and  C_14
REMARK    9  A    between atoms: C_17  and  C_18
REMARK   10  A    between atoms: C_18  and  C_19
REMARK   11  A    between atoms: C_18  and  C_20
REMARK                            x       y       z     vdW  Elec       q    Type
REMARK                         _______ _______ _______ _____ _____    ______ ____
ROOT
ATOM      1  C   UNL     1       3.311   5.842  18.620  0.00  0.00    +0.000 C 
ATOM      2  C   UNL     1       2.804   4.642  17.807  0.00  0.00    +0.000 C 
ATOM      3  C   UNL     1       3.661   7.016  17.687  0.00  0.00    +0.000 C 
ATOM      4  C   UNL     1       5.038   6.625  17.154  0.00  0.00    +0.000 C 
ATOM      5  N   UNL     1       5.713   5.972  18.287  0.00  0.00    +0.000 NA
ATOM      6  C   UNL     1       4.679   5.532  19.235  0.00  0.00    +0.000 C 
ENDROOT
BRANCH   1   8
ATOM      7  N   UNL     1       2.252   7.482  20.145  0.00  0.00    +0.000 N 
ATOM      8  C   UNL     1       2.288   6.156  19.699  0.00  0.00    +0.000 C 
ATOM      9  O   UNL     1       1.545   5.317  20.183  0.00  0.00    +0.000 OA
ATOM     10  H   UNL     1       2.981   8.141  19.896  0.00  0.00    +0.000 HD
BRANCH   7  11
ATOM     11  C   UNL     1       1.362   7.871  21.237  0.00  0.00    +0.000 C 
BRANCH  11  12
ATOM     12  C   UNL     1       0.672   9.217  20.989  0.00  0.00    +0.000 C 
BRANCH  12  14
ATOM     13  C   UNL     1      -0.058   9.547  23.209  0.00  0.00    +0.000 C 
ATOM     14  O   UNL     1       0.780  10.029  22.165  0.00  0.00    +0.000 OA
ENDBRANCH  12  14
ENDBRANCH  11  12
ENDBRANCH   7  11
ENDBRANCH   1   8
BRANCH   5  15
ATOM     15  C   UNL     1       6.628   4.899  17.860  0.00  0.00    +0.000 C 
BRANCH  15  16
ATOM     16  C   UNL     1       6.522   4.504  16.390  0.00  0.00    +0.000 A 
ATOM     17  C   UNL     1       5.567   3.576  15.945  0.00  0.00    +0.000 A 
ATOM     18  C   UNL     1       5.437   3.268  14.574  0.00  0.00    +0.000 A 
ATOM     19  C   UNL     1       6.224   3.921  13.609  0.00  0.00    +0.000 A 
ATOM     20  C   UNL     1       7.198   4.814  14.069  0.00  0.00    +0.000 A 
ATOM     21  C   UNL     1       7.362   5.074  15.430  0.00  0.00    +0.000 A 
BRANCH  19  22
ATOM     22  C   UNL     1       6.008   3.697  12.118  0.00  0.00    +0.000 C 
ATOM     23  C   UNL     1       6.883   2.543  11.604  0.00  0.00    +0.000 C 
ATOM     24  C   UNL     1       4.548   3.399  11.752  0.00  0.00    +0.000 C 
ENDBRANCH  19  22
ENDBRANCH  15  16
ENDBRANCH   5  15
TORSDOF 7
ENDMDL
MODEL 6
REMARK VINA RESULT:      -6.7      2.860      4.237
REMARK  Name = 
REMARK  11 active torsions:
REMARK  status: ('A' for Active; 'I' for Inactive)
REMARK    1  A    between atoms: C_1  and  O_2
REMARK    2  A    between atoms: O_2  and  C_3
REMARK    3  A    between atoms: C_3  and  C_4
REMARK    4  A    between atoms: C_4  and  N_5
REMARK    5  A    between atoms: C_6  and  C_8
REMARK    6  A    between atoms: C_8  and  C_9
REMARK    7  A    between atoms: N_12  and  C_13
REMARK    8  A    between atoms: C_13  and  C_14
REMARK    9  A    between atoms: C_17  and  C_18
REMARK   10  A    between atoms: C_18  and  C_19
REMARK   11  A    between atoms: C_18  and  C_20
REMARK                            x       y       z     vdW  Elec       q    Type
REMARK                         _______ _______ _______ _____ _____    ______ ____
ROOT
ATOM      1  C   UNL     1       5.501   4.664  17.060  0.00  0.00    +0.000 C 
ATOM      2  C   UNL     1       4.641   3.397  16.946  0.00  0.00    +0.000 C 
ATOM      3  C   UNL     1       6.085   4.792  18.479  0.00  0.00    +0.000 C 
ATOM      4  C   UNL     1       4.912   5.355  19.279  0.00  0.00    +0.000 C 
ATOM      5  N   UNL     1       4.232   6.279  18.358  0.00  0.00    +0.000 NA
ATOM      6  C   UNL     1       4.622   5.916  16.986  0.00  0.00    +0.000 C 
ENDROOT
BRANCH   1   8
ATOM      7  N   UNL     1       6.011   4.680  14.637  0.00  0.00    +0.000 N 
ATOM      8  C   UNL     1       6.525   4.652  15.938  0.00  0.00    +0.000 C 
ATOM      9  O   UNL     1       7.729   4.598  16.130  0.00  0.00    +0.000 OA
ATOM     10  H   UNL     1       5.024   4.533  14.458  0.00  0.00    +0.000 HD
BRANCH   7  11
ATOM     11  C   UNL     1       6.906   4.589  13.485  0.00  0.00    +0.000 C 
BRANCH  11  12
ATOM     12  C   UNL     1       6.432   3.571  12.443  0.00  0.00    +0.000 C 
BRANCH  12  14
ATOM     13  C   UNL     1       4.371   3.291  11.330  0.00  0.00    +0.000 C 
ATOM     14  O   UNL     1       5.022   3.361  12.592  0.00  0.00    +0.000 OA
ENDBRANCH  12  14
ENDBRANCH  11  12
ENDBRANCH   7  11
ENDBRANCH   1   8
BRANCH   5  15
ATOM     15  C   UNL     1       2.774   6.323  18.573  0.00  0.00    +0.000 C 
BRANCH  15  16
ATOM     16  C   UNL     1       2.208   7.704  18.885  0.00  0.00    +0.000 A 
ATOM     17  C   UNL     1       2.193   8.728  17.924  0.00  0.00    +0.000 A 
ATOM     18  C   UNL     1       1.609   9.981  18.204  0.00  0.00    +0.000 A 
ATOM     19  C   UNL     1       0.976  10.223  19.436  0.00  0.00    +0.000 A 
ATOM     20  C   UNL     1       1.031   9.209  20.399  0.00  0.00    +0.000 A 
ATOM     21  C   UNL     1       1.660   7.991  20.138  0.00  0.00    +0.000 A 
BRANCH  19  22
ATOM     22  C   UNL     1       0.228  11.521  19.708  0.00  0.00    +0.000 C 
ATOM     23  C   UNL     1       0.517  12.562  18.616  0.00  0.00    +0.000 C 
ATOM     24  C   UNL     1      -1.292  11.337  19.813  0.00  0.00    +0.000 C 
ENDBRANCH  19  22
ENDBRANCH  15  16
ENDBRANCH   5  15
TORSDOF 7
ENDMDL
MODEL 7
REMARK VINA RESULT:      -6.6      1.492      1.901
REMARK  Name = 
REMARK  11 active torsions:
REMARK  status: ('A' for Active; 'I' for Inactive)
REMARK    1  A    between atoms: C_1  and  O_2
REMARK    2  A    between atoms: O_2  and  C_3
REMARK    3  A    between atoms: C_3  and  C_4
REMARK    4  A    between atoms: C_4  and  N_5
REMARK    5  A    between atoms: C_6  and  C_8
REMARK    6  A    between atoms: C_8  and  C_9
REMARK    7  A    between atoms: N_12  and  C_13
REMARK    8  A    between atoms: C_13  and  C_14
REMARK    9  A    between atoms: C_17  and  C_18
REMARK   10  A    between atoms: C_18  and  C_19
REMARK   11  A    between atoms: C_18  and  C_20
REMARK                            x       y       z     vdW  Elec       q    Type
REMARK                         _______ _______ _______ _____ _____    ______ ____
ROOT
ATOM      1  C   UNL     1       5.851   4.558  15.280  0.00  0.00    +0.000 C 
ATOM      2  C   UNL     1       5.006   3.603  16.136  0.00  0.00    +0.000 C 
ATOM      3  C   UNL     1       7.281   4.661  15.841  0.00  0.00    +0.000 C 
ATOM      4  C   UNL     1       7.118   5.636  17.006  0.00  0.00    +0.000 C 
ATOM      5  N   UNL     1       6.117   6.613  16.548  0.00  0.00    +0.000 NA
ATOM      6  C   UNL     1       5.361   5.999  15.446  0.00  0.00    +0.000 C 
ENDROOT
BRANCH   1   8
ATOM      7  N   UNL     1       6.960   4.068  13.120  0.00  0.00    +0.000 N 
ATOM      8  C   UNL     1       5.755   4.115  13.830  0.00  0.00    +0.000 C 
ATOM      9  O   UNL     1       4.701   3.832  13.284  0.00  0.00    +0.000 OA
ATOM     10  H   UNL     1       7.808   4.477  13.496  0.00  0.00    +0.000 HD
BRANCH   7  11
ATOM     11  C   UNL     1       6.968   3.733  11.698  0.00  0.00    +0.000 C 
BRANCH  11  12
ATOM     12  C   UNL     1       7.227   2.245  11.439  0.00  0.00    +0.000 C 
BRANCH  12  14
ATOM     13  C   UNL     1       6.140   0.160  11.241  0.00  0.00    +0.000 C 
ATOM     14  O   UNL     1       5.976   1.573  11.244  0.00  0.00    +0.000 OA
ENDBRANCH  12  14
ENDBRANCH  11  12
ENDBRANCH   7  11
ENDBRANCH   1   8
BRANCH   5  15
ATOM     15  C   UNL     1       5.272   7.116  17.646  0.00  0.00    +0.000 C 
BRANCH  15  16
ATOM     16  C   UNL     1       4.246   6.122  18.180  0.00  0.00    +0.000 A 
ATOM     17  C   UNL     1       4.562   5.216  19.204  0.00  0.00    +0.000 A 
ATOM     18  C   UNL     1       3.585   4.346  19.732  0.00  0.00    +0.000 A 
ATOM     19  C   UNL     1       2.253   4.399  19.286  0.00  0.00    +0.000 A 
ATOM     20  C   UNL     1       1.959   5.279  18.239  0.00  0.00    +0.000 A 
ATOM     21  C   UNL     1       2.941   6.098  17.679  0.00  0.00    +0.000 A 
BRANCH  19  22
ATOM     22  C   UNL     1       1.160   3.560  19.934  0.00  0.00    +0.000 C 
ATOM     23  C   UNL     1       0.749   2.394  19.023  0.00  0.00    +0.000 C 
ATOM     24  C   UNL     1       1.559   2.991  21.302  0.00  0.00    +0.000 C 
ENDBRANCH  19  22
ENDBRANCH  15  16
ENDBRANCH   5  15
TORSDOF 7
ENDMDL
MODEL 8
REMARK VINA RESULT:      -6.6      1.084      1.431
REMARK  Name = 
REMARK  11 active torsions:
REMARK  status: ('A' for Active; 'I' for Inactive)
REMARK    1  A    between atoms: C_1  and  O_2
REMARK    2  A    between atoms: O_2  and  C_3
REMARK    3  A    between atoms: C_3  and  C_4
REMARK    4  A    between atoms: C_4  and  N_5
REMARK    5  A    between atoms: C_6  and  C_8
REMARK    6  A    between atoms: C_8  and  C_9
REMARK    7  A    between atoms: N_12  and  C_13
REMARK    8  A    between atoms: C_13  and  C_14
REMARK    9  A    between atoms: C_17  and  C_18
REMARK   10  A    between atoms: C_18  and  C_19
REMARK   11  A    between atoms: C_18  and  C_20
REMARK                            x       y       z     vdW  Elec       q    Type
REMARK                         _______ _______ _______ _____ _____    ______ ____
ROOT
ATOM      1  C   UNL     1       6.096   5.137  15.644  0.00  0.00    +0.000 C 
ATOM      2  C   UNL     1       5.074   4.035  15.962  0.00  0.00    +0.000 C 
ATOM      3  C   UNL     1       7.138   5.246  16.771  0.00  0.00    +0.000 C 
ATOM      4  C   UNL     1       6.400   6.053  17.838  0.00  0.00    +0.000 C 
ATOM      5  N   UNL     1       5.587   7.023  17.087  0.00  0.00    +0.000 NA
ATOM      6  C   UNL     1       5.433   6.516  15.715  0.00  0.00    +0.000 C 
ENDROOT
BRANCH   1   8
ATOM      7  N   UNL     1       5.884   4.084  13.412  0.00  0.00    +0.000 N 
ATOM      8  C   UNL     1       6.665   4.878  14.259  0.00  0.00    +0.000 C 
ATOM      9  O   UNL     1       7.746   5.305  13.889  0.00  0.00    +0.000 OA
ATOM     10  H   UNL     1       5.084   3.569  13.763  0.00  0.00    +0.000 HD
BRANCH   7  11
ATOM     11  C   UNL     1       6.377   3.708  12.089  0.00  0.00    +0.000 C 
BRANCH  11  12
ATOM     12  C   UNL     1       6.759   2.227  11.996  0.00  0.00    +0.000 C 
BRANCH  12  14
ATOM     13  C   UNL     1       6.046   0.138  11.163  0.00  0.00    +0.000 C 
ATOM     14  O   UNL     1       5.699   1.503  11.357  0.00  0.00    +0.000 OA
ENDBRANCH  12  14
ENDBRANCH  11  12
ENDBRANCH   7  11
ENDBRANCH   1   8
BRANCH   5  15
ATOM     15  C   UNL     1       4.312   7.334  17.757  0.00  0.00    +0.000 C 
BRANCH  15  16
ATOM     16  C   UNL     1       3.585   6.133  18.354  0.00  0.00    +0.000 A 
ATOM     17  C   UNL     1       2.428   5.604  17.760  0.00  0.00    +0.000 A 
ATOM     18  C   UNL     1       1.802   4.454  18.286  0.00  0.00    +0.000 A 
ATOM     19  C   UNL     1       2.348   3.774  19.388  0.00  0.00    +0.000 A 
ATOM     20  C   UNL     1       3.478   4.334  19.995  0.00  0.00    +0.000 A 
ATOM     21  C   UNL     1       4.063   5.504  19.506  0.00  0.00    +0.000 A 
BRANCH  19  22
ATOM     22  C   UNL     1       1.761   2.461  19.888  0.00  0.00    +0.000 C 
ATOM     23  C   UNL     1       1.326   2.578  21.357  0.00  0.00    +0.000 C 
ATOM     24  C   UNL     1       0.561   1.978  19.063  0.00  0.00    +0.000 C 
ENDBRANCH  19  22
ENDBRANCH  15  16
ENDBRANCH   5  15
TORSDOF 7
ENDMDL
MODEL 9
REMARK VINA RESULT:      -6.5      2.897      7.042
REMARK  Name = 
REMARK  11 active torsions:
REMARK  status: ('A' for Active; 'I' for Inactive)
REMARK    1  A    between atoms: C_1  and  O_2
REMARK    2  A    between atoms: O_2  and  C_3
REMARK    3  A    between atoms: C_3  and  C_4
REMARK    4  A    between atoms: C_4  and  N_5
REMARK    5  A    between atoms: C_6  and  C_8
REMARK    6  A    between atoms: C_8  and  C_9
REMARK    7  A    between atoms: N_12  and  C_13
REMARK    8  A    between atoms: C_13  and  C_14
REMARK    9  A    between atoms: C_17  and  C_18
REMARK   10  A    between atoms: C_18  and  C_19
REMARK   11  A    between atoms: C_18  and  C_20
REMARK                            x       y       z     vdW  Elec       q    Type
REMARK                         _______ _______ _______ _____ _____    ______ ____
ROOT
ATOM      1  C   UNL     1       5.230   4.704  18.445  0.00  0.00    +0.000 C 
ATOM      2  C   UNL     1       4.167   5.688  17.935  0.00  0.00    +0.000 C 
ATOM      3  C   UNL     1       6.265   5.436  19.320  0.00  0.00    +0.000 C 
ATOM      4  C   UNL     1       7.177   6.095  18.287  0.00  0.00    +0.000 C 
ATOM      5  N   UNL     1       7.262   5.126  17.182  0.00  0.00    +0.000 NA
ATOM      6  C   UNL     1       6.108   4.219  17.288  0.00  0.00    +0.000 C 
ENDROOT
BRANCH   1   8
ATOM      7  N   UNL     1       3.312   3.142  18.542  0.00  0.00    +0.000 N 
ATOM      8  C   UNL     1       4.523   3.539  19.117  0.00  0.00    +0.000 C 
ATOM      9  O   UNL     1       4.952   2.980  20.113  0.00  0.00    +0.000 OA
ATOM     10  H   UNL     1       2.851   3.709  17.839  0.00  0.00    +0.000 HD
BRANCH   7  11
ATOM     11  C   UNL     1       2.512   2.085  19.158  0.00  0.00    +0.000 C 
BRANCH  11  12
ATOM     12  C   UNL     1       1.058   2.504  19.398  0.00  0.00    +0.000 C 
BRANCH  12  14
ATOM     13  C   UNL     1       1.572   2.680  21.694  0.00  0.00    +0.000 C 
ATOM     14  O   UNL     1       0.989   3.327  20.569  0.00  0.00    +0.000 OA
ENDBRANCH  12  14
ENDBRANCH  11  12
ENDBRANCH   7  11
ENDBRANCH   1   8
BRANCH   5  15
ATOM     15  C   UNL     1       7.392   5.777  15.866  0.00  0.00    +0.000 C 
BRANCH  15  16
ATOM     16  C   UNL     1       6.891   4.953  14.684  0.00  0.00    +0.000 A 
ATOM     17  C   UNL     1       5.649   4.299  14.716  0.00  0.00    +0.000 A 
ATOM     18  C   UNL     1       5.170   3.593  13.593  0.00  0.00    +0.000 A 
ATOM     19  C   UNL     1       5.897   3.569  12.390  0.00  0.00    +0.000 A 
ATOM     20  C   UNL     1       7.150   4.192  12.383  0.00  0.00    +0.000 A 
ATOM     21  C   UNL     1       7.647   4.841  13.514  0.00  0.00    +0.000 A 
BRANCH  19  22
ATOM     22  C   UNL     1       5.336   2.924  11.130  0.00  0.00    +0.000 C 
ATOM     23  C   UNL     1       5.656   1.422  11.093  0.00  0.00    +0.000 C 
ATOM     24  C   UNL     1       3.819   3.100  10.979  0.00  0.00    +0.000 C 
ENDBRANCH  19  22
ENDBRANCH  15  16
ENDBRANCH   5  15
TORSDOF 7
ENDMDL
