MODEL 1
REMARK VINA RESULT:      -6.8      0.000      0.000
REMARK  Name = 
REMARK  4 active torsions:
REMARK  status: ('A' for Active; 'I' for Inactive)
REMARK    1  A    between atoms: C_1  and  C_2
REMARK    2  A    between atoms: C_2  and  C_4
REMARK    3  A    between atoms: C_7  and  S_8
REMARK    4  A    between atoms: S_8  and  C_9
REMARK                            x       y       z     vdW  Elec       q    Type
REMARK                         _______ _______ _______ _____ _____    ______ ____
ROOT
ATOM      1  S   UNL     1       4.766   5.090  19.473  0.00  0.00    +0.000 S 
ENDROOT
BRANCH   1   2
ATOM      2  C   UNL     1       3.338   4.096  19.006  0.00  0.00    +0.000 A 
ATOM      3  C   UNL     1       3.261   2.732  19.340  0.00  0.00    +0.000 A 
ATOM      4 CL   UNL     1       4.533   1.866  20.126  0.00  0.00    +0.000 Cl
ATOM      5  C   UNL     1       2.091   2.036  19.058  0.00  0.00    +0.000 A 
ATOM      6  N   UNL     1       0.999   2.585  18.478  0.00  0.00    +0.000 NA
ATOM      7  C   UNL     1       1.085   3.898  18.172  0.00  0.00    +0.000 A 
ATOM      8  C   UNL     1       2.208   4.685  18.410  0.00  0.00    +0.000 A 
ATOM      9 CL   UNL     1       2.113   6.356  17.982  0.00  0.00    +0.000 Cl
ENDBRANCH   1   2
BRANCH   1  13
ATOM     10  C   UNL     1       6.828   4.776  15.879  0.00  0.00    +0.000 A 
ATOM     11  C   UNL     1       7.663   4.535  16.952  0.00  0.00    +0.000 A 
ATOM     12  N   UNL     1       7.065   4.550  18.200  0.00  0.00    +0.000 NA
ATOM     13  C   UNL     1       5.786   4.831  18.072  0.00  0.00    +0.000 A 
ATOM     14  S   UNL     1       5.238   5.062  16.466  0.00  0.00    +0.000 S 
BRANCH  10  16
ATOM     15  C   UNL     1       6.282   3.911  13.566  0.00  0.00    +0.000 C 
ATOM     16  C   UNL     1       7.101   4.822  14.453  0.00  0.00    +0.000 C 
ATOM     17  O   UNL     1       7.939   5.565  13.941  0.00  0.00    +0.000 OA
ENDBRANCH  10  16
ENDBRANCH   1  13
TORSDOF 3
ENDMDL
MODEL 2
REMARK VINA RESULT:      -6.3      0.839      2.363
REMARK  Name = 
REMARK  4 active torsions:
REMARK  status: ('A' for Active; 'I' for Inactive)
REMARK    1  A    between atoms: C_1  and  C_2
REMARK    2  A    between atoms: C_2  and  C_4
REMARK    3  A    between atoms: C_7  and  S_8
REMARK    4  A    between atoms: S_8  and  C_9
REMARK                            x       y       z     vdW  Elec       q    Type
REMARK                         _______ _______ _______ _____ _____    ______ ____
ROOT
ATOM      1  S   UNL     1       5.061   5.043  19.554  0.00  0.00    +0.000 S 
ENDROOT
BRANCH   1   2
ATOM      2  C   UNL     1       3.532   4.318  18.939  0.00  0.00    +0.000 A 
ATOM      3  C   UNL     1       2.575   5.099  18.266  0.00  0.00    +0.000 A 
ATOM      4 CL   UNL     1       2.718   6.807  18.047  0.00  0.00    +0.000 Cl
ATOM      5  C   UNL     1       1.465   4.472  17.711  0.00  0.00    +0.000 A 
ATOM      6  N   UNL     1       1.234   3.140  17.769  0.00  0.00    +0.000 NA
ATOM      7  C   UNL     1       2.165   2.403  18.412  0.00  0.00    +0.000 A 
ATOM      8  C   UNL     1       3.310   2.930  19.002  0.00  0.00    +0.000 A 
ATOM      9 CL   UNL     1       4.405   1.819  19.746  0.00  0.00    +0.000 Cl
ENDBRANCH   1   2
BRANCH   1  13
ATOM     10  C   UNL     1       6.721   5.275  15.752  0.00  0.00    +0.000 A 
ATOM     11  C   UNL     1       7.053   6.383  16.506  0.00  0.00    +0.000 A 
ATOM     12  N   UNL     1       6.605   6.381  17.815  0.00  0.00    +0.000 NA
ATOM     13  C   UNL     1       5.911   5.287  18.041  0.00  0.00    +0.000 A 
ATOM     14  S   UNL     1       5.785   4.206  16.718  0.00  0.00    +0.000 S 
BRANCH  10  16
ATOM     15  C   UNL     1       6.150   3.901  13.707  0.00  0.00    +0.000 C 
ATOM     16  C   UNL     1       7.028   4.936  14.373  0.00  0.00    +0.000 C 
ATOM     17  O   UNL     1       7.940   5.455  13.729  0.00  0.00    +0.000 OA
ENDBRANCH  10  16
ENDBRANCH   1  13
TORSDOF 3
ENDMDL
MODEL 3
REMARK VINA RESULT:      -6.2      2.416      3.055
REMARK  Name = 
REMARK  4 active torsions:
REMARK  status: ('A' for Active; 'I' for Inactive)
REMARK    1  A    between atoms: C_1  and  C_2
REMARK    2  A    between atoms: C_2  and  C_4
REMARK    3  A    between atoms: C_7  and  S_8
REMARK    4  A    between atoms: S_8  and  C_9
REMARK                            x       y       z     vdW  Elec       q    Type
REMARK                         _______ _______ _______ _____ _____    ______ ____
ROOT
ATOM      1  S   UNL     1       2.107   5.037  17.830  0.00  0.00    +0.000 S 
ENDROOT
BRANCH   1   2
ATOM      2  C   UNL     1       2.002   4.067  19.344  0.00  0.00    +0.000 A 
ATOM      3  C   UNL     1       2.180   2.672  19.328  0.00  0.00    +0.000 A 
ATOM      4 CL   UNL     1       2.415   1.755  17.883  0.00  0.00    +0.000 Cl
ATOM      5  C   UNL     1       2.203   1.983  20.535  0.00  0.00    +0.000 A 
ATOM      6  N   UNL     1       2.067   2.567  21.748  0.00  0.00    +0.000 NA
ATOM      7  C   UNL     1       1.906   3.908  21.748  0.00  0.00    +0.000 A 
ATOM      8  C   UNL     1       1.868   4.691  20.598  0.00  0.00    +0.000 A 
ATOM      9 CL   UNL     1       1.691   6.398  20.804  0.00  0.00    +0.000 Cl
ENDBRANCH   1   2
BRANCH   1  13
ATOM     10  C   UNL     1       6.255   4.836  17.673  0.00  0.00    +0.000 A 
ATOM     11  C   UNL     1       5.692   4.396  16.491  0.00  0.00    +0.000 A 
ATOM     12  N   UNL     1       4.313   4.479  16.408  0.00  0.00    +0.000 NA
ATOM     13  C   UNL     1       3.833   4.956  17.537  0.00  0.00    +0.000 A 
ATOM     14  S   UNL     1       5.000   5.346  18.729  0.00  0.00    +0.000 S 
BRANCH  10  16
ATOM     15  C   UNL     1       8.026   6.054  19.004  0.00  0.00    +0.000 C 
ATOM     16  C   UNL     1       7.643   4.908  18.096  0.00  0.00    +0.000 C 
ATOM     17  O   UNL     1       8.499   4.086  17.770  0.00  0.00    +0.000 OA
ENDBRANCH  10  16
ENDBRANCH   1  13
TORSDOF 3
ENDMDL
MODEL 4
REMARK VINA RESULT:      -6.2      2.373      3.588
REMARK  Name = 
REMARK  4 active torsions:
REMARK  status: ('A' for Active; 'I' for Inactive)
REMARK    1  A    between atoms: C_1  and  C_2
REMARK    2  A    between atoms: C_2  and  C_4
REMARK    3  A    between atoms: C_7  and  S_8
REMARK    4  A    between atoms: S_8  and  C_9
REMARK                            x       y       z     vdW  Elec       q    Type
REMARK                         _______ _______ _______ _____ _____    ______ ____
ROOT
ATOM      1  S   UNL     1       3.944   2.665  17.567  0.00  0.00    +0.000 S 
ENDROOT
BRANCH   1   2
ATOM      2  C   UNL     1       3.045   3.121  19.059  0.00  0.00    +0.000 A 
ATOM      3  C   UNL     1       1.872   3.894  18.995  0.00  0.00    +0.000 A 
ATOM      4 CL   UNL     1       1.239   4.550  17.527  0.00  0.00    +0.000 Cl
ATOM      5  C   UNL     1       1.152   4.123  20.162  0.00  0.00    +0.000 A 
ATOM      6  N   UNL     1       1.502   3.646  21.379  0.00  0.00    +0.000 NA
ATOM      7  C   UNL     1       2.627   2.899  21.423  0.00  0.00    +0.000 A 
ATOM      8  C   UNL     1       3.419   2.611  20.316  0.00  0.00    +0.000 A 
ATOM      9 CL   UNL     1       4.801   1.604  20.568  0.00  0.00    +0.000 Cl
ENDBRANCH   1   2
BRANCH   1  13
ATOM     10  C   UNL     1       6.642   5.825  17.656  0.00  0.00    +0.000 A 
ATOM     11  C   UNL     1       6.213   5.576  16.367  0.00  0.00    +0.000 A 
ATOM     12  N   UNL     1       5.260   4.582  16.227  0.00  0.00    +0.000 NA
ATOM     13  C   UNL     1       4.991   4.062  17.405  0.00  0.00    +0.000 A 
ATOM     14  S   UNL     1       5.838   4.749  18.726  0.00  0.00    +0.000 S 
BRANCH  10  16
ATOM     15  C   UNL     1       7.655   8.136  17.488  0.00  0.00    +0.000 C 
ATOM     16  C   UNL     1       7.602   6.787  18.169  0.00  0.00    +0.000 C 
ATOM     17  O   UNL     1       8.346   6.567  19.125  0.00  0.00    +0.000 OA
ENDBRANCH  10  16
ENDBRANCH   1  13
TORSDOF 3
ENDMDL
MODEL 5
REMARK VINA RESULT:      -6.2      2.391      3.474
REMARK  Name = 
REMARK  4 active torsions:
REMARK  status: ('A' for Active; 'I' for Inactive)
REMARK    1  A    between atoms: C_1  and  C_2
REMARK    2  A    between atoms: C_2  and  C_4
REMARK    3  A    between atoms: C_7  and  S_8
REMARK    4  A    between atoms: S_8  and  C_9
REMARK                            x       y       z     vdW  Elec       q    Type
REMARK                         _______ _______ _______ _____ _____    ______ ____
ROOT
ATOM      1  S   UNL     1       2.203   4.510  17.746  0.00  0.00    +0.000 S 
ENDROOT
BRANCH   1   2
ATOM      2  C   UNL     1       2.463   3.816  19.387  0.00  0.00    +0.000 A 
ATOM      3  C   UNL     1       2.092   4.525  20.544  0.00  0.00    +0.000 A 
ATOM      4 CL   UNL     1       1.453   6.130  20.518  0.00  0.00    +0.000 Cl
ATOM      5  C   UNL     1       2.208   3.901  21.781  0.00  0.00    +0.000 A 
ATOM      6  N   UNL     1       2.657   2.637  21.958  0.00  0.00    +0.000 NA
ATOM      7  C   UNL     1       3.002   1.967  20.837  0.00  0.00    +0.000 A 
ATOM      8  C   UNL     1       2.926   2.497  19.553  0.00  0.00    +0.000 A 
ATOM      9 CL   UNL     1       3.376   1.469  18.239  0.00  0.00    +0.000 Cl
ENDBRANCH   1   2
BRANCH   1  13
ATOM     10  C   UNL     1       6.085   5.930  17.318  0.00  0.00    +0.000 A 
ATOM     11  C   UNL     1       5.863   4.840  16.499  0.00  0.00    +0.000 A 
ATOM     12  N   UNL     1       4.579   4.323  16.514  0.00  0.00    +0.000 NA
ATOM     13  C   UNL     1       3.840   5.004  17.363  0.00  0.00    +0.000 A 
ATOM     14  S   UNL     1       4.632   6.299  18.157  0.00  0.00    +0.000 S 
BRANCH  10  16
ATOM     15  C   UNL     1       8.046   6.468  18.821  0.00  0.00    +0.000 C 
ATOM     16  C   UNL     1       7.281   6.722  17.542  0.00  0.00    +0.000 C 
ATOM     17  O   UNL     1       7.703   7.562  16.746  0.00  0.00    +0.000 OA
ENDBRANCH  10  16
ENDBRANCH   1  13
TORSDOF 3
ENDMDL
MODEL 6
REMARK VINA RESULT:      -6.1      1.052      1.189
REMARK  Name = 
REMARK  4 active torsions:
REMARK  status: ('A' for Active; 'I' for Inactive)
REMARK    1  A    between atoms: C_1  and  C_2
REMARK    2  A    between atoms: C_2  and  C_4
REMARK    3  A    between atoms: C_7  and  S_8
REMARK    4  A    between atoms: S_8  and  C_9
REMARK                            x       y       z     vdW  Elec       q    Type
REMARK                         _______ _______ _______ _____ _____    ______ ____
ROOT
ATOM      1  S   UNL     1       4.777   5.110  19.360  0.00  0.00    +0.000 S 
ENDROOT
BRANCH   1   2
ATOM      2  C   UNL     1       3.349   4.061  19.035  0.00  0.00    +0.000 A 
ATOM      3  C   UNL     1       3.350   2.700  19.392  0.00  0.00    +0.000 A 
ATOM      4 CL   UNL     1       4.716   1.891  20.074  0.00  0.00    +0.000 Cl
ATOM      5  C   UNL     1       2.185   1.960  19.224  0.00  0.00    +0.000 A 
ATOM      6  N   UNL     1       1.027   2.463  18.736  0.00  0.00    +0.000 NA
ATOM      7  C   UNL     1       1.040   3.773  18.405  0.00  0.00    +0.000 A 
ATOM      8  C   UNL     1       2.151   4.601  18.533  0.00  0.00    +0.000 A 
ATOM      9 CL   UNL     1       1.960   6.261  18.092  0.00  0.00    +0.000 Cl
ENDBRANCH   1   2
BRANCH   1  13
ATOM     10  C   UNL     1       6.178   5.283  15.452  0.00  0.00    +0.000 A 
ATOM     11  C   UNL     1       5.327   6.337  15.720  0.00  0.00    +0.000 A 
ATOM     12  N   UNL     1       4.849   6.415  17.016  0.00  0.00    +0.000 NA
ATOM     13  C   UNL     1       5.316   5.405  17.719  0.00  0.00    +0.000 A 
ATOM     14  S   UNL     1       6.360   4.340  16.876  0.00  0.00    +0.000 S 
BRANCH  10  16
ATOM     15  C   UNL     1       6.214   3.848  13.371  0.00  0.00    +0.000 C 
ATOM     16  C   UNL     1       6.868   4.906  14.230  0.00  0.00    +0.000 C 
ATOM     17  O   UNL     1       7.928   5.410  13.861  0.00  0.00    +0.000 OA
ENDBRANCH  10  16
ENDBRANCH   1  13
TORSDOF 3
ENDMDL
MODEL 7
REMARK VINA RESULT:      -6.0      2.561      3.559
REMARK  Name = 
REMARK  4 active torsions:
REMARK  status: ('A' for Active; 'I' for Inactive)
REMARK    1  A    between atoms: C_1  and  C_2
REMARK    2  A    between atoms: C_2  and  C_4
REMARK    3  A    between atoms: C_7  and  S_8
REMARK    4  A    between atoms: S_8  and  C_9
REMARK                            x       y       z     vdW  Elec       q    Type
REMARK                         _______ _______ _______ _____ _____    ______ ____
ROOT
ATOM      1  S   UNL     1       2.024   4.512  17.838  0.00  0.00    +0.000 S 
ENDROOT
BRANCH   1   2
ATOM      2  C   UNL     1       2.375   3.775  19.443  0.00  0.00    +0.000 A 
ATOM      3  C   UNL     1       1.999   4.418  20.636  0.00  0.00    +0.000 A 
ATOM      4 CL   UNL     1       1.268   5.982  20.690  0.00  0.00    +0.000 Cl
ATOM      5  C   UNL     1       2.189   3.757  21.845  0.00  0.00    +0.000 A 
ATOM      6  N   UNL     1       2.716   2.516  21.960  0.00  0.00    +0.000 NA
ATOM      7  C   UNL     1       3.065   1.909  20.804  0.00  0.00    +0.000 A 
ATOM      8  C   UNL     1       2.917   2.481  19.544  0.00  0.00    +0.000 A 
ATOM      9 CL   UNL     1       3.386   1.530  18.180  0.00  0.00    +0.000 Cl
ENDBRANCH   1   2
BRANCH   1  13
ATOM     10  C   UNL     1       5.616   6.486  17.151  0.00  0.00    +0.000 A 
ATOM     11  C   UNL     1       4.587   7.385  17.348  0.00  0.00    +0.000 A 
ATOM     12  N   UNL     1       3.353   6.836  17.650  0.00  0.00    +0.000 NA
ATOM     13  C   UNL     1       3.443   5.523  17.652  0.00  0.00    +0.000 A 
ATOM     14  S   UNL     1       5.001   4.891  17.323  0.00  0.00    +0.000 S 
BRANCH  10  16
ATOM     15  C   UNL     1       7.742   7.771  17.624  0.00  0.00    +0.000 C 
ATOM     16  C   UNL     1       7.018   6.700  16.839  0.00  0.00    +0.000 C 
ATOM     17  O   UNL     1       7.638   6.052  15.995  0.00  0.00    +0.000 OA
ENDBRANCH  10  16
ENDBRANCH   1  13
TORSDOF 3
ENDMDL
MODEL 8
REMARK VINA RESULT:      -6.0      2.388      3.392
REMARK  Name = 
REMARK  4 active torsions:
REMARK  status: ('A' for Active; 'I' for Inactive)
REMARK    1  A    between atoms: C_1  and  C_2
REMARK    2  A    between atoms: C_2  and  C_4
REMARK    3  A    between atoms: C_7  and  S_8
REMARK    4  A    between atoms: S_8  and  C_9
REMARK                            x       y       z     vdW  Elec       q    Type
REMARK                         _______ _______ _______ _____ _____    ______ ____
ROOT
ATOM      1  S   UNL     1       2.233   5.379  17.823  0.00  0.00    +0.000 S 
ENDROOT
BRANCH   1   2
ATOM      2  C   UNL     1       2.070   4.230  19.200  0.00  0.00    +0.000 A 
ATOM      3  C   UNL     1       1.742   4.683  20.491  0.00  0.00    +0.000 A 
ATOM      4 CL   UNL     1       1.560   6.352  20.901  0.00  0.00    +0.000 Cl
ATOM      5  C   UNL     1       1.516   3.748  21.495  0.00  0.00    +0.000 A 
ATOM      6  N   UNL     1       1.586   2.409  21.318  0.00  0.00    +0.000 NA
ATOM      7  C   UNL     1       1.894   1.989  20.071  0.00  0.00    +0.000 A 
ATOM      8  C   UNL     1       2.139   2.839  18.998  0.00  0.00    +0.000 A 
ATOM      9 CL   UNL     1       2.480   2.111  17.468  0.00  0.00    +0.000 Cl
ENDBRANCH   1   2
BRANCH   1  13
ATOM     10  C   UNL     1       6.375   5.043  17.750  0.00  0.00    +0.000 A 
ATOM     11  C   UNL     1       5.853   5.024  16.471  0.00  0.00    +0.000 A 
ATOM     12  N   UNL     1       4.483   5.194  16.373  0.00  0.00    +0.000 NA
ATOM     13  C   UNL     1       3.967   5.313  17.578  0.00  0.00    +0.000 A 
ATOM     14  S   UNL     1       5.089   5.253  18.870  0.00  0.00    +0.000 S 
BRANCH  10  16
ATOM     15  C   UNL     1       8.184   5.852  19.320  0.00  0.00    +0.000 C 
ATOM     16  C   UNL     1       7.742   4.913  18.221  0.00  0.00    +0.000 C 
ATOM     17  O   UNL     1       8.538   4.079  17.787  0.00  0.00    +0.000 OA
ENDBRANCH  10  16
ENDBRANCH   1  13
TORSDOF 3
ENDMDL
MODEL 9
REMARK VINA RESULT:      -6.0      2.349      2.594
REMARK  Name = 
REMARK  4 active torsions:
REMARK  status: ('A' for Active; 'I' for Inactive)
REMARK    1  A    between atoms: C_1  and  C_2
REMARK    2  A    between atoms: C_2  and  C_4
REMARK    3  A    between atoms: C_7  and  S_8
REMARK    4  A    between atoms: S_8  and  C_9
REMARK                            x       y       z     vdW  Elec       q    Type
REMARK                         _______ _______ _______ _____ _____    ______ ____
ROOT
ATOM      1  S   UNL     1       1.774   4.765  17.832  0.00  0.00    +0.000 S 
ENDROOT
BRANCH   1   2
ATOM      2  C   UNL     1       1.966   4.011  19.455  0.00  0.00    +0.000 A 
ATOM      3  C   UNL     1       2.240   2.638  19.592  0.00  0.00    +0.000 A 
ATOM      4 CL   UNL     1       2.323   1.543  18.259  0.00  0.00    +0.000 Cl
ATOM      5  C   UNL     1       2.492   2.125  20.860  0.00  0.00    +0.000 A 
ATOM      6  N   UNL     1       2.497   2.864  21.993  0.00  0.00    +0.000 NA
ATOM      7  C   UNL     1       2.241   4.183  21.844  0.00  0.00    +0.000 A 
ATOM      8  C   UNL     1       1.975   4.795  20.624  0.00  0.00    +0.000 A 
ATOM      9 CL   UNL     1       1.709   6.502  20.632  0.00  0.00    +0.000 Cl
ENDBRANCH   1   2
BRANCH   1  13
ATOM     10  C   UNL     1       5.727   5.118  16.601  0.00  0.00    +0.000 A 
ATOM     11  C   UNL     1       5.250   6.320  17.086  0.00  0.00    +0.000 A 
ATOM     12  N   UNL     1       3.960   6.302  17.584  0.00  0.00    +0.000 NA
ATOM     13  C   UNL     1       3.452   5.095  17.450  0.00  0.00    +0.000 A 
ATOM     14  S   UNL     1       4.495   3.930  16.751  0.00  0.00    +0.000 S 
BRANCH  10  16
ATOM     15  C   UNL     1       7.148   4.863  14.524  0.00  0.00    +0.000 C 
ATOM     16  C   UNL     1       7.015   4.768  16.027  0.00  0.00    +0.000 C 
ATOM     17  O   UNL     1       7.990   4.422  16.696  0.00  0.00    +0.000 OA
ENDBRANCH  10  16
ENDBRANCH   1  13
TORSDOF 3
ENDMDL
