MODEL 1
REMARK VINA RESULT:      -7.9      0.000      0.000
REMARK  Name = 
REMARK  4 active torsions:
REMARK  status: ('A' for Active; 'I' for Inactive)
REMARK    1  A    between atoms: C_1  and  S_2
REMARK    2  A    between atoms: S_2  and  C_3
REMARK    3  A    between atoms: C_9  and  O_10
REMARK    4  A    between atoms: O_10  and  C_11
REMARK                            x       y       z     vdW  Elec       q    Type
REMARK                         _______ _______ _______ _____ _____    ______ ____
ROOT
ATOM      1  C   UNL     1       6.515   4.043  13.578  0.00  0.00    +0.000 A 
ATOM      2  N   UNL     1       7.213   5.044  14.056  0.00  0.00    +0.000 NA
ATOM      3  C   UNL     1       6.909   5.074  15.396  0.00  0.00    +0.000 A 
ATOM      4  C   UNL     1       7.425   5.895  16.404  0.00  0.00    +0.000 A 
ATOM      5  C   UNL     1       7.014   5.678  17.730  0.00  0.00    +0.000 A 
ATOM      6 CL   UNL     1       7.907   6.548  18.935  0.00  0.00    +0.000 Cl
ATOM      7  C   UNL     1       6.008   4.743  18.028  0.00  0.00    +0.000 A 
ATOM      8  C   UNL     1       5.491   3.910  17.015  0.00  0.00    +0.000 A 
ATOM      9  C   UNL     1       5.978   4.095  15.719  0.00  0.00    +0.000 A 
ATOM     10  N   UNL     1       5.751   3.443  14.535  0.00  0.00    +0.000 N 
ATOM     11  H   UNL     1       5.159   2.637  14.384  0.00  0.00    +0.000 HD
ENDROOT
BRANCH   1  13
ATOM     12  C   UNL     1       4.733   3.163  11.737  0.00  0.00    +0.000 C 
ATOM     13  S   UNL     1       6.505   3.458  11.959  0.00  0.00    +0.000 S 
ENDBRANCH   1  13
BRANCH   7  14
ATOM     14  O   UNL     1       5.508   4.424  19.276  0.00  0.00    +0.000 OA
BRANCH  14  15
ATOM     15  C   UNL     1       4.209   4.693  19.642  0.00  0.00    +0.000 A 
ATOM     16  C   UNL     1       3.570   5.915  19.400  0.00  0.00    +0.000 A 
ATOM     17  C   UNL     1       2.288   6.148  19.899  0.00  0.00    +0.000 A 
ATOM     18  C   UNL     1       1.607   5.135  20.573  0.00  0.00    +0.000 A 
ATOM     19  C   UNL     1       2.195   3.876  20.726  0.00  0.00    +0.000 A 
ATOM     20 CL   UNL     1       1.256   2.652  21.509  0.00  0.00    +0.000 Cl
ATOM     21  C   UNL     1       3.496   3.649  20.258  0.00  0.00    +0.000 A 
ATOM     22 CL   UNL     1       4.239   2.085  20.419  0.00  0.00    +0.000 Cl
ENDBRANCH  14  15
ENDBRANCH   7  14
TORSDOF 3
ENDMDL
MODEL 2
REMARK VINA RESULT:      -7.5      1.049      1.062
REMARK  Name = 
REMARK  4 active torsions:
REMARK  status: ('A' for Active; 'I' for Inactive)
REMARK    1  A    between atoms: C_1  and  S_2
REMARK    2  A    between atoms: S_2  and  C_3
REMARK    3  A    between atoms: C_9  and  O_10
REMARK    4  A    between atoms: O_10  and  C_11
REMARK                            x       y       z     vdW  Elec       q    Type
REMARK                         _______ _______ _______ _____ _____    ______ ____
ROOT
ATOM      1  C   UNL     1       6.804   4.333  13.752  0.00  0.00    +0.000 A 
ATOM      2  N   UNL     1       7.459   5.208  14.476  0.00  0.00    +0.000 NA
ATOM      3  C   UNL     1       6.994   5.020  15.755  0.00  0.00    +0.000 A 
ATOM      4  C   UNL     1       7.399   5.635  16.945  0.00  0.00    +0.000 A 
ATOM      5  C   UNL     1       6.825   5.210  18.156  0.00  0.00    +0.000 A 
ATOM      6 CL   UNL     1       7.581   5.824  19.590  0.00  0.00    +0.000 Cl
ATOM      7  C   UNL     1       5.772   4.280  18.166  0.00  0.00    +0.000 A 
ATOM      8  C   UNL     1       5.367   3.655  16.970  0.00  0.00    +0.000 A 
ATOM      9  C   UNL     1       6.012   4.039  15.792  0.00  0.00    +0.000 A 
ATOM     10  N   UNL     1       5.918   3.609  14.493  0.00  0.00    +0.000 N 
ATOM     11  H   UNL     1       5.333   2.866  14.135  0.00  0.00    +0.000 HD
ENDROOT
BRANCH   1  13
ATOM     12  C   UNL     1       5.533   2.990  11.773  0.00  0.00    +0.000 C 
ATOM     13  S   UNL     1       6.981   4.035  12.065  0.00  0.00    +0.000 S 
ENDBRANCH   1  13
BRANCH   7  14
ATOM     14  O   UNL     1       5.118   3.772  19.272  0.00  0.00    +0.000 OA
BRANCH  14  15
ATOM     15  C   UNL     1       3.796   4.048  19.538  0.00  0.00    +0.000 A 
ATOM     16  C   UNL     1       3.345   5.266  20.060  0.00  0.00    +0.000 A 
ATOM     17  C   UNL     1       2.003   5.428  20.404  0.00  0.00    +0.000 A 
ATOM     18  C   UNL     1       1.090   4.404  20.157  0.00  0.00    +0.000 A 
ATOM     19  C   UNL     1       1.511   3.224  19.537  0.00  0.00    +0.000 A 
ATOM     20 CL   UNL     1       0.305   2.031  19.198  0.00  0.00    +0.000 Cl
ATOM     21  C   UNL     1       2.864   3.042  19.222  0.00  0.00    +0.000 A 
ATOM     22 CL   UNL     1       3.408   1.591  18.433  0.00  0.00    +0.000 Cl
ENDBRANCH  14  15
ENDBRANCH   7  14
TORSDOF 3
ENDMDL
MODEL 3
REMARK VINA RESULT:      -6.9      5.572      6.985
REMARK  Name = 
REMARK  4 active torsions:
REMARK  status: ('A' for Active; 'I' for Inactive)
REMARK    1  A    between atoms: C_1  and  S_2
REMARK    2  A    between atoms: S_2  and  C_3
REMARK    3  A    between atoms: C_9  and  O_10
REMARK    4  A    between atoms: O_10  and  C_11
REMARK                            x       y       z     vdW  Elec       q    Type
REMARK                         _______ _______ _______ _____ _____    ______ ____
ROOT
ATOM      1  C   UNL     1      -0.101  10.677  19.567  0.00  0.00    +0.000 A 
ATOM      2  N   UNL     1       0.653  10.546  18.504  0.00  0.00    +0.000 NA
ATOM      3  C   UNL     1       1.377   9.400  18.728  0.00  0.00    +0.000 A 
ATOM      4  C   UNL     1       2.286   8.746  17.890  0.00  0.00    +0.000 A 
ATOM      5  C   UNL     1       2.844   7.529  18.314  0.00  0.00    +0.000 A 
ATOM      6 CL   UNL     1       3.734   6.660  17.106  0.00  0.00    +0.000 Cl
ATOM      7  C   UNL     1       2.600   7.037  19.608  0.00  0.00    +0.000 A 
ATOM      8  C   UNL     1       1.680   7.690  20.452  0.00  0.00    +0.000 A 
ATOM      9  C   UNL     1       1.079   8.855  19.971  0.00  0.00    +0.000 A 
ATOM     10  N   UNL     1       0.120   9.691  20.483  0.00  0.00    +0.000 N 
ATOM     11  H   UNL     1      -0.374   9.592  21.360  0.00  0.00    +0.000 HD
ENDROOT
BRANCH   1  13
ATOM     12  C   UNL     1      -2.405  11.601  18.482  0.00  0.00    +0.000 C 
ATOM     13  S   UNL     1      -1.278  11.898  19.866  0.00  0.00    +0.000 S 
ENDBRANCH   1  13
BRANCH   7  14
ATOM     14  O   UNL     1       3.075   5.862  20.158  0.00  0.00    +0.000 OA
BRANCH  14  15
ATOM     15  C   UNL     1       2.521   4.635  19.868  0.00  0.00    +0.000 A 
ATOM     16  C   UNL     1       1.169   4.327  20.057  0.00  0.00    +0.000 A 
ATOM     17  C   UNL     1       0.708   3.028  19.842  0.00  0.00    +0.000 A 
ATOM     18  C   UNL     1       1.578   2.050  19.361  0.00  0.00    +0.000 A 
ATOM     19  C   UNL     1       2.905   2.375  19.067  0.00  0.00    +0.000 A 
ATOM     20 CL   UNL     1       3.901   1.124  18.405  0.00  0.00    +0.000 Cl
ATOM     21  C   UNL     1       3.381   3.669  19.315  0.00  0.00    +0.000 A 
ATOM     22 CL   UNL     1       5.023   4.101  18.938  0.00  0.00    +0.000 Cl
ENDBRANCH  14  15
ENDBRANCH   7  14
TORSDOF 3
ENDMDL
MODEL 4
REMARK VINA RESULT:      -6.6      1.348      1.835
REMARK  Name = 
REMARK  4 active torsions:
REMARK  status: ('A' for Active; 'I' for Inactive)
REMARK    1  A    between atoms: C_1  and  S_2
REMARK    2  A    between atoms: S_2  and  C_3
REMARK    3  A    between atoms: C_9  and  O_10
REMARK    4  A    between atoms: O_10  and  C_11
REMARK                            x       y       z     vdW  Elec       q    Type
REMARK                         _______ _______ _______ _____ _____    ______ ____
ROOT
ATOM      1  C   UNL     1       6.306   4.059  13.436  0.00  0.00    +0.000 A 
ATOM      2  N   UNL     1       7.231   4.896  13.840  0.00  0.00    +0.000 NA
ATOM      3  C   UNL     1       6.854   5.246  15.113  0.00  0.00    +0.000 A 
ATOM      4  C   UNL     1       7.513   6.058  16.042  0.00  0.00    +0.000 A 
ATOM      5  C   UNL     1       6.962   6.203  17.327  0.00  0.00    +0.000 A 
ATOM      6 CL   UNL     1       7.982   6.991  18.486  0.00  0.00    +0.000 Cl
ATOM      7  C   UNL     1       5.707   5.652  17.638  0.00  0.00    +0.000 A 
ATOM      8  C   UNL     1       5.044   4.829  16.706  0.00  0.00    +0.000 A 
ATOM      9  C   UNL     1       5.656   4.638  15.466  0.00  0.00    +0.000 A 
ATOM     10  N   UNL     1       5.333   3.874  14.373  0.00  0.00    +0.000 N 
ATOM     11  H   UNL     1       4.543   3.251  14.274  0.00  0.00    +0.000 HD
ENDROOT
BRANCH   1  13
ATOM     12  C   UNL     1       4.459   3.258  11.623  0.00  0.00    +0.000 C 
ATOM     13  S   UNL     1       6.241   3.221  11.933  0.00  0.00    +0.000 S 
ENDBRANCH   1  13
BRANCH   7  14
ATOM     14  O   UNL     1       5.048   5.711  18.850  0.00  0.00    +0.000 OA
BRANCH  14  15
ATOM     15  C   UNL     1       4.337   4.645  19.356  0.00  0.00    +0.000 A 
ATOM     16  C   UNL     1       4.898   3.391  19.620  0.00  0.00    +0.000 A 
ATOM     17  C   UNL     1       4.088   2.331  20.028  0.00  0.00    +0.000 A 
ATOM     18  C   UNL     1       2.727   2.539  20.251  0.00  0.00    +0.000 A 
ATOM     19  C   UNL     1       2.177   3.814  20.093  0.00  0.00    +0.000 A 
ATOM     20 CL   UNL     1       0.497   4.006  20.460  0.00  0.00    +0.000 Cl
ATOM     21  C   UNL     1       2.980   4.873  19.649  0.00  0.00    +0.000 A 
ATOM     22 CL   UNL     1       2.323   6.473  19.465  0.00  0.00    +0.000 Cl
ENDBRANCH  14  15
ENDBRANCH   7  14
TORSDOF 3
ENDMDL
MODEL 5
REMARK VINA RESULT:      -6.6      1.475      1.917
REMARK  Name = 
REMARK  4 active torsions:
REMARK  status: ('A' for Active; 'I' for Inactive)
REMARK    1  A    between atoms: C_1  and  S_2
REMARK    2  A    between atoms: S_2  and  C_3
REMARK    3  A    between atoms: C_9  and  O_10
REMARK    4  A    between atoms: O_10  and  C_11
REMARK                            x       y       z     vdW  Elec       q    Type
REMARK                         _______ _______ _______ _____ _____    ______ ____
ROOT
ATOM      1  C   UNL     1       6.752   4.334  13.600  0.00  0.00    +0.000 A 
ATOM      2  N   UNL     1       7.356   5.279  14.279  0.00  0.00    +0.000 NA
ATOM      3  C   UNL     1       6.969   5.074  15.581  0.00  0.00    +0.000 A 
ATOM      4  C   UNL     1       7.369   5.746  16.741  0.00  0.00    +0.000 A 
ATOM      5  C   UNL     1       6.892   5.295  17.983  0.00  0.00    +0.000 A 
ATOM      6 CL   UNL     1       7.653   6.002  19.371  0.00  0.00    +0.000 Cl
ATOM      7  C   UNL     1       5.930   4.272  18.057  0.00  0.00    +0.000 A 
ATOM      8  C   UNL     1       5.530   3.590  16.891  0.00  0.00    +0.000 A 
ATOM      9  C   UNL     1       6.083   4.009  15.679  0.00  0.00    +0.000 A 
ATOM     10  N   UNL     1       5.971   3.547  14.392  0.00  0.00    +0.000 N 
ATOM     11  H   UNL     1       5.440   2.747  14.073  0.00  0.00    +0.000 HD
ENDROOT
BRANCH   1  13
ATOM     12  C   UNL     1       5.705   2.653  11.752  0.00  0.00    +0.000 C 
ATOM     13  S   UNL     1       6.879   4.021  11.911  0.00  0.00    +0.000 S 
ENDBRANCH   1  13
BRANCH   7  14
ATOM     14  O   UNL     1       5.376   3.729  19.200  0.00  0.00    +0.000 OA
BRANCH  14  15
ATOM     15  C   UNL     1       4.095   3.225  19.231  0.00  0.00    +0.000 A 
ATOM     16  C   UNL     1       3.771   1.904  18.900  0.00  0.00    +0.000 A 
ATOM     17  C   UNL     1       2.436   1.501  18.851  0.00  0.00    +0.000 A 
ATOM     18  C   UNL     1       1.424   2.391  19.208  0.00  0.00    +0.000 A 
ATOM     19  C   UNL     1       1.745   3.680  19.643  0.00  0.00    +0.000 A 
ATOM     20 CL   UNL     1       0.438   4.700  20.138  0.00  0.00    +0.000 Cl
ATOM     21  C   UNL     1       3.081   4.101  19.660  0.00  0.00    +0.000 A 
ATOM     22 CL   UNL     1       3.507   5.692  20.216  0.00  0.00    +0.000 Cl
ENDBRANCH  14  15
ENDBRANCH   7  14
TORSDOF 3
ENDMDL
MODEL 6
REMARK VINA RESULT:      -6.6      6.170      7.871
REMARK  Name = 
REMARK  4 active torsions:
REMARK  status: ('A' for Active; 'I' for Inactive)
REMARK    1  A    between atoms: C_1  and  S_2
REMARK    2  A    between atoms: S_2  and  C_3
REMARK    3  A    between atoms: C_9  and  O_10
REMARK    4  A    between atoms: O_10  and  C_11
REMARK                            x       y       z     vdW  Elec       q    Type
REMARK                         _______ _______ _______ _____ _____    ______ ____
ROOT
ATOM      1  C   UNL     1       3.743   6.126  18.186  0.00  0.00    +0.000 A 
ATOM      2  N   UNL     1       3.272   6.173  19.408  0.00  0.00    +0.000 NA
ATOM      3  C   UNL     1       2.477   7.293  19.433  0.00  0.00    +0.000 A 
ATOM      4  C   UNL     1       1.671   7.785  20.465  0.00  0.00    +0.000 A 
ATOM      5  C   UNL     1       0.876   8.918  20.222  0.00  0.00    +0.000 A 
ATOM      6 CL   UNL     1      -0.287   9.285  21.453  0.00  0.00    +0.000 Cl
ATOM      7  C   UNL     1       0.981   9.624  19.011  0.00  0.00    +0.000 A 
ATOM      8  C   UNL     1       1.788   9.127  17.968  0.00  0.00    +0.000 A 
ATOM      9  C   UNL     1       2.504   7.953  18.212  0.00  0.00    +0.000 A 
ATOM     10  N   UNL     1       3.317   7.176  17.427  0.00  0.00    +0.000 N 
ATOM     11  H   UNL     1       3.543   7.317  16.451  0.00  0.00    +0.000 HD
ENDROOT
BRANCH   1  13
ATOM     12  C   UNL     1       4.217   3.471  18.445  0.00  0.00    +0.000 C 
ATOM     13  S   UNL     1       4.766   4.918  17.507  0.00  0.00    +0.000 S 
ENDBRANCH   1  13
BRANCH   7  14
ATOM     14  O   UNL     1       0.266  10.745  18.634  0.00  0.00    +0.000 OA
BRANCH  14  15
ATOM     15  C   UNL     1      -1.061  10.686  18.275  0.00  0.00    +0.000 A 
ATOM     16  C   UNL     1      -1.559   9.851  17.268  0.00  0.00    +0.000 A 
ATOM     17  C   UNL     1      -2.899   9.930  16.889  0.00  0.00    +0.000 A 
ATOM     18  C   UNL     1      -3.767  10.785  17.567  0.00  0.00    +0.000 A 
ATOM     19  C   UNL     1      -3.303  11.545  18.644  0.00  0.00    +0.000 A 
ATOM     20 CL   UNL     1      -4.457  12.527  19.479  0.00  0.00    +0.000 Cl
ATOM     21  C   UNL     1      -1.950  11.496  19.005  0.00  0.00    +0.000 A 
ATOM     22 CL   UNL     1      -1.354  12.417  20.355  0.00  0.00    +0.000 Cl
ENDBRANCH  14  15
ENDBRANCH   7  14
TORSDOF 3
ENDMDL
MODEL 7
REMARK VINA RESULT:      -6.4      3.166      4.315
REMARK  Name = 
REMARK  4 active torsions:
REMARK  status: ('A' for Active; 'I' for Inactive)
REMARK    1  A    between atoms: C_1  and  S_2
REMARK    2  A    between atoms: S_2  and  C_3
REMARK    3  A    between atoms: C_9  and  O_10
REMARK    4  A    between atoms: O_10  and  C_11
REMARK                            x       y       z     vdW  Elec       q    Type
REMARK                         _______ _______ _______ _____ _____    ______ ____
ROOT
ATOM      1  C   UNL     1       6.130   4.778  14.998  0.00  0.00    +0.000 A 
ATOM      2  N   UNL     1       5.284   3.841  15.351  0.00  0.00    +0.000 NA
ATOM      3  C   UNL     1       4.588   4.379  16.406  0.00  0.00    +0.000 A 
ATOM      4  C   UNL     1       3.513   3.844  17.124  0.00  0.00    +0.000 A 
ATOM      5  C   UNL     1       2.905   4.629  18.118  0.00  0.00    +0.000 A 
ATOM      6 CL   UNL     1       1.421   4.000  18.756  0.00  0.00    +0.000 Cl
ATOM      7  C   UNL     1       3.443   5.877  18.479  0.00  0.00    +0.000 A 
ATOM      8  C   UNL     1       4.521   6.421  17.753  0.00  0.00    +0.000 A 
ATOM      9  C   UNL     1       5.053   5.651  16.716  0.00  0.00    +0.000 A 
ATOM     10  N   UNL     1       6.036   5.884  15.790  0.00  0.00    +0.000 N 
ATOM     11  H   UNL     1       6.579   6.730  15.673  0.00  0.00    +0.000 HD
ENDROOT
BRANCH   1  13
ATOM     12  C   UNL     1       6.366   3.648  12.547  0.00  0.00    +0.000 C 
ATOM     13  S   UNL     1       7.253   4.731  13.693  0.00  0.00    +0.000 S 
ENDBRANCH   1  13
BRANCH   7  14
ATOM     14  O   UNL     1       2.954   6.753  19.429  0.00  0.00    +0.000 OA
BRANCH  14  15
ATOM     15  C   UNL     1       2.251   7.888  19.093  0.00  0.00    +0.000 A 
ATOM     16  C   UNL     1       2.328   8.509  17.842  0.00  0.00    +0.000 A 
ATOM     17  C   UNL     1       1.668   9.718  17.616  0.00  0.00    +0.000 A 
ATOM     18  C   UNL     1       0.865  10.271  18.612  0.00  0.00    +0.000 A 
ATOM     19  C   UNL     1       0.696   9.603  19.829  0.00  0.00    +0.000 A 
ATOM     20 CL   UNL     1      -0.374  10.317  20.985  0.00  0.00    +0.000 Cl
ATOM     21  C   UNL     1       1.385   8.407  20.073  0.00  0.00    +0.000 A 
ATOM     22 CL   UNL     1       1.175   7.548  21.570  0.00  0.00    +0.000 Cl
ENDBRANCH  14  15
ENDBRANCH   7  14
TORSDOF 3
ENDMDL
MODEL 8
REMARK VINA RESULT:      -6.3      5.796      7.485
REMARK  Name = 
REMARK  4 active torsions:
REMARK  status: ('A' for Active; 'I' for Inactive)
REMARK    1  A    between atoms: C_1  and  S_2
REMARK    2  A    between atoms: S_2  and  C_3
REMARK    3  A    between atoms: C_9  and  O_10
REMARK    4  A    between atoms: O_10  and  C_11
REMARK                            x       y       z     vdW  Elec       q    Type
REMARK                         _______ _______ _______ _____ _____    ______ ____
ROOT
ATOM      1  C   UNL     1       3.335   4.783  18.683  0.00  0.00    +0.000 A 
ATOM      2  N   UNL     1       2.855   5.003  19.882  0.00  0.00    +0.000 NA
ATOM      3  C   UNL     1       2.384   6.293  19.840  0.00  0.00    +0.000 A 
ATOM      4  C   UNL     1       1.705   7.022  20.821  0.00  0.00    +0.000 A 
ATOM      5  C   UNL     1       1.246   8.313  20.509  0.00  0.00    +0.000 A 
ATOM      6 CL   UNL     1       0.183   9.025  21.679  0.00  0.00    +0.000 Cl
ATOM      7  C   UNL     1       1.572   8.916  19.282  0.00  0.00    +0.000 A 
ATOM      8  C   UNL     1       2.251   8.181  18.289  0.00  0.00    +0.000 A 
ATOM      9  C   UNL     1       2.623   6.871  18.600  0.00  0.00    +0.000 A 
ATOM     10  N   UNL     1       3.226   5.876  17.874  0.00  0.00    +0.000 N 
ATOM     11  H   UNL     1       3.511   5.911  16.905  0.00  0.00    +0.000 HD
ENDROOT
BRANCH   1  13
ATOM     12  C   UNL     1       2.521   2.441  17.590  0.00  0.00    +0.000 C 
ATOM     13  S   UNL     1       4.022   3.321  18.086  0.00  0.00    +0.000 S 
ENDBRANCH   1  13
BRANCH   7  14
ATOM     14  O   UNL     1       1.192  10.168  18.840  0.00  0.00    +0.000 OA
BRANCH  14  15
ATOM     15  C   UNL     1      -0.129  10.524  18.680  0.00  0.00    +0.000 A 
ATOM     16  C   UNL     1      -1.009   9.877  17.806  0.00  0.00    +0.000 A 
ATOM     17  C   UNL     1      -2.302  10.367  17.621  0.00  0.00    +0.000 A 
ATOM     18  C   UNL     1      -2.748  11.457  18.366  0.00  0.00    +0.000 A 
ATOM     19  C   UNL     1      -1.912  12.045  19.319  0.00  0.00    +0.000 A 
ATOM     20 CL   UNL     1      -2.564  13.346  20.254  0.00  0.00    +0.000 Cl
ATOM     21  C   UNL     1      -0.601  11.579  19.483  0.00  0.00    +0.000 A 
ATOM     22 CL   UNL     1       0.451  12.280  20.678  0.00  0.00    +0.000 Cl
ENDBRANCH  14  15
ENDBRANCH   7  14
TORSDOF 3
ENDMDL
MODEL 9
REMARK VINA RESULT:      -6.3      5.677      7.322
REMARK  Name = 
REMARK  4 active torsions:
REMARK  status: ('A' for Active; 'I' for Inactive)
REMARK    1  A    between atoms: C_1  and  S_2
REMARK    2  A    between atoms: S_2  and  C_3
REMARK    3  A    between atoms: C_9  and  O_10
REMARK    4  A    between atoms: O_10  and  C_11
REMARK                            x       y       z     vdW  Elec       q    Type
REMARK                         _______ _______ _______ _____ _____    ______ ____
ROOT
ATOM      1  C   UNL     1       3.675   5.176  18.095  0.00  0.00    +0.000 A 
ATOM      2  N   UNL     1       3.166   5.178  19.303  0.00  0.00    +0.000 NA
ATOM      3  C   UNL     1       2.583   6.415  19.435  0.00  0.00    +0.000 A 
ATOM      4  C   UNL     1       1.833   6.934  20.495  0.00  0.00    +0.000 A 
ATOM      5  C   UNL     1       1.264   8.212  20.362  0.00  0.00    +0.000 A 
ATOM      6 CL   UNL     1       0.131   8.652  21.597  0.00  0.00    +0.000 Cl
ATOM      7  C   UNL     1       1.548   9.012  19.241  0.00  0.00    +0.000 A 
ATOM      8  C   UNL     1       2.298   8.489  18.169  0.00  0.00    +0.000 A 
ATOM      9  C   UNL     1       2.782   7.186  18.297  0.00  0.00    +0.000 A 
ATOM     10  N   UNL     1       3.477   6.361  17.450  0.00  0.00    +0.000 N 
ATOM     11  H   UNL     1       3.768   6.561  16.502  0.00  0.00    +0.000 HD
ENDROOT
BRANCH   1  13
ATOM     12  C   UNL     1       5.863   4.785  16.546  0.00  0.00    +0.000 C 
ATOM     13  S   UNL     1       4.494   3.881  17.311  0.00  0.00    +0.000 S 
ENDBRANCH   1  13
BRANCH   7  14
ATOM     14  O   UNL     1       1.062  10.277  18.975  0.00  0.00    +0.000 OA
BRANCH  14  15
ATOM     15  C   UNL     1      -0.268  10.516  18.708  0.00  0.00    +0.000 A 
ATOM     16  C   UNL     1      -0.988   9.865  17.701  0.00  0.00    +0.000 A 
ATOM     17  C   UNL     1      -2.302  10.241  17.421  0.00  0.00    +0.000 A 
ATOM     18  C   UNL     1      -2.929  11.214  18.198  0.00  0.00    +0.000 A 
ATOM     19  C   UNL     1      -2.253  11.795  19.275  0.00  0.00    +0.000 A 
ATOM     20 CL   UNL     1      -3.124  12.941  20.235  0.00  0.00    +0.000 Cl
ATOM     21  C   UNL     1      -0.921  11.446  19.537  0.00  0.00    +0.000 A 
ATOM     22 CL   UNL     1      -0.067  12.139  20.884  0.00  0.00    +0.000 Cl
ENDBRANCH  14  15
ENDBRANCH   7  14
TORSDOF 3
ENDMDL
