MODEL 1
REMARK VINA RESULT:      -8.3      0.000      0.000
REMARK  Name = 
REMARK  8 active torsions:
REMARK  status: ('A' for Active; 'I' for Inactive)
REMARK    1  A    between atoms: C_1  and  O_2
REMARK    2  A    between atoms: O_2  and  C_3
REMARK    3  A    between atoms: C_3  and  C_5
REMARK    4  A    between atoms: C_9  and  N_10
REMARK    5  A    between atoms: N_10  and  C_11
REMARK    6  A    between atoms: C_11  and  C_12
REMARK    7  A    between atoms: C_14  and  C_15
REMARK    8  A    between atoms: C_16  and  C_17
REMARK                            x       y       z     vdW  Elec       q    Type
REMARK                         _______ _______ _______ _____ _____    ______ ____
ROOT
ATOM      1  C   UNL     1       7.708   7.553  17.862  0.00  0.00    +0.000 A 
ATOM      2  C   UNL     1       6.975   6.966  16.804  0.00  0.00    +0.000 A 
ATOM      3  C   UNL     1       7.052   5.614  17.034  0.00  0.00    +0.000 A 
ATOM      4  N   UNL     1       7.634   5.482  18.268  0.00  0.00    +0.000 N 
ATOM      5  N   UNL     1       8.069   6.645  18.779  0.00  0.00    +0.000 NA
ATOM      6  H   UNL     1       7.821   4.626  18.782  0.00  0.00    +0.000 HD
ENDROOT
BRANCH   3   7
ATOM      7  C   UNL     1       6.757   4.479  16.253  0.00  0.00    +0.000 C 
ATOM      8  C   UNL     1       5.607   3.790  16.425  0.00  0.00    +0.000 C 
BRANCH   8   9
ATOM      9  C   UNL     1       4.549   4.200  17.366  0.00  0.00    +0.000 A 
ATOM     10  C   UNL     1       3.947   5.453  17.214  0.00  0.00    +0.000 A 
ATOM     11  C   UNL     1       3.090   5.943  18.201  0.00  0.00    +0.000 A 
ATOM     12  C   UNL     1       2.822   5.180  19.341  0.00  0.00    +0.000 A 
ATOM     13 CL   UNL     1       1.828   5.887  20.564  0.00  0.00    +0.000 Cl
ATOM     14  C   UNL     1       3.379   3.903  19.470  0.00  0.00    +0.000 A 
ATOM     15 CL   UNL     1       3.072   2.895  20.840  0.00  0.00    +0.000 Cl
ATOM     16  C   UNL     1       4.239   3.413  18.480  0.00  0.00    +0.000 A 
ENDBRANCH   8   9
ENDBRANCH   3   7
BRANCH   1  17
ATOM     17  C   UNL     1       8.119   8.990  17.967  0.00  0.00    +0.000 C 
BRANCH  17  18
ATOM     18  N   UNL     1       8.975   9.231  19.142  0.00  0.00    +0.000 NA
ATOM     19  H   UNL     1       8.490   8.865  19.961  0.00  0.00    +0.000 HD
BRANCH  18  24
ATOM     20  C   UNL     1      10.862  12.531  18.658  0.00  0.00    +0.000 C 
ATOM     21  C   UNL     1      11.135  12.815  20.141  0.00  0.00    +0.000 C 
ATOM     22  C   UNL     1       9.961  12.426  21.032  0.00  0.00    +0.000 C 
ATOM     23  C   UNL     1       9.570  10.970  20.828  0.00  0.00    +0.000 C 
ATOM     24  C   UNL     1       9.277  10.655  19.353  0.00  0.00    +0.000 C 
ATOM     25  C   UNL     1      10.482  11.050  18.475  0.00  0.00    +0.000 C 
BRANCH  20  26
ATOM     26  C   UNL     1       9.830  13.512  18.103  0.00  0.00    +0.000 C 
ATOM     27  O   UNL     1       8.796  13.177  17.540  0.00  0.00    +0.000 OA
BRANCH  26  29
ATOM     28  C   UNL     1      10.822  15.468  17.277  0.00  0.00    +0.000 C 
ATOM     29  O   UNL     1      10.174  14.802  18.361  0.00  0.00    +0.000 OA
ENDBRANCH  26  29
ENDBRANCH  20  26
ENDBRANCH  18  24
ENDBRANCH  17  18
ENDBRANCH   1  17
TORSDOF 7
ENDMDL
MODEL 2
REMARK VINA RESULT:      -8.1      0.856      1.519
REMARK  Name = 
REMARK  8 active torsions:
REMARK  status: ('A' for Active; 'I' for Inactive)
REMARK    1  A    between atoms: C_1  and  O_2
REMARK    2  A    between atoms: O_2  and  C_3
REMARK    3  A    between atoms: C_3  and  C_5
REMARK    4  A    between atoms: C_9  and  N_10
REMARK    5  A    between atoms: N_10  and  C_11
REMARK    6  A    between atoms: C_11  and  C_12
REMARK    7  A    between atoms: C_14  and  C_15
REMARK    8  A    between atoms: C_16  and  C_17
REMARK                            x       y       z     vdW  Elec       q    Type
REMARK                         _______ _______ _______ _____ _____    ______ ____
ROOT
ATOM      1  C   UNL     1       7.862   7.806  17.902  0.00  0.00    +0.000 A 
ATOM      2  C   UNL     1       7.067   7.197  16.903  0.00  0.00    +0.000 A 
ATOM      3  C   UNL     1       7.164   5.850  17.151  0.00  0.00    +0.000 A 
ATOM      4  N   UNL     1       7.822   5.742  18.348  0.00  0.00    +0.000 N 
ATOM      5  N   UNL     1       8.283   6.915  18.811  0.00  0.00    +0.000 NA
ATOM      6  H   UNL     1       8.045   4.896  18.865  0.00  0.00    +0.000 HD
ENDROOT
BRANCH   3   7
ATOM      7  C   UNL     1       6.826   4.700  16.410  0.00  0.00    +0.000 C 
ATOM      8  C   UNL     1       5.717   3.983  16.697  0.00  0.00    +0.000 C 
BRANCH   8   9
ATOM      9  C   UNL     1       4.743   4.375  17.732  0.00  0.00    +0.000 A 
ATOM     10  C   UNL     1       4.506   3.515  18.809  0.00  0.00    +0.000 A 
ATOM     11  C   UNL     1       3.453   3.770  19.689  0.00  0.00    +0.000 A 
ATOM     12  C   UNL     1       2.637   4.889  19.505  0.00  0.00    +0.000 A 
ATOM     13 CL   UNL     1       1.298   5.090  20.577  0.00  0.00    +0.000 Cl
ATOM     14  C   UNL     1       2.907   5.782  18.462  0.00  0.00    +0.000 A 
ATOM     15 CL   UNL     1       1.955   7.199  18.190  0.00  0.00    +0.000 Cl
ATOM     16  C   UNL     1       3.962   5.526  17.578  0.00  0.00    +0.000 A 
ENDBRANCH   8   9
ENDBRANCH   3   7
BRANCH   1  17
ATOM     17  C   UNL     1       8.272   9.246  17.956  0.00  0.00    +0.000 C 
BRANCH  17  18
ATOM     18  N   UNL     1       8.998   9.563  19.198  0.00  0.00    +0.000 NA
ATOM     19  H   UNL     1       8.397   9.315  19.982  0.00  0.00    +0.000 HD
BRANCH  18  24
ATOM     20  C   UNL     1      10.526  12.885  18.054  0.00  0.00    +0.000 C 
ATOM     21  C   UNL     1      11.405  13.127  19.289  0.00  0.00    +0.000 C 
ATOM     22  C   UNL     1      10.718  12.706  20.582  0.00  0.00    +0.000 C 
ATOM     23  C   UNL     1      10.265  11.254  20.521  0.00  0.00    +0.000 C 
ATOM     24  C   UNL     1       9.372  10.982  19.301  0.00  0.00    +0.000 C 
ATOM     25  C   UNL     1      10.093  11.408  18.007  0.00  0.00    +0.000 C 
BRANCH  20  26
ATOM     26  C   UNL     1       9.364  13.877  18.018  0.00  0.00    +0.000 C 
ATOM     27  O   UNL     1       8.198  13.563  17.814  0.00  0.00    +0.000 OA
BRANCH  26  29
ATOM     28  C   UNL     1       8.853  16.162  17.907  0.00  0.00    +0.000 C 
ATOM     29  O   UNL     1       9.774  15.143  18.297  0.00  0.00    +0.000 OA
ENDBRANCH  26  29
ENDBRANCH  20  26
ENDBRANCH  18  24
ENDBRANCH  17  18
ENDBRANCH   1  17
TORSDOF 7
ENDMDL
MODEL 3
REMARK VINA RESULT:      -8.0      1.000      1.747
REMARK  Name = 
REMARK  8 active torsions:
REMARK  status: ('A' for Active; 'I' for Inactive)
REMARK    1  A    between atoms: C_1  and  O_2
REMARK    2  A    between atoms: O_2  and  C_3
REMARK    3  A    between atoms: C_3  and  C_5
REMARK    4  A    between atoms: C_9  and  N_10
REMARK    5  A    between atoms: N_10  and  C_11
REMARK    6  A    between atoms: C_11  and  C_12
REMARK    7  A    between atoms: C_14  and  C_15
REMARK    8  A    between atoms: C_16  and  C_17
REMARK                            x       y       z     vdW  Elec       q    Type
REMARK                         _______ _______ _______ _____ _____    ______ ____
ROOT
ATOM      1  C   UNL     1       7.985   6.984  18.404  0.00  0.00    +0.000 A 
ATOM      2  C   UNL     1       7.206   6.904  17.227  0.00  0.00    +0.000 A 
ATOM      3  C   UNL     1       6.969   5.563  17.053  0.00  0.00    +0.000 A 
ATOM      4  N   UNL     1       7.432   4.956  18.192  0.00  0.00    +0.000 N 
ATOM      5  N   UNL     1       8.081   5.794  19.016  0.00  0.00    +0.000 NA
ATOM      6  H   UNL     1       7.395   3.970  18.434  0.00  0.00    +0.000 HD
ENDROOT
BRANCH   3   7
ATOM      7  C   UNL     1       6.479   4.795  15.978  0.00  0.00    +0.000 C 
ATOM      8  C   UNL     1       5.281   4.174  16.050  0.00  0.00    +0.000 C 
BRANCH   8   9
ATOM      9  C   UNL     1       4.367   4.306  17.199  0.00  0.00    +0.000 A 
ATOM     10  C   UNL     1       3.980   3.161  17.902  0.00  0.00    +0.000 A 
ATOM     11  C   UNL     1       2.969   3.235  18.860  0.00  0.00    +0.000 A 
ATOM     12  C   UNL     1       2.343   4.455  19.130  0.00  0.00    +0.000 A 
ATOM     13 CL   UNL     1       1.037   4.455  20.260  0.00  0.00    +0.000 Cl
ATOM     14  C   UNL     1       2.766   5.614  18.469  0.00  0.00    +0.000 A 
ATOM     15 CL   UNL     1       2.054   7.160  18.769  0.00  0.00    +0.000 Cl
ATOM     16  C   UNL     1       3.779   5.539  17.506  0.00  0.00    +0.000 A 
ENDBRANCH   8   9
ENDBRANCH   3   7
BRANCH   1  17
ATOM     17  C   UNL     1       8.695   8.198  18.920  0.00  0.00    +0.000 C 
BRANCH  17  18
ATOM     18  N   UNL     1       8.363   9.401  18.136  0.00  0.00    +0.000 NA
ATOM     19  H   UNL     1       8.701   9.257  17.186  0.00  0.00    +0.000 HD
BRANCH  18  24
ATOM     20  C   UNL     1      10.829  12.327  18.327  0.00  0.00    +0.000 C 
ATOM     21  C   UNL     1      11.264  12.116  19.784  0.00  0.00    +0.000 C 
ATOM     22  C   UNL     1      10.107  11.690  20.679  0.00  0.00    +0.000 C 
ATOM     23  C   UNL     1       9.418  10.446  20.139  0.00  0.00    +0.000 C 
ATOM     24  C   UNL     1       8.959  10.629  18.685  0.00  0.00    +0.000 C 
ATOM     25  C   UNL     1      10.148  11.051  17.800  0.00  0.00    +0.000 C 
BRANCH  20  26
ATOM     26  C   UNL     1       9.976  13.588  18.197  0.00  0.00    +0.000 C 
ATOM     27  O   UNL     1      10.302  14.685  18.630  0.00  0.00    +0.000 OA
BRANCH  26  29
ATOM     28  C   UNL     1       7.704  14.102  17.935  0.00  0.00    +0.000 C 
ATOM     29  O   UNL     1       8.837  13.354  17.492  0.00  0.00    +0.000 OA
ENDBRANCH  26  29
ENDBRANCH  20  26
ENDBRANCH  18  24
ENDBRANCH  17  18
ENDBRANCH   1  17
TORSDOF 7
ENDMDL
MODEL 4
REMARK VINA RESULT:      -8.0      5.712      7.332
REMARK  Name = 
REMARK  8 active torsions:
REMARK  status: ('A' for Active; 'I' for Inactive)
REMARK    1  A    between atoms: C_1  and  O_2
REMARK    2  A    between atoms: O_2  and  C_3
REMARK    3  A    between atoms: C_3  and  C_5
REMARK    4  A    between atoms: C_9  and  N_10
REMARK    5  A    between atoms: N_10  and  C_11
REMARK    6  A    between atoms: C_11  and  C_12
REMARK    7  A    between atoms: C_14  and  C_15
REMARK    8  A    between atoms: C_16  and  C_17
REMARK                            x       y       z     vdW  Elec       q    Type
REMARK                         _______ _______ _______ _____ _____    ______ ____
ROOT
ATOM      1  C   UNL     1       1.645   4.974  20.445  0.00  0.00    +0.000 A 
ATOM      2  C   UNL     1       1.587   4.377  19.165  0.00  0.00    +0.000 A 
ATOM      3  C   UNL     1       2.373   3.256  19.265  0.00  0.00    +0.000 A 
ATOM      4  N   UNL     1       2.685   3.142  20.595  0.00  0.00    +0.000 N 
ATOM      5  N   UNL     1       2.280   4.191  21.329  0.00  0.00    +0.000 NA
ATOM      6  H   UNL     1       3.226   2.412  21.050  0.00  0.00    +0.000 HD
ENDROOT
BRANCH   3   7
ATOM      7  C   UNL     1       2.927   2.370  18.319  0.00  0.00    +0.000 C 
ATOM      8  C   UNL     1       3.961   2.742  17.533  0.00  0.00    +0.000 C 
BRANCH   8   9
ATOM      9  C   UNL     1       4.637   4.046  17.647  0.00  0.00    +0.000 A 
ATOM     10  C   UNL     1       4.372   5.040  16.699  0.00  0.00    +0.000 A 
ATOM     11  C   UNL     1       5.141   6.204  16.670  0.00  0.00    +0.000 A 
ATOM     12  C   UNL     1       6.175   6.387  17.592  0.00  0.00    +0.000 A 
ATOM     13 CL   UNL     1       7.145   7.808  17.438  0.00  0.00    +0.000 Cl
ATOM     14  C   UNL     1       6.407   5.421  18.577  0.00  0.00    +0.000 A 
ATOM     15 CL   UNL     1       7.651   5.593  19.764  0.00  0.00    +0.000 Cl
ATOM     16  C   UNL     1       5.636   4.253  18.606  0.00  0.00    +0.000 A 
ENDBRANCH   8   9
ENDBRANCH   3   7
BRANCH   1  17
ATOM     17  C   UNL     1       1.139   6.335  20.814  0.00  0.00    +0.000 C 
BRANCH  17  18
ATOM     18  N   UNL     1       2.201   7.354  20.740  0.00  0.00    +0.000 NA
ATOM     19  H   UNL     1       2.506   7.556  21.691  0.00  0.00    +0.000 HD
BRANCH  18  24
ATOM     20  C   UNL     1      -0.188  10.240  19.937  0.00  0.00    +0.000 C 
ATOM     21  C   UNL     1      -0.144  10.106  18.409  0.00  0.00    +0.000 C 
ATOM     22  C   UNL     1       1.248   9.754  17.897  0.00  0.00    +0.000 C 
ATOM     23  C   UNL     1       1.780   8.493  18.562  0.00  0.00    +0.000 C 
ATOM     24  C   UNL     1       1.760   8.600  20.095  0.00  0.00    +0.000 C 
ATOM     25  C   UNL     1       0.341   8.948  20.586  0.00  0.00    +0.000 C 
BRANCH  20  26
ATOM     26  C   UNL     1       0.538  11.507  20.387  0.00  0.00    +0.000 C 
ATOM     27  O   UNL     1       1.204  11.590  21.411  0.00  0.00    +0.000 OA
BRANCH  26  29
ATOM     28  C   UNL     1       0.550  13.823  20.031  0.00  0.00    +0.000 C 
ATOM     29  O   UNL     1       0.400  12.514  19.483  0.00  0.00    +0.000 OA
ENDBRANCH  26  29
ENDBRANCH  20  26
ENDBRANCH  18  24
ENDBRANCH  17  18
ENDBRANCH   1  17
TORSDOF 7
ENDMDL
MODEL 5
REMARK VINA RESULT:      -8.0      0.978      1.129
REMARK  Name = 
REMARK  8 active torsions:
REMARK  status: ('A' for Active; 'I' for Inactive)
REMARK    1  A    between atoms: C_1  and  O_2
REMARK    2  A    between atoms: O_2  and  C_3
REMARK    3  A    between atoms: C_3  and  C_5
REMARK    4  A    between atoms: C_9  and  N_10
REMARK    5  A    between atoms: N_10  and  C_11
REMARK    6  A    between atoms: C_11  and  C_12
REMARK    7  A    between atoms: C_14  and  C_15
REMARK    8  A    between atoms: C_16  and  C_17
REMARK                            x       y       z     vdW  Elec       q    Type
REMARK                         _______ _______ _______ _____ _____    ______ ____
ROOT
ATOM      1  C   UNL     1       7.943   7.081  18.517  0.00  0.00    +0.000 A 
ATOM      2  C   UNL     1       7.064   6.966  17.415  0.00  0.00    +0.000 A 
ATOM      3  C   UNL     1       6.667   5.652  17.420  0.00  0.00    +0.000 A 
ATOM      4  N   UNL     1       7.154   5.123  18.587  0.00  0.00    +0.000 N 
ATOM      5  N   UNL     1       7.958   5.963  19.258  0.00  0.00    +0.000 NA
ATOM      6  H   UNL     1       7.029   4.181  18.946  0.00  0.00    +0.000 HD
ENDROOT
BRANCH   3   7
ATOM      7  C   UNL     1       6.007   4.834  16.480  0.00  0.00    +0.000 C 
ATOM      8  C   UNL     1       4.668   4.660  16.523  0.00  0.00    +0.000 C 
BRANCH   8   9
ATOM      9  C   UNL     1       3.790   5.355  17.481  0.00  0.00    +0.000 A 
ATOM     10  C   UNL     1       3.495   6.707  17.283  0.00  0.00    +0.000 A 
ATOM     11  C   UNL     1       2.833   7.433  18.275  0.00  0.00    +0.000 A 
ATOM     12  C   UNL     1       2.453   6.810  19.467  0.00  0.00    +0.000 A 
ATOM     13 CL   UNL     1       1.722   7.790  20.686  0.00  0.00    +0.000 Cl
ATOM     14  C   UNL     1       2.696   5.443  19.645  0.00  0.00    +0.000 A 
ATOM     15 CL   UNL     1       2.232   4.603  21.082  0.00  0.00    +0.000 Cl
ATOM     16  C   UNL     1       3.361   4.716  18.651  0.00  0.00    +0.000 A 
ENDBRANCH   8   9
ENDBRANCH   3   7
BRANCH   1  17
ATOM     17  C   UNL     1       8.823   8.251  18.833  0.00  0.00    +0.000 C 
BRANCH  17  18
ATOM     18  N   UNL     1       8.353   9.484  18.177  0.00  0.00    +0.000 NA
ATOM     19  H   UNL     1       8.545   9.398  17.179  0.00  0.00    +0.000 HD
BRANCH  18  24
ATOM     20  C   UNL     1      10.957  12.292  18.303  0.00  0.00    +0.000 C 
ATOM     21  C   UNL     1      11.372  12.103  19.768  0.00  0.00    +0.000 C 
ATOM     22  C   UNL     1      10.190  11.760  20.666  0.00  0.00    +0.000 C 
ATOM     23  C   UNL     1       9.445  10.535  20.157  0.00  0.00    +0.000 C 
ATOM     24  C   UNL     1       9.005  10.697  18.694  0.00  0.00    +0.000 C 
ATOM     25  C   UNL     1      10.219  11.035  17.807  0.00  0.00    +0.000 C 
BRANCH  20  26
ATOM     26  C   UNL     1      10.167  13.588  18.129  0.00  0.00    +0.000 C 
ATOM     27  O   UNL     1       9.063  13.655  17.605  0.00  0.00    +0.000 OA
BRANCH  26  29
ATOM     28  C   UNL     1      10.685  15.867  17.945  0.00  0.00    +0.000 C 
ATOM     29  O   UNL     1      10.816  14.650  18.680  0.00  0.00    +0.000 OA
ENDBRANCH  26  29
ENDBRANCH  20  26
ENDBRANCH  18  24
ENDBRANCH  17  18
ENDBRANCH   1  17
TORSDOF 7
ENDMDL
MODEL 6
REMARK VINA RESULT:      -7.9      0.980      1.638
REMARK  Name = 
REMARK  8 active torsions:
REMARK  status: ('A' for Active; 'I' for Inactive)
REMARK    1  A    between atoms: C_1  and  O_2
REMARK    2  A    between atoms: O_2  and  C_3
REMARK    3  A    between atoms: C_3  and  C_5
REMARK    4  A    between atoms: C_9  and  N_10
REMARK    5  A    between atoms: N_10  and  C_11
REMARK    6  A    between atoms: C_11  and  C_12
REMARK    7  A    between atoms: C_14  and  C_15
REMARK    8  A    between atoms: C_16  and  C_17
REMARK                            x       y       z     vdW  Elec       q    Type
REMARK                         _______ _______ _______ _____ _____    ______ ____
ROOT
ATOM      1  C   UNL     1       7.714   7.143  18.210  0.00  0.00    +0.000 A 
ATOM      2  C   UNL     1       6.590   7.275  17.361  0.00  0.00    +0.000 A 
ATOM      3  C   UNL     1       6.261   5.989  17.013  0.00  0.00    +0.000 A 
ATOM      4  N   UNL     1       7.048   5.182  17.793  0.00  0.00    +0.000 N 
ATOM      5  N   UNL     1       7.960   5.859  18.509  0.00  0.00    +0.000 NA
ATOM      6  H   UNL     1       7.056   4.167  17.834  0.00  0.00    +0.000 HD
ENDROOT
BRANCH   3   7
ATOM      7  C   UNL     1       5.419   5.435  16.027  0.00  0.00    +0.000 C 
ATOM      8  C   UNL     1       4.360   4.667  16.363  0.00  0.00    +0.000 C 
BRANCH   8   9
ATOM      9  C   UNL     1       3.952   4.412  17.756  0.00  0.00    +0.000 A 
ATOM     10  C   UNL     1       4.186   3.153  18.318  0.00  0.00    +0.000 A 
ATOM     11  C   UNL     1       3.636   2.826  19.558  0.00  0.00    +0.000 A 
ATOM     12  C   UNL     1       2.856   3.757  20.249  0.00  0.00    +0.000 A 
ATOM     13 CL   UNL     1       2.131   3.252  21.733  0.00  0.00    +0.000 Cl
ATOM     14  C   UNL     1       2.667   5.037  19.717  0.00  0.00    +0.000 A 
ATOM     15 CL   UNL     1       1.736   6.246  20.527  0.00  0.00    +0.000 Cl
ATOM     16  C   UNL     1       3.218   5.364  18.472  0.00  0.00    +0.000 A 
ENDBRANCH   8   9
ENDBRANCH   3   7
BRANCH   1  17
ATOM     17  C   UNL     1       8.596   8.252  18.695  0.00  0.00    +0.000 C 
BRANCH  17  18
ATOM     18  N   UNL     1       8.387   9.494  17.930  0.00  0.00    +0.000 NA
ATOM     19  H   UNL     1       8.795   9.363  17.005  0.00  0.00    +0.000 HD
BRANCH  18  24
ATOM     20  C   UNL     1      10.959  12.293  18.411  0.00  0.00    +0.000 C 
ATOM     21  C   UNL     1      11.275  12.011  19.886  0.00  0.00    +0.000 C 
ATOM     22  C   UNL     1      10.038  11.608  20.679  0.00  0.00    +0.000 C 
ATOM     23  C   UNL     1       9.336  10.417  20.043  0.00  0.00    +0.000 C 
ATOM     24  C   UNL     1       8.994  10.672  18.567  0.00  0.00    +0.000 C 
ATOM     25  C   UNL     1      10.263  11.069  17.787  0.00  0.00    +0.000 C 
BRANCH  20  26
ATOM     26  C   UNL     1      10.173  13.596  18.269  0.00  0.00    +0.000 C 
ATOM     27  O   UNL     1       9.123  13.702  17.650  0.00  0.00    +0.000 OA
BRANCH  26  29
ATOM     28  C   UNL     1       9.833  15.551  19.517  0.00  0.00    +0.000 C 
ATOM     29  O   UNL     1      10.755  14.612  18.962  0.00  0.00    +0.000 OA
ENDBRANCH  26  29
ENDBRANCH  20  26
ENDBRANCH  18  24
ENDBRANCH  17  18
ENDBRANCH   1  17
TORSDOF 7
ENDMDL
MODEL 7
REMARK VINA RESULT:      -7.8      5.813      8.018
REMARK  Name = 
REMARK  8 active torsions:
REMARK  status: ('A' for Active; 'I' for Inactive)
REMARK    1  A    between atoms: C_1  and  O_2
REMARK    2  A    between atoms: O_2  and  C_3
REMARK    3  A    between atoms: C_3  and  C_5
REMARK    4  A    between atoms: C_9  and  N_10
REMARK    5  A    between atoms: N_10  and  C_11
REMARK    6  A    between atoms: C_11  and  C_12
REMARK    7  A    between atoms: C_14  and  C_15
REMARK    8  A    between atoms: C_16  and  C_17
REMARK                            x       y       z     vdW  Elec       q    Type
REMARK                         _______ _______ _______ _____ _____    ______ ____
ROOT
ATOM      1  C   UNL     1       1.981   5.997  20.076  0.00  0.00    +0.000 A 
ATOM      2  C   UNL     1       2.030   5.506  18.750  0.00  0.00    +0.000 A 
ATOM      3  C   UNL     1       2.476   4.214  18.871  0.00  0.00    +0.000 A 
ATOM      4  N   UNL     1       2.483   3.950  20.217  0.00  0.00    +0.000 N 
ATOM      5  N   UNL     1       2.214   5.027  20.972  0.00  0.00    +0.000 NA
ATOM      6  H   UNL     1       2.724   3.079  20.682  0.00  0.00    +0.000 HD
ENDROOT
BRANCH   3   7
ATOM      7  C   UNL     1       2.967   3.266  17.951  0.00  0.00    +0.000 C 
ATOM      8  C   UNL     1       4.103   3.490  17.255  0.00  0.00    +0.000 C 
BRANCH   8   9
ATOM      9  C   UNL     1       4.952   4.679  17.448  0.00  0.00    +0.000 A 
ATOM     10  C   UNL     1       4.838   5.753  16.560  0.00  0.00    +0.000 A 
ATOM     11  C   UNL     1       5.761   6.799  16.602  0.00  0.00    +0.000 A 
ATOM     12  C   UNL     1       6.799   6.783  17.538  0.00  0.00    +0.000 A 
ATOM     13 CL   UNL     1       7.958   8.062  17.472  0.00  0.00    +0.000 Cl
ATOM     14  C   UNL     1       6.883   5.738  18.465  0.00  0.00    +0.000 A 
ATOM     15 CL   UNL     1       8.125   5.667  19.665  0.00  0.00    +0.000 Cl
ATOM     16  C   UNL     1       5.958   4.689  18.421  0.00  0.00    +0.000 A 
ENDBRANCH   8   9
ENDBRANCH   3   7
BRANCH   1  17
ATOM     17  C   UNL     1       1.767   7.421  20.489  0.00  0.00    +0.000 C 
BRANCH  17  18
ATOM     18  N   UNL     1       0.685   7.547  21.481  0.00  0.00    +0.000 NA
ATOM     19  H   UNL     1       0.026   6.786  21.322  0.00  0.00    +0.000 HD
BRANCH  18  24
ATOM     20  C   UNL     1       0.065  11.152  20.339  0.00  0.00    +0.000 C 
ATOM     21  C   UNL     1      -0.113  11.767  21.734  0.00  0.00    +0.000 C 
ATOM     22  C   UNL     1      -0.872  10.846  22.682  0.00  0.00    +0.000 C 
ATOM     23  C   UNL     1      -0.208   9.481  22.778  0.00  0.00    +0.000 C 
ATOM     24  C   UNL     1      -0.027   8.832  21.397  0.00  0.00    +0.000 C 
ATOM     25  C   UNL     1       0.751   9.779  20.462  0.00  0.00    +0.000 C 
BRANCH  20  26
ATOM     26  C   UNL     1      -1.268  11.119  19.592  0.00  0.00    +0.000 C 
ATOM     27  O   UNL     1      -2.175  11.921  19.768  0.00  0.00    +0.000 OA
BRANCH  26  29
ATOM     28  C   UNL     1      -2.134  10.392  17.539  0.00  0.00    +0.000 C 
ATOM     29  O   UNL     1      -1.301  10.123  18.666  0.00  0.00    +0.000 OA
ENDBRANCH  26  29
ENDBRANCH  20  26
ENDBRANCH  18  24
ENDBRANCH  17  18
ENDBRANCH   1  17
TORSDOF 7
ENDMDL
MODEL 8
REMARK VINA RESULT:      -7.8      6.190      7.809
REMARK  Name = 
REMARK  8 active torsions:
REMARK  status: ('A' for Active; 'I' for Inactive)
REMARK    1  A    between atoms: C_1  and  O_2
REMARK    2  A    between atoms: O_2  and  C_3
REMARK    3  A    between atoms: C_3  and  C_5
REMARK    4  A    between atoms: C_9  and  N_10
REMARK    5  A    between atoms: N_10  and  C_11
REMARK    6  A    between atoms: C_11  and  C_12
REMARK    7  A    between atoms: C_14  and  C_15
REMARK    8  A    between atoms: C_16  and  C_17
REMARK                            x       y       z     vdW  Elec       q    Type
REMARK                         _______ _______ _______ _____ _____    ______ ____
ROOT
ATOM      1  C   UNL     1       1.685   4.876  20.734  0.00  0.00    +0.000 A 
ATOM      2  C   UNL     1       1.319   4.332  19.481  0.00  0.00    +0.000 A 
ATOM      3  C   UNL     1       1.718   3.019  19.540  0.00  0.00    +0.000 A 
ATOM      4  N   UNL     1       2.105   2.809  20.838  0.00  0.00    +0.000 N 
ATOM      5  N   UNL     1       2.123   3.930  21.577  0.00  0.00    +0.000 NA
ATOM      6  H   UNL     1       2.430   1.944  21.261  0.00  0.00    +0.000 HD
ENDROOT
BRANCH   3   7
ATOM      7  C   UNL     1       1.870   2.006  18.572  0.00  0.00    +0.000 C 
ATOM      8  C   UNL     1       2.902   2.022  17.700  0.00  0.00    +0.000 C 
BRANCH   8   9
ATOM      9  C   UNL     1       3.977   3.030  17.733  0.00  0.00    +0.000 A 
ATOM     10  C   UNL     1       4.717   3.203  18.907  0.00  0.00    +0.000 A 
ATOM     11  C   UNL     1       5.600   4.278  19.026  0.00  0.00    +0.000 A 
ATOM     12  C   UNL     1       5.756   5.180  17.971  0.00  0.00    +0.000 A 
ATOM     13 CL   UNL     1       6.794   6.537  18.223  0.00  0.00    +0.000 Cl
ATOM     14  C   UNL     1       5.060   4.978  16.774  0.00  0.00    +0.000 A 
ATOM     15 CL   UNL     1       5.222   6.039  15.420  0.00  0.00    +0.000 Cl
ATOM     16  C   UNL     1       4.173   3.901  16.655  0.00  0.00    +0.000 A 
ENDBRANCH   8   9
ENDBRANCH   3   7
BRANCH   1  17
ATOM     17  C   UNL     1       1.672   6.326  21.111  0.00  0.00    +0.000 C 
BRANCH  17  18
ATOM     18  N   UNL     1       2.283   7.169  20.068  0.00  0.00    +0.000 NA
ATOM     19  H   UNL     1       3.282   7.227  20.261  0.00  0.00    +0.000 HD
BRANCH  18  24
ATOM     20  C   UNL     1      -0.311   9.919  20.691  0.00  0.00    +0.000 C 
ATOM     21  C   UNL     1      -0.423  10.410  19.241  0.00  0.00    +0.000 C 
ATOM     22  C   UNL     1       0.922  10.412  18.524  0.00  0.00    +0.000 C 
ATOM     23  C   UNL     1       1.581   9.041  18.578  0.00  0.00    +0.000 C 
ATOM     24  C   UNL     1       1.718   8.526  20.019  0.00  0.00    +0.000 C 
ATOM     25  C   UNL     1       0.345   8.526  20.718  0.00  0.00    +0.000 C 
BRANCH  20  26
ATOM     26  C   UNL     1       0.398  10.959  21.558  0.00  0.00    +0.000 C 
ATOM     27  O   UNL     1       1.172  11.802  21.125  0.00  0.00    +0.000 OA
BRANCH  26  29
ATOM     28  C   UNL     1      -1.356  11.170  23.099  0.00  0.00    +0.000 C 
ATOM     29  O   UNL     1       0.020  10.869  22.862  0.00  0.00    +0.000 OA
ENDBRANCH  26  29
ENDBRANCH  20  26
ENDBRANCH  18  24
ENDBRANCH  17  18
ENDBRANCH   1  17
TORSDOF 7
ENDMDL
MODEL 9
REMARK VINA RESULT:      -7.7      1.541      1.988
REMARK  Name = 
REMARK  8 active torsions:
REMARK  status: ('A' for Active; 'I' for Inactive)
REMARK    1  A    between atoms: C_1  and  O_2
REMARK    2  A    between atoms: O_2  and  C_3
REMARK    3  A    between atoms: C_3  and  C_5
REMARK    4  A    between atoms: C_9  and  N_10
REMARK    5  A    between atoms: N_10  and  C_11
REMARK    6  A    between atoms: C_11  and  C_12
REMARK    7  A    between atoms: C_14  and  C_15
REMARK    8  A    between atoms: C_16  and  C_17
REMARK                            x       y       z     vdW  Elec       q    Type
REMARK                         _______ _______ _______ _____ _____    ______ ____
ROOT
ATOM      1  C   UNL     1       7.744   7.471  17.692  0.00  0.00    +0.000 A 
ATOM      2  C   UNL     1       7.456   6.544  18.721  0.00  0.00    +0.000 A 
ATOM      3  C   UNL     1       7.053   5.407  18.065  0.00  0.00    +0.000 A 
ATOM      4  N   UNL     1       7.298   5.640  16.737  0.00  0.00    +0.000 N 
ATOM      5  N   UNL     1       7.690   6.898  16.480  0.00  0.00    +0.000 NA
ATOM      6  H   UNL     1       7.155   5.008  15.955  0.00  0.00    +0.000 HD
ENDROOT
BRANCH   3   7
ATOM      7  C   UNL     1       6.410   4.223  18.480  0.00  0.00    +0.000 C 
ATOM      8  C   UNL     1       5.077   4.190  18.697  0.00  0.00    +0.000 C 
BRANCH   8   9
ATOM      9  C   UNL     1       4.186   5.338  18.449  0.00  0.00    +0.000 A 
ATOM     10  C   UNL     1       4.256   6.006  17.223  0.00  0.00    +0.000 A 
ATOM     11  C   UNL     1       3.570   7.207  17.039  0.00  0.00    +0.000 A 
ATOM     12  C   UNL     1       2.802   7.744  18.076  0.00  0.00    +0.000 A 
ATOM     13 CL   UNL     1       2.055   9.279  17.810  0.00  0.00    +0.000 Cl
ATOM     14  C   UNL     1       2.683   7.049  19.285  0.00  0.00    +0.000 A 
ATOM     15 CL   UNL     1       1.732   7.641  20.600  0.00  0.00    +0.000 Cl
ATOM     16  C   UNL     1       3.373   5.845  19.469  0.00  0.00    +0.000 A 
ENDBRANCH   8   9
ENDBRANCH   3   7
BRANCH   1  17
ATOM     17  C   UNL     1       8.016   8.934  17.864  0.00  0.00    +0.000 C 
BRANCH  17  18
ATOM     18  N   UNL     1       8.935   9.192  18.987  0.00  0.00    +0.000 NA
ATOM     19  H   UNL     1       8.549   8.741  19.815  0.00  0.00    +0.000 HD
BRANCH  18  24
ATOM     20  C   UNL     1      10.349  12.712  18.447  0.00  0.00    +0.000 C 
ATOM     21  C   UNL     1      10.870  12.930  19.874  0.00  0.00    +0.000 C 
ATOM     22  C   UNL     1       9.933  12.352  20.928  0.00  0.00    +0.000 C 
ATOM     23  C   UNL     1       9.660  10.877  20.676  0.00  0.00    +0.000 C 
ATOM     24  C   UNL     1       9.126  10.625  19.258  0.00  0.00    +0.000 C 
ATOM     25  C   UNL     1      10.094  11.211  18.212  0.00  0.00    +0.000 C 
BRANCH  20  26
ATOM     26  C   UNL     1       9.137  13.600  18.174  0.00  0.00    +0.000 C 
ATOM     27  O   UNL     1       8.129  13.228  17.587  0.00  0.00    +0.000 OA
BRANCH  26  29
ATOM     28  C   UNL     1       8.924  15.911  17.843  0.00  0.00    +0.000 C 
ATOM     29  O   UNL     1       9.290  14.840  18.713  0.00  0.00    +0.000 OA
ENDBRANCH  26  29
ENDBRANCH  20  26
ENDBRANCH  18  24
ENDBRANCH  17  18
ENDBRANCH   1  17
TORSDOF 7
ENDMDL
