MODEL 1
REMARK VINA RESULT:      -7.6      0.000      0.000
REMARK  Name = 
REMARK  7 active torsions:
REMARK  status: ('A' for Active; 'I' for Inactive)
REMARK    1  A    between atoms: C_1  and  C_2
REMARK    2  A    between atoms: C_2  and  O_3
REMARK    3  A    between atoms: O_3  and  C_4
REMARK    4  A    between atoms: C_4  and  C_6
REMARK    5  A    between atoms: C_8  and  S_9
REMARK    6  A    between atoms: S_9  and  C_10
REMARK    7  A    between atoms: C_10  and  C_11
REMARK                            x       y       z     vdW  Elec       q    Type
REMARK                         _______ _______ _______ _____ _____    ______ ____
ROOT
ATOM      1  C   UNL     1       2.478   6.369  19.241  0.00  0.00    +0.000 A 
ATOM      2  S   UNL     1       3.606   6.491  17.967  0.00  0.00    +0.000 S 
ATOM      3  C   UNL     1       3.672   4.793  17.705  0.00  0.00    +0.000 A 
ATOM      4  C   UNL     1       2.885   4.130  18.626  0.00  0.00    +0.000 A 
ATOM      5  C   UNL     1       2.161   5.043  19.493  0.00  0.00    +0.000 A 
ATOM      6  C   UNL     1       1.163   4.552  20.517  0.00  0.00    +0.000 C 
ATOM      7  C   UNL     1       1.203   3.027  20.709  0.00  0.00    +0.000 C 
ATOM      8  C   UNL     1       1.363   2.299  19.379  0.00  0.00    +0.000 C 
ATOM      9  C   UNL     1       2.703   2.693  18.800  0.00  0.00    +0.000 C 
ATOM     10  O   UNL     1       3.576   1.855  18.577  0.00  0.00    +0.000 OA
ENDROOT
BRANCH   1  11
ATOM     11  C   UNL     1       1.924   7.551  19.889  0.00  0.00    +0.000 C 
ATOM     12  O   UNL     1       1.536   7.593  21.052  0.00  0.00    +0.000 OA
BRANCH  11  13
ATOM     13  O   UNL     1       1.792   8.583  19.007  0.00  0.00    +0.000 OA
BRANCH  13  15
ATOM     14  C   UNL     1       0.025  10.041  18.348  0.00  0.00    +0.000 C 
ATOM     15  C   UNL     1       0.996   9.684  19.462  0.00  0.00    +0.000 C 
ENDBRANCH  13  15
ENDBRANCH  11  13
ENDBRANCH   1  11
BRANCH   3  16
ATOM     16  S   UNL     1       4.697   4.242  16.387  0.00  0.00    +0.000 S 
BRANCH  16  17
ATOM     17  C   UNL     1       6.387   4.168  17.001  0.00  0.00    +0.000 C 
BRANCH  17  18
ATOM     18  C   UNL     1       7.089   5.449  17.398  0.00  0.00    +0.000 A 
ATOM     19  C   UNL     1       7.031   6.627  16.639  0.00  0.00    +0.000 A 
ATOM     20  C   UNL     1       7.601   7.813  17.119  0.00  0.00    +0.000 A 
ATOM     21  C   UNL     1       8.214   7.838  18.369  0.00  0.00    +0.000 A 
ATOM     22 CL   UNL     1       8.882   9.306  18.970  0.00  0.00    +0.000 Cl
ATOM     23  C   UNL     1       8.271   6.684  19.144  0.00  0.00    +0.000 A 
ATOM     24  C   UNL     1       7.712   5.499  18.659  0.00  0.00    +0.000 A 
ENDBRANCH  17  18
ENDBRANCH  16  17
ENDBRANCH   3  16
TORSDOF 6
ENDMDL
MODEL 2
REMARK VINA RESULT:      -7.3      3.307      6.597
REMARK  Name = 
REMARK  7 active torsions:
REMARK  status: ('A' for Active; 'I' for Inactive)
REMARK    1  A    between atoms: C_1  and  C_2
REMARK    2  A    between atoms: C_2  and  O_3
REMARK    3  A    between atoms: O_3  and  C_4
REMARK    4  A    between atoms: C_4  and  C_6
REMARK    5  A    between atoms: C_8  and  S_9
REMARK    6  A    between atoms: S_9  and  C_10
REMARK    7  A    between atoms: C_10  and  C_11
REMARK                            x       y       z     vdW  Elec       q    Type
REMARK                         _______ _______ _______ _____ _____    ______ ____
ROOT
ATOM      1  C   UNL     1       5.586   4.938  17.545  0.00  0.00    +0.000 A 
ATOM      2  S   UNL     1       5.177   6.583  17.736  0.00  0.00    +0.000 S 
ATOM      3  C   UNL     1       3.502   6.263  17.953  0.00  0.00    +0.000 A 
ATOM      4  C   UNL     1       3.245   4.913  17.819  0.00  0.00    +0.000 A 
ATOM      5  C   UNL     1       4.457   4.137  17.620  0.00  0.00    +0.000 A 
ATOM      6  C   UNL     1       4.437   2.628  17.544  0.00  0.00    +0.000 C 
ATOM      7  C   UNL     1       3.015   2.053  17.434  0.00  0.00    +0.000 C 
ATOM      8  C   UNL     1       2.040   2.790  18.346  0.00  0.00    +0.000 C 
ATOM      9  C   UNL     1       1.962   4.223  17.867  0.00  0.00    +0.000 C 
ATOM     10  O   UNL     1       0.899   4.712  17.483  0.00  0.00    +0.000 OA
ENDROOT
BRANCH   1  11
ATOM     11  C   UNL     1       6.969   4.506  17.385  0.00  0.00    +0.000 C 
ATOM     12  O   UNL     1       7.839   4.619  18.243  0.00  0.00    +0.000 OA
BRANCH  11  13
ATOM     13  O   UNL     1       7.205   4.055  16.119  0.00  0.00    +0.000 OA
BRANCH  13  15
ATOM     14  C   UNL     1       6.082   4.126  14.018  0.00  0.00    +0.000 C 
ATOM     15  C   UNL     1       6.818   4.946  15.066  0.00  0.00    +0.000 C 
ENDBRANCH  13  15
ENDBRANCH  11  13
ENDBRANCH   1  11
BRANCH   3  16
ATOM     16  S   UNL     1       2.473   7.653  18.272  0.00  0.00    +0.000 S 
BRANCH  16  17
ATOM     17  C   UNL     1       1.910   7.539  19.978  0.00  0.00    +0.000 C 
BRANCH  17  18
ATOM     18  C   UNL     1       1.161   8.702  20.591  0.00  0.00    +0.000 A 
ATOM     19  C   UNL     1       0.492   9.675  19.833  0.00  0.00    +0.000 A 
ATOM     20  C   UNL     1      -0.283  10.659  20.460  0.00  0.00    +0.000 A 
ATOM     21  C   UNL     1      -0.417  10.665  21.846  0.00  0.00    +0.000 A 
ATOM     22 CL   UNL     1      -1.399  11.854  22.609  0.00  0.00    +0.000 Cl
ATOM     23  C   UNL     1       0.227   9.702  22.616  0.00  0.00    +0.000 A 
ATOM     24  C   UNL     1       1.010   8.729  21.990  0.00  0.00    +0.000 A 
ENDBRANCH  17  18
ENDBRANCH  16  17
ENDBRANCH   3  16
TORSDOF 6
ENDMDL
MODEL 3
REMARK VINA RESULT:      -7.3      0.512      1.122
REMARK  Name = 
REMARK  7 active torsions:
REMARK  status: ('A' for Active; 'I' for Inactive)
REMARK    1  A    between atoms: C_1  and  C_2
REMARK    2  A    between atoms: C_2  and  O_3
REMARK    3  A    between atoms: O_3  and  C_4
REMARK    4  A    between atoms: C_4  and  C_6
REMARK    5  A    between atoms: C_8  and  S_9
REMARK    6  A    between atoms: S_9  and  C_10
REMARK    7  A    between atoms: C_10  and  C_11
REMARK                            x       y       z     vdW  Elec       q    Type
REMARK                         _______ _______ _______ _____ _____    ______ ____
ROOT
ATOM      1  C   UNL     1       2.609   6.563  19.110  0.00  0.00    +0.000 A 
ATOM      2  S   UNL     1       3.651   6.551  17.759  0.00  0.00    +0.000 S 
ATOM      3  C   UNL     1       3.821   4.841  17.756  0.00  0.00    +0.000 A 
ATOM      4  C   UNL     1       3.136   4.284  18.817  0.00  0.00    +0.000 A 
ATOM      5  C   UNL     1       2.400   5.277  19.582  0.00  0.00    +0.000 A 
ATOM      6  C   UNL     1       1.499   4.892  20.733  0.00  0.00    +0.000 C 
ATOM      7  C   UNL     1       1.656   3.422  21.152  0.00  0.00    +0.000 C 
ATOM      8  C   UNL     1       1.791   2.505  19.941  0.00  0.00    +0.000 C 
ATOM      9  C   UNL     1       3.065   2.884  19.220  0.00  0.00    +0.000 C 
ATOM     10  O   UNL     1       3.981   2.075  19.070  0.00  0.00    +0.000 OA
ENDROOT
BRANCH   1  11
ATOM     11  C   UNL     1       2.012   7.796  19.606  0.00  0.00    +0.000 C 
ATOM     12  O   UNL     1       1.445   7.913  20.687  0.00  0.00    +0.000 OA
BRANCH  11  13
ATOM     13  O   UNL     1       2.068   8.786  18.668  0.00  0.00    +0.000 OA
BRANCH  13  15
ATOM     14  C   UNL     1       1.182  10.979  18.961  0.00  0.00    +0.000 C 
ATOM     15  C   UNL     1       0.871   9.559  18.515  0.00  0.00    +0.000 C 
ENDBRANCH  13  15
ENDBRANCH  11  13
ENDBRANCH   1  11
BRANCH   3  16
ATOM     16  S   UNL     1       4.805   4.153  16.472  0.00  0.00    +0.000 S 
BRANCH  16  17
ATOM     17  C   UNL     1       6.525   4.232  16.997  0.00  0.00    +0.000 C 
BRANCH  17  18
ATOM     18  C   UNL     1       7.065   5.521  17.578  0.00  0.00    +0.000 A 
ATOM     19  C   UNL     1       7.762   5.587  18.793  0.00  0.00    +0.000 A 
ATOM     20  C   UNL     1       8.341   6.790  19.219  0.00  0.00    +0.000 A 
ATOM     21  C   UNL     1       8.249   7.929  18.424  0.00  0.00    +0.000 A 
ATOM     22 CL   UNL     1       8.992   9.395  18.934  0.00  0.00    +0.000 Cl
ATOM     23  C   UNL     1       7.574   7.882  17.209  0.00  0.00    +0.000 A 
ATOM     24  C   UNL     1       6.987   6.685  16.791  0.00  0.00    +0.000 A 
ENDBRANCH  17  18
ENDBRANCH  16  17
ENDBRANCH   3  16
TORSDOF 6
ENDMDL
MODEL 4
REMARK VINA RESULT:      -7.2      0.822      1.562
REMARK  Name = 
REMARK  7 active torsions:
REMARK  status: ('A' for Active; 'I' for Inactive)
REMARK    1  A    between atoms: C_1  and  C_2
REMARK    2  A    between atoms: C_2  and  O_3
REMARK    3  A    between atoms: O_3  and  C_4
REMARK    4  A    between atoms: C_4  and  C_6
REMARK    5  A    between atoms: C_8  and  S_9
REMARK    6  A    between atoms: S_9  and  C_10
REMARK    7  A    between atoms: C_10  and  C_11
REMARK                            x       y       z     vdW  Elec       q    Type
REMARK                         _______ _______ _______ _____ _____    ______ ____
ROOT
ATOM      1  C   UNL     1       2.516   6.502  19.052  0.00  0.00    +0.000 A 
ATOM      2  S   UNL     1       3.666   6.533  17.791  0.00  0.00    +0.000 S 
ATOM      3  C   UNL     1       3.768   4.820  17.684  0.00  0.00    +0.000 A 
ATOM      4  C   UNL     1       2.976   4.226  18.646  0.00  0.00    +0.000 A 
ATOM      5  C   UNL     1       2.219   5.199  19.416  0.00  0.00    +0.000 A 
ATOM      6  C   UNL     1       1.212   4.780  20.462  0.00  0.00    +0.000 C 
ATOM      7  C   UNL     1       1.276   3.280  20.790  0.00  0.00    +0.000 C 
ATOM      8  C   UNL     1       1.475   2.439  19.534  0.00  0.00    +0.000 C 
ATOM      9  C   UNL     1       2.818   2.807  18.945  0.00  0.00    +0.000 C 
ATOM     10  O   UNL     1       3.711   1.970  18.813  0.00  0.00    +0.000 OA
ENDROOT
BRANCH   1  11
ATOM     11  C   UNL     1       1.929   7.726  19.582  0.00  0.00    +0.000 C 
ATOM     12  O   UNL     1       1.717   8.740  18.925  0.00  0.00    +0.000 OA
BRANCH  11  13
ATOM     13  O   UNL     1       1.738   7.640  20.930  0.00  0.00    +0.000 OA
BRANCH  13  15
ATOM     14  C   UNL     1       1.047   9.371  22.416  0.00  0.00    +0.000 C 
ATOM     15  C   UNL     1       0.577   8.313  21.432  0.00  0.00    +0.000 C 
ENDBRANCH  13  15
ENDBRANCH  11  13
ENDBRANCH   1  11
BRANCH   3  16
ATOM     16  S   UNL     1       4.828   4.174  16.438  0.00  0.00    +0.000 S 
BRANCH  16  17
ATOM     17  C   UNL     1       6.513   4.228  17.070  0.00  0.00    +0.000 C 
BRANCH  17  18
ATOM     18  C   UNL     1       7.056   5.526  17.626  0.00  0.00    +0.000 A 
ATOM     19  C   UNL     1       7.730   5.618  18.853  0.00  0.00    +0.000 A 
ATOM     20  C   UNL     1       8.314   6.825  19.257  0.00  0.00    +0.000 A 
ATOM     21  C   UNL     1       8.250   7.944  18.430  0.00  0.00    +0.000 A 
ATOM     22 CL   UNL     1       8.999   9.415  18.916  0.00  0.00    +0.000 Cl
ATOM     23  C   UNL     1       7.598   7.872  17.204  0.00  0.00    +0.000 A 
ATOM     24  C   UNL     1       7.005   6.670  16.807  0.00  0.00    +0.000 A 
ENDBRANCH  17  18
ENDBRANCH  16  17
ENDBRANCH   3  16
TORSDOF 6
ENDMDL
MODEL 5
REMARK VINA RESULT:      -7.2      3.553      6.822
REMARK  Name = 
REMARK  7 active torsions:
REMARK  status: ('A' for Active; 'I' for Inactive)
REMARK    1  A    between atoms: C_1  and  C_2
REMARK    2  A    between atoms: C_2  and  O_3
REMARK    3  A    between atoms: O_3  and  C_4
REMARK    4  A    between atoms: C_4  and  C_6
REMARK    5  A    between atoms: C_8  and  S_9
REMARK    6  A    between atoms: S_9  and  C_10
REMARK    7  A    between atoms: C_10  and  C_11
REMARK                            x       y       z     vdW  Elec       q    Type
REMARK                         _______ _______ _______ _____ _____    ______ ____
ROOT
ATOM      1  C   UNL     1       4.173   6.020  17.383  0.00  0.00    +0.000 A 
ATOM      2  S   UNL     1       3.532   7.315  18.290  0.00  0.00    +0.000 S 
ATOM      3  C   UNL     1       2.545   6.300  19.264  0.00  0.00    +0.000 A 
ATOM      4  C   UNL     1       2.656   4.984  18.860  0.00  0.00    +0.000 A 
ATOM      5  C   UNL     1       3.629   4.814  17.794  0.00  0.00    +0.000 A 
ATOM      6  C   UNL     1       3.992   3.449  17.254  0.00  0.00    +0.000 C 
ATOM      7  C   UNL     1       3.055   2.338  17.755  0.00  0.00    +0.000 C 
ATOM      8  C   UNL     1       2.714   2.515  19.230  0.00  0.00    +0.000 C 
ATOM      9  C   UNL     1       1.951   3.814  19.370  0.00  0.00    +0.000 C 
ATOM     10  O   UNL     1       0.802   3.838  19.811  0.00  0.00    +0.000 OA
ENDROOT
BRANCH   1  11
ATOM     11  C   UNL     1       5.197   6.229  16.367  0.00  0.00    +0.000 C 
ATOM     12  O   UNL     1       4.996   6.734  15.267  0.00  0.00    +0.000 OA
BRANCH  11  13
ATOM     13  O   UNL     1       6.393   5.696  16.751  0.00  0.00    +0.000 OA
BRANCH  13  15
ATOM     14  C   UNL     1       7.665   5.989  18.745  0.00  0.00    +0.000 C 
ATOM     15  C   UNL     1       7.289   6.602  17.406  0.00  0.00    +0.000 C 
ENDBRANCH  13  15
ENDBRANCH  11  13
ENDBRANCH   1  11
BRANCH   3  16
ATOM     16  S   UNL     1       1.608   7.092  20.523  0.00  0.00    +0.000 S 
BRANCH  16  17
ATOM     17  C   UNL     1       1.327   8.794  20.010  0.00  0.00    +0.000 C 
BRANCH  17  18
ATOM     18  C   UNL     1       0.496   9.707  20.886  0.00  0.00    +0.000 A 
ATOM     19  C   UNL     1      -0.079  10.901  20.428  0.00  0.00    +0.000 A 
ATOM     20  C   UNL     1      -0.937  11.641  21.253  0.00  0.00    +0.000 A 
ATOM     21  C   UNL     1      -1.245  11.182  22.531  0.00  0.00    +0.000 A 
ATOM     22 CL   UNL     1      -2.326  12.076  23.527  0.00  0.00    +0.000 Cl
ATOM     23  C   UNL     1      -0.695   9.994  23.000  0.00  0.00    +0.000 A 
ATOM     24  C   UNL     1       0.169   9.263  22.181  0.00  0.00    +0.000 A 
ENDBRANCH  17  18
ENDBRANCH  16  17
ENDBRANCH   3  16
TORSDOF 6
ENDMDL
MODEL 6
REMARK VINA RESULT:      -7.2      3.497      6.789
REMARK  Name = 
REMARK  7 active torsions:
REMARK  status: ('A' for Active; 'I' for Inactive)
REMARK    1  A    between atoms: C_1  and  C_2
REMARK    2  A    between atoms: C_2  and  O_3
REMARK    3  A    between atoms: O_3  and  C_4
REMARK    4  A    between atoms: C_4  and  C_6
REMARK    5  A    between atoms: C_8  and  S_9
REMARK    6  A    between atoms: S_9  and  C_10
REMARK    7  A    between atoms: C_10  and  C_11
REMARK                            x       y       z     vdW  Elec       q    Type
REMARK                         _______ _______ _______ _____ _____    ______ ____
ROOT
ATOM      1  C   UNL     1       4.215   5.837  17.455  0.00  0.00    +0.000 A 
ATOM      2  S   UNL     1       3.548   7.105  18.382  0.00  0.00    +0.000 S 
ATOM      3  C   UNL     1       2.552   6.058  19.313  0.00  0.00    +0.000 A 
ATOM      4  C   UNL     1       2.680   4.754  18.878  0.00  0.00    +0.000 A 
ATOM      5  C   UNL     1       3.673   4.617  17.826  0.00  0.00    +0.000 A 
ATOM      6  C   UNL     1       4.055   3.269  17.258  0.00  0.00    +0.000 C 
ATOM      7  C   UNL     1       3.118   2.140  17.714  0.00  0.00    +0.000 C 
ATOM      8  C   UNL     1       2.749   2.277  19.187  0.00  0.00    +0.000 C 
ATOM      9  C   UNL     1       1.975   3.566  19.346  0.00  0.00    +0.000 C 
ATOM     10  O   UNL     1       0.818   3.571  19.766  0.00  0.00    +0.000 OA
ENDROOT
BRANCH   1  11
ATOM     11  C   UNL     1       5.255   6.079  16.463  0.00  0.00    +0.000 C 
ATOM     12  O   UNL     1       5.071   6.609  15.373  0.00  0.00    +0.000 OA
BRANCH  11  13
ATOM     13  O   UNL     1       6.448   5.546  16.856  0.00  0.00    +0.000 OA
BRANCH  13  15
ATOM     14  C   UNL     1       7.623   7.512  17.518  0.00  0.00    +0.000 C 
ATOM     15  C   UNL     1       7.063   6.178  17.986  0.00  0.00    +0.000 C 
ENDBRANCH  13  15
ENDBRANCH  11  13
ENDBRANCH   1  11
BRANCH   3  16
ATOM     16  S   UNL     1       1.586   6.812  20.574  0.00  0.00    +0.000 S 
BRANCH  16  17
ATOM     17  C   UNL     1       1.403   8.553  20.158  0.00  0.00    +0.000 C 
BRANCH  17  18
ATOM     18  C   UNL     1       0.454   9.413  20.965  0.00  0.00    +0.000 A 
ATOM     19  C   UNL     1       0.175   9.190  22.321  0.00  0.00    +0.000 A 
ATOM     20  C   UNL     1      -0.618  10.091  23.044  0.00  0.00    +0.000 A 
ATOM     21  C   UNL     1      -1.117  11.234  22.425  0.00  0.00    +0.000 A 
ATOM     22 CL   UNL     1      -2.061  12.356  23.326  0.00  0.00    +0.000 Cl
ATOM     23  C   UNL     1      -0.842  11.481  21.085  0.00  0.00    +0.000 A 
ATOM     24  C   UNL     1      -0.061  10.576  20.362  0.00  0.00    +0.000 A 
ENDBRANCH  17  18
ENDBRANCH  16  17
ENDBRANCH   3  16
TORSDOF 6
ENDMDL
MODEL 7
REMARK VINA RESULT:      -7.2      4.164      6.826
REMARK  Name = 
REMARK  7 active torsions:
REMARK  status: ('A' for Active; 'I' for Inactive)
REMARK    1  A    between atoms: C_1  and  C_2
REMARK    2  A    between atoms: C_2  and  O_3
REMARK    3  A    between atoms: O_3  and  C_4
REMARK    4  A    between atoms: C_4  and  C_6
REMARK    5  A    between atoms: C_8  and  S_9
REMARK    6  A    between atoms: S_9  and  C_10
REMARK    7  A    between atoms: C_10  and  C_11
REMARK                            x       y       z     vdW  Elec       q    Type
REMARK                         _______ _______ _______ _____ _____    ______ ____
ROOT
ATOM      1  C   UNL     1      -0.378  11.338  19.098  0.00  0.00    +0.000 A 
ATOM      2  S   UNL     1       0.599   9.998  18.693  0.00  0.00    +0.000 S 
ATOM      3  C   UNL     1       0.677   9.418  20.309  0.00  0.00    +0.000 A 
ATOM      4  C   UNL     1       0.013  10.274  21.164  0.00  0.00    +0.000 A 
ATOM      5  C   UNL     1      -0.633  11.368  20.460  0.00  0.00    +0.000 A 
ATOM      6  C   UNL     1      -1.499  12.379  21.176  0.00  0.00    +0.000 C 
ATOM      7  C   UNL     1      -1.400  12.276  22.706  0.00  0.00    +0.000 C 
ATOM      8  C   UNL     1      -1.371  10.824  23.169  0.00  0.00    +0.000 C 
ATOM      9  C   UNL     1      -0.113  10.193  22.615  0.00  0.00    +0.000 C 
ATOM     10  O   UNL     1       0.751   9.727  23.358  0.00  0.00    +0.000 OA
ENDROOT
BRANCH   1  11
ATOM     11  C   UNL     1      -0.886  12.250  18.081  0.00  0.00    +0.000 C 
ATOM     12  O   UNL     1      -0.616  13.445  18.017  0.00  0.00    +0.000 OA
BRANCH  11  13
ATOM     13  O   UNL     1      -1.787  11.630  17.265  0.00  0.00    +0.000 OA
BRANCH  13  15
ATOM     14  C   UNL     1      -3.506  10.012  17.596  0.00  0.00    +0.000 C 
ATOM     15  C   UNL     1      -3.100  11.461  17.814  0.00  0.00    +0.000 C 
ENDBRANCH  13  15
ENDBRANCH  11  13
ENDBRANCH   1  11
BRANCH   3  16
ATOM     16  S   UNL     1       1.564   7.920  20.562  0.00  0.00    +0.000 S 
BRANCH  16  17
ATOM     17  C   UNL     1       2.415   7.521  19.027  0.00  0.00    +0.000 C 
BRANCH  17  18
ATOM     18  C   UNL     1       2.800   6.085  18.744  0.00  0.00    +0.000 A 
ATOM     19  C   UNL     1       3.994   5.503  19.197  0.00  0.00    +0.000 A 
ATOM     20  C   UNL     1       4.239   4.137  19.006  0.00  0.00    +0.000 A 
ATOM     21  C   UNL     1       3.285   3.337  18.383  0.00  0.00    +0.000 A 
ATOM     22 CL   UNL     1       3.575   1.653  18.182  0.00  0.00    +0.000 Cl
ATOM     23  C   UNL     1       2.089   3.890  17.938  0.00  0.00    +0.000 A 
ATOM     24  C   UNL     1       1.851   5.256  18.118  0.00  0.00    +0.000 A 
ENDBRANCH  17  18
ENDBRANCH  16  17
ENDBRANCH   3  16
TORSDOF 6
ENDMDL
MODEL 8
REMARK VINA RESULT:      -7.1      3.445      6.784
REMARK  Name = 
REMARK  7 active torsions:
REMARK  status: ('A' for Active; 'I' for Inactive)
REMARK    1  A    between atoms: C_1  and  C_2
REMARK    2  A    between atoms: C_2  and  O_3
REMARK    3  A    between atoms: O_3  and  C_4
REMARK    4  A    between atoms: C_4  and  C_6
REMARK    5  A    between atoms: C_8  and  S_9
REMARK    6  A    between atoms: S_9  and  C_10
REMARK    7  A    between atoms: C_10  and  C_11
REMARK                            x       y       z     vdW  Elec       q    Type
REMARK                         _______ _______ _______ _____ _____    ______ ____
ROOT
ATOM      1  C   UNL     1       5.397   5.429  16.737  0.00  0.00    +0.000 A 
ATOM      2  S   UNL     1       4.855   7.036  16.927  0.00  0.00    +0.000 S 
ATOM      3  C   UNL     1       3.410   6.577  17.736  0.00  0.00    +0.000 A 
ATOM      4  C   UNL     1       3.310   5.202  17.808  0.00  0.00    +0.000 A 
ATOM      5  C   UNL     1       4.480   4.534  17.264  0.00  0.00    +0.000 A 
ATOM      6  C   UNL     1       4.641   3.032  17.320  0.00  0.00    +0.000 C 
ATOM      7  C   UNL     1       3.358   2.308  17.757  0.00  0.00    +0.000 C 
ATOM      8  C   UNL     1       2.653   3.049  18.889  0.00  0.00    +0.000 C 
ATOM      9  C   UNL     1       2.224   4.397  18.354  0.00  0.00    +0.000 C 
ATOM     10  O   UNL     1       1.038   4.726  18.326  0.00  0.00    +0.000 OA
ENDROOT
BRANCH   1  11
ATOM     11  C   UNL     1       6.692   5.123  16.142  0.00  0.00    +0.000 C 
ATOM     12  O   UNL     1       7.663   4.700  16.762  0.00  0.00    +0.000 OA
BRANCH  11  13
ATOM     13  O   UNL     1       6.725   5.467  14.822  0.00  0.00    +0.000 OA
BRANCH  13  15
ATOM     14  C   UNL     1       5.824   3.804  13.371  0.00  0.00    +0.000 C 
ATOM     15  C   UNL     1       7.101   4.418  13.922  0.00  0.00    +0.000 C 
ENDBRANCH  13  15
ENDBRANCH  11  13
ENDBRANCH   1  11
BRANCH   3  16
ATOM     16  S   UNL     1       2.367   7.885  18.280  0.00  0.00    +0.000 S 
BRANCH  16  17
ATOM     17  C   UNL     1       2.042   7.634  20.033  0.00  0.00    +0.000 C 
BRANCH  17  18
ATOM     18  C   UNL     1       1.135   8.599  20.765  0.00  0.00    +0.000 A 
ATOM     19  C   UNL     1       0.946   8.578  22.155  0.00  0.00    +0.000 A 
ATOM     20  C   UNL     1       0.188   9.572  22.787  0.00  0.00    +0.000 A 
ATOM     21  C   UNL     1      -0.367  10.608  22.040  0.00  0.00    +0.000 A 
ATOM     22 CL   UNL     1      -1.268  11.846  22.826  0.00  0.00    +0.000 Cl
ATOM     23  C   UNL     1      -0.182  10.655  20.663  0.00  0.00    +0.000 A 
ATOM     24  C   UNL     1       0.564   9.657  20.032  0.00  0.00    +0.000 A 
ENDBRANCH  17  18
ENDBRANCH  16  17
ENDBRANCH   3  16
TORSDOF 6
ENDMDL
MODEL 9
REMARK VINA RESULT:      -7.1      3.585      6.850
REMARK  Name = 
REMARK  7 active torsions:
REMARK  status: ('A' for Active; 'I' for Inactive)
REMARK    1  A    between atoms: C_1  and  C_2
REMARK    2  A    between atoms: C_2  and  O_3
REMARK    3  A    between atoms: O_3  and  C_4
REMARK    4  A    between atoms: C_4  and  C_6
REMARK    5  A    between atoms: C_8  and  S_9
REMARK    6  A    between atoms: S_9  and  C_10
REMARK    7  A    between atoms: C_10  and  C_11
REMARK                            x       y       z     vdW  Elec       q    Type
REMARK                         _______ _______ _______ _____ _____    ______ ____
ROOT
ATOM      1  C   UNL     1       4.126   5.768  17.334  0.00  0.00    +0.000 A 
ATOM      2  S   UNL     1       3.505   7.066  18.251  0.00  0.00    +0.000 S 
ATOM      3  C   UNL     1       2.529   6.055  19.241  0.00  0.00    +0.000 A 
ATOM      4  C   UNL     1       2.628   4.739  18.835  0.00  0.00    +0.000 A 
ATOM      5  C   UNL     1       3.583   4.564  17.754  0.00  0.00    +0.000 A 
ATOM      6  C   UNL     1       3.931   3.198  17.208  0.00  0.00    +0.000 C 
ATOM      7  C   UNL     1       2.998   2.091  17.725  0.00  0.00    +0.000 C 
ATOM      8  C   UNL     1       2.681   2.270  19.205  0.00  0.00    +0.000 C 
ATOM      9  C   UNL     1       1.926   3.572  19.357  0.00  0.00    +0.000 C 
ATOM     10  O   UNL     1       0.784   3.601  19.816  0.00  0.00    +0.000 OA
ENDROOT
BRANCH   1  11
ATOM     11  C   UNL     1       5.134   5.973  16.302  0.00  0.00    +0.000 C 
ATOM     12  O   UNL     1       5.013   6.735  15.349  0.00  0.00    +0.000 OA
BRANCH  11  13
ATOM     13  O   UNL     1       6.193   5.128  16.469  0.00  0.00    +0.000 OA
BRANCH  13  15
ATOM     14  C   UNL     1       6.222   3.877  14.440  0.00  0.00    +0.000 C 
ATOM     15  C   UNL     1       6.977   4.883  15.295  0.00  0.00    +0.000 C 
ENDBRANCH  13  15
ENDBRANCH  11  13
ENDBRANCH   1  11
BRANCH   3  16
ATOM     16  S   UNL     1       1.615   6.852  20.515  0.00  0.00    +0.000 S 
BRANCH  16  17
ATOM     17  C   UNL     1       1.616   8.618  20.168  0.00  0.00    +0.000 C 
BRANCH  17  18
ATOM     18  C   UNL     1       0.728   9.534  20.982  0.00  0.00    +0.000 A 
ATOM     19  C   UNL     1       0.047  10.632  20.437  0.00  0.00    +0.000 A 
ATOM     20  C   UNL     1      -0.854  11.371  21.215  0.00  0.00    +0.000 A 
ATOM     21  C   UNL     1      -1.099  11.005  22.536  0.00  0.00    +0.000 A 
ATOM     22 CL   UNL     1      -2.232  11.893  23.477  0.00  0.00    +0.000 Cl
ATOM     23  C   UNL     1      -0.444   9.911  23.092  0.00  0.00    +0.000 A 
ATOM     24  C   UNL     1       0.463   9.183  22.319  0.00  0.00    +0.000 A 
ENDBRANCH  17  18
ENDBRANCH  16  17
ENDBRANCH   3  16
TORSDOF 6
ENDMDL
