MODEL 1
REMARK VINA RESULT:      -7.9      0.000      0.000
REMARK  Name = 
REMARK  2 active torsions:
REMARK  status: ('A' for Active; 'I' for Inactive)
REMARK    1  A    between atoms: C_2  and  O_3
REMARK    2  A    between atoms: C_2  and  C_4
REMARK                            x       y       z     vdW  Elec       q    Type
REMARK                         _______ _______ _______ _____ _____    ______ ____
ROOT
ATOM      1  C   UNL     1       0.962   9.662  19.089  0.00  0.00    +0.000 A 
ATOM      2  C   UNL     1       1.601   9.495  17.856  0.00  0.00    +0.000 A 
ATOM      3  C   UNL     1       2.427   8.390  17.646  0.00  0.00    +0.000 A 
ATOM      4  C   UNL     1       2.587   7.440  18.660  0.00  0.00    +0.000 A 
ATOM      5  C   UNL     1       1.970   7.605  19.905  0.00  0.00    +0.000 A 
ATOM      6  C   UNL     1       1.146   8.720  20.113  0.00  0.00    +0.000 A 
ATOM      7  C   UNL     1       2.145   6.563  20.970  0.00  0.00    +0.000 C 
ATOM      8  C   UNL     1       1.360   5.306  20.611  0.00  0.00    +0.000 C 
ATOM      9  C   UNL     1       1.851   4.488  19.439  0.00  0.00    +0.000 A 
ATOM     10  C   UNL     1       1.303   3.197  19.318  0.00  0.00    +0.000 A 
ATOM     11  F   UNL     1       0.386   2.787  20.208  0.00  0.00    +0.000 F 
ATOM     12  C   UNL     1       1.672   2.317  18.305  0.00  0.00    +0.000 A 
ATOM     13  C   UNL     1       2.624   2.709  17.374  0.00  0.00    +0.000 A 
ATOM     14  C   UNL     1       3.180   3.985  17.460  0.00  0.00    +0.000 A 
ATOM     15  C   UNL     1       2.788   4.886  18.470  0.00  0.00    +0.000 A 
ATOM     16  C   UNL     1       3.393   6.242  18.371  0.00  0.00    +0.000 C 
ATOM     17  O   UNL     1       4.535   6.390  17.938  0.00  0.00    +0.000 OA
ENDROOT
BRANCH   1  19
ATOM     18  O   UNL     1      -0.686  10.942  20.223  0.00  0.00    +0.000 OA
ATOM     19  C   UNL     1       0.041  10.811  19.255  0.00  0.00    +0.000 C 
BRANCH  19  20
ATOM     20  O   UNL     1       0.074  11.679  18.224  0.00  0.00    +0.000 OA
ATOM     21  H   UNL     1       0.928  12.134  18.098  0.00  0.00    +0.000 HD
ENDBRANCH  19  20
ENDBRANCH   1  19
TORSDOF 2
ENDMDL
MODEL 2
REMARK VINA RESULT:      -7.4      4.023      6.030
REMARK  Name = 
REMARK  2 active torsions:
REMARK  status: ('A' for Active; 'I' for Inactive)
REMARK    1  A    between atoms: C_2  and  O_3
REMARK    2  A    between atoms: C_2  and  C_4
REMARK                            x       y       z     vdW  Elec       q    Type
REMARK                         _______ _______ _______ _____ _____    ______ ____
ROOT
ATOM      1  C   UNL     1       6.588   4.950  15.132  0.00  0.00    +0.000 A 
ATOM      2  C   UNL     1       7.357   4.275  16.085  0.00  0.00    +0.000 A 
ATOM      3  C   UNL     1       6.947   4.251  17.418  0.00  0.00    +0.000 A 
ATOM      4  C   UNL     1       5.752   4.879  17.788  0.00  0.00    +0.000 A 
ATOM      5  C   UNL     1       4.984   5.576  16.849  0.00  0.00    +0.000 A 
ATOM      6  C   UNL     1       5.404   5.601  15.512  0.00  0.00    +0.000 A 
ATOM      7  C   UNL     1       3.699   6.226  17.270  0.00  0.00    +0.000 C 
ATOM      8  C   UNL     1       2.635   5.166  17.536  0.00  0.00    +0.000 C 
ATOM      9  C   UNL     1       2.822   4.279  18.744  0.00  0.00    +0.000 A 
ATOM     10  C   UNL     1       1.698   3.527  19.134  0.00  0.00    +0.000 A 
ATOM     11  F   UNL     1       0.566   3.620  18.421  0.00  0.00    +0.000 F 
ATOM     12  C   UNL     1       1.707   2.682  20.240  0.00  0.00    +0.000 A 
ATOM     13  C   UNL     1       2.860   2.570  21.004  0.00  0.00    +0.000 A 
ATOM     14  C   UNL     1       3.995   3.294  20.639  0.00  0.00    +0.000 A 
ATOM     15  C   UNL     1       3.995   4.131  19.505  0.00  0.00    +0.000 A 
ATOM     16  C   UNL     1       5.307   4.757  19.186  0.00  0.00    +0.000 C 
ATOM     17  O   UNL     1       6.084   5.075  20.084  0.00  0.00    +0.000 OA
ENDROOT
BRANCH   1  19
ATOM     18  O   UNL     1       6.470   4.200  12.881  0.00  0.00    +0.000 OA
ATOM     19  C   UNL     1       7.018   4.899  13.714  0.00  0.00    +0.000 C 
BRANCH  19  20
ATOM     20  O   UNL     1       8.082   5.683  13.447  0.00  0.00    +0.000 OA
ATOM     21  H   UNL     1       8.900   5.202  13.221  0.00  0.00    +0.000 HD
ENDBRANCH  19  20
ENDBRANCH   1  19
TORSDOF 2
ENDMDL
MODEL 3
REMARK VINA RESULT:      -7.1      3.067      5.723
REMARK  Name = 
REMARK  2 active torsions:
REMARK  status: ('A' for Active; 'I' for Inactive)
REMARK    1  A    between atoms: C_2  and  O_3
REMARK    2  A    between atoms: C_2  and  C_4
REMARK                            x       y       z     vdW  Elec       q    Type
REMARK                         _______ _______ _______ _____ _____    ______ ____
ROOT
ATOM      1  C   UNL     1       5.881   5.016  15.774  0.00  0.00    +0.000 A 
ATOM      2  C   UNL     1       6.161   5.896  16.824  0.00  0.00    +0.000 A 
ATOM      3  C   UNL     1       5.201   6.132  17.807  0.00  0.00    +0.000 A 
ATOM      4  C   UNL     1       3.973   5.462  17.753  0.00  0.00    +0.000 A 
ATOM      5  C   UNL     1       3.671   4.595  16.698  0.00  0.00    +0.000 A 
ATOM      6  C   UNL     1       4.638   4.367  15.709  0.00  0.00    +0.000 A 
ATOM      7  C   UNL     1       2.354   3.878  16.672  0.00  0.00    +0.000 C 
ATOM      8  C   UNL     1       2.328   2.787  17.738  0.00  0.00    +0.000 C 
ATOM      9  C   UNL     1       2.297   3.225  19.184  0.00  0.00    +0.000 A 
ATOM     10  C   UNL     1       1.972   2.227  20.121  0.00  0.00    +0.000 A 
ATOM     11  F   UNL     1       1.739   0.977  19.695  0.00  0.00    +0.000 F 
ATOM     12  C   UNL     1       1.881   2.481  21.486  0.00  0.00    +0.000 A 
ATOM     13  C   UNL     1       2.109   3.766  21.959  0.00  0.00    +0.000 A 
ATOM     14  C   UNL     1       2.442   4.777  21.057  0.00  0.00    +0.000 A 
ATOM     15  C   UNL     1       2.559   4.515  19.677  0.00  0.00    +0.000 A 
ATOM     16  C   UNL     1       3.019   5.668  18.857  0.00  0.00    +0.000 C 
ATOM     17  O   UNL     1       2.703   6.818  19.157  0.00  0.00    +0.000 OA
ENDROOT
BRANCH   1  19
ATOM     18  O   UNL     1       7.909   5.469  14.623  0.00  0.00    +0.000 OA
ATOM     19  C   UNL     1       6.948   4.738  14.783  0.00  0.00    +0.000 C 
BRANCH  19  20
ATOM     20  O   UNL     1       6.738   3.614  14.068  0.00  0.00    +0.000 OA
ATOM     21  H   UNL     1       6.555   3.758  13.121  0.00  0.00    +0.000 HD
ENDBRANCH  19  20
ENDBRANCH   1  19
TORSDOF 2
ENDMDL
MODEL 4
REMARK VINA RESULT:      -6.7      3.811      5.617
REMARK  Name = 
REMARK  2 active torsions:
REMARK  status: ('A' for Active; 'I' for Inactive)
REMARK    1  A    between atoms: C_2  and  O_3
REMARK    2  A    between atoms: C_2  and  C_4
REMARK                            x       y       z     vdW  Elec       q    Type
REMARK                         _______ _______ _______ _____ _____    ______ ____
ROOT
ATOM      1  C   UNL     1       5.905   5.455  16.264  0.00  0.00    +0.000 A 
ATOM      2  C   UNL     1       4.872   6.378  16.454  0.00  0.00    +0.000 A 
ATOM      3  C   UNL     1       3.648   5.954  16.972  0.00  0.00    +0.000 A 
ATOM      4  C   UNL     1       3.472   4.611  17.326  0.00  0.00    +0.000 A 
ATOM      5  C   UNL     1       4.490   3.673  17.122  0.00  0.00    +0.000 A 
ATOM      6  C   UNL     1       5.716   4.104  16.596  0.00  0.00    +0.000 A 
ATOM      7  C   UNL     1       4.281   2.243  17.526  0.00  0.00    +0.000 C 
ATOM      8  C   UNL     1       4.301   2.117  19.045  0.00  0.00    +0.000 C 
ATOM      9  C   UNL     1       3.146   2.718  19.811  0.00  0.00    +0.000 A 
ATOM     10  C   UNL     1       3.035   2.332  21.159  0.00  0.00    +0.000 A 
ATOM     11  F   UNL     1       3.945   1.496  21.680  0.00  0.00    +0.000 F 
ATOM     12  C   UNL     1       2.011   2.783  21.987  0.00  0.00    +0.000 A 
ATOM     13  C   UNL     1       1.048   3.643  21.476  0.00  0.00    +0.000 A 
ATOM     14  C   UNL     1       1.134   4.053  20.146  0.00  0.00    +0.000 A 
ATOM     15  C   UNL     1       2.185   3.617  19.314  0.00  0.00    +0.000 A 
ATOM     16  C   UNL     1       2.199   4.218  17.953  0.00  0.00    +0.000 C 
ATOM     17  O   UNL     1       1.147   4.501  17.381  0.00  0.00    +0.000 OA
ENDROOT
BRANCH   1  19
ATOM     18  O   UNL     1       7.763   5.504  14.784  0.00  0.00    +0.000 OA
ATOM     19  C   UNL     1       7.213   5.952  15.774  0.00  0.00    +0.000 C 
BRANCH  19  20
ATOM     20  O   UNL     1       7.738   6.929  16.542  0.00  0.00    +0.000 OA
ATOM     21  H   UNL     1       7.112   7.634  16.792  0.00  0.00    +0.000 HD
ENDBRANCH  19  20
ENDBRANCH   1  19
TORSDOF 2
ENDMDL
MODEL 5
REMARK VINA RESULT:      -6.7      2.749      6.466
REMARK  Name = 
REMARK  2 active torsions:
REMARK  status: ('A' for Active; 'I' for Inactive)
REMARK    1  A    between atoms: C_2  and  O_3
REMARK    2  A    between atoms: C_2  and  C_4
REMARK                            x       y       z     vdW  Elec       q    Type
REMARK                         _______ _______ _______ _____ _____    ______ ____
ROOT
ATOM      1  C   UNL     1       2.086   4.838  18.817  0.00  0.00    +0.000 A 
ATOM      2  C   UNL     1       1.641   4.835  20.143  0.00  0.00    +0.000 A 
ATOM      3  C   UNL     1       1.505   6.040  20.833  0.00  0.00    +0.000 A 
ATOM      4  C   UNL     1       1.785   7.247  20.182  0.00  0.00    +0.000 A 
ATOM      5  C   UNL     1       2.250   7.264  18.863  0.00  0.00    +0.000 A 
ATOM      6  C   UNL     1       2.391   6.049  18.177  0.00  0.00    +0.000 A 
ATOM      7  C   UNL     1       2.527   8.573  18.185  0.00  0.00    +0.000 C 
ATOM      8  C   UNL     1       1.219   9.286  17.861  0.00  0.00    +0.000 C 
ATOM      9  C   UNL     1       0.412   9.821  19.021  0.00  0.00    +0.000 A 
ATOM     10  C   UNL     1      -0.617  10.723  18.689  0.00  0.00    +0.000 A 
ATOM     11  F   UNL     1      -0.832  11.029  17.401  0.00  0.00    +0.000 F 
ATOM     12  C   UNL     1      -1.431  11.319  19.648  0.00  0.00    +0.000 A 
ATOM     13  C   UNL     1      -1.229  11.029  20.991  0.00  0.00    +0.000 A 
ATOM     14  C   UNL     1      -0.224  10.132  21.353  0.00  0.00    +0.000 A 
ATOM     15  C   UNL     1       0.584   9.509  20.381  0.00  0.00    +0.000 A 
ATOM     16  C   UNL     1       1.543   8.503  20.913  0.00  0.00    +0.000 C 
ATOM     17  O   UNL     1       2.058   8.650  22.020  0.00  0.00    +0.000 OA
ENDROOT
BRANCH   1  19
ATOM     18  O   UNL     1       3.142   3.186  17.476  0.00  0.00    +0.000 OA
ATOM     19  C   UNL     1       2.157   3.545  18.095  0.00  0.00    +0.000 C 
BRANCH  19  20
ATOM     20  O   UNL     1       1.020   2.823  18.175  0.00  0.00    +0.000 OA
ATOM     21  H   UNL     1       0.402   3.106  18.874  0.00  0.00    +0.000 HD
ENDBRANCH  19  20
ENDBRANCH   1  19
TORSDOF 2
ENDMDL
MODEL 6
REMARK VINA RESULT:      -6.6      3.977      6.636
REMARK  Name = 
REMARK  2 active torsions:
REMARK  status: ('A' for Active; 'I' for Inactive)
REMARK    1  A    between atoms: C_2  and  O_3
REMARK    2  A    between atoms: C_2  and  C_4
REMARK                            x       y       z     vdW  Elec       q    Type
REMARK                         _______ _______ _______ _____ _____    ______ ____
ROOT
ATOM      1  C   UNL     1       5.914   4.207  14.344  0.00  0.00    +0.000 A 
ATOM      2  C   UNL     1       5.747   3.078  15.152  0.00  0.00    +0.000 A 
ATOM      3  C   UNL     1       5.562   3.229  16.527  0.00  0.00    +0.000 A 
ATOM      4  C   UNL     1       5.513   4.512  17.084  0.00  0.00    +0.000 A 
ATOM      5  C   UNL     1       5.700   5.650  16.290  0.00  0.00    +0.000 A 
ATOM      6  C   UNL     1       5.892   5.491  14.911  0.00  0.00    +0.000 A 
ATOM      7  C   UNL     1       5.628   7.014  16.910  0.00  0.00    +0.000 C 
ATOM      8  C   UNL     1       4.185   7.352  17.272  0.00  0.00    +0.000 C 
ATOM      9  C   UNL     1       3.549   6.578  18.403  0.00  0.00    +0.000 A 
ATOM     10  C   UNL     1       2.347   7.105  18.909  0.00  0.00    +0.000 A 
ATOM     11  F   UNL     1       1.835   8.217  18.361  0.00  0.00    +0.000 F 
ATOM     12  C   UNL     1       1.655   6.517  19.964  0.00  0.00    +0.000 A 
ATOM     13  C   UNL     1       2.162   5.370  20.558  0.00  0.00    +0.000 A 
ATOM     14  C   UNL     1       3.348   4.816  20.075  0.00  0.00    +0.000 A 
ATOM     15  C   UNL     1       4.035   5.396  18.989  0.00  0.00    +0.000 A 
ATOM     16  C   UNL     1       5.226   4.635  18.523  0.00  0.00    +0.000 C 
ATOM     17  O   UNL     1       5.920   4.006  19.319  0.00  0.00    +0.000 OA
ENDROOT
BRANCH   1  19
ATOM     18  O   UNL     1       7.084   4.202  12.276  0.00  0.00    +0.000 OA
ATOM     19  C   UNL     1       6.043   4.013  12.880  0.00  0.00    +0.000 C 
BRANCH  19  20
ATOM     20  O   UNL     1       4.894   3.629  12.286  0.00  0.00    +0.000 OA
ATOM     21  H   UNL     1       4.986   2.895  11.651  0.00  0.00    +0.000 HD
ENDBRANCH  19  20
ENDBRANCH   1  19
TORSDOF 2
ENDMDL
MODEL 7
REMARK VINA RESULT:      -6.6      4.939      6.538
REMARK  Name = 
REMARK  2 active torsions:
REMARK  status: ('A' for Active; 'I' for Inactive)
REMARK    1  A    between atoms: C_2  and  O_3
REMARK    2  A    between atoms: C_2  and  C_4
REMARK                            x       y       z     vdW  Elec       q    Type
REMARK                         _______ _______ _______ _____ _____    ______ ____
ROOT
ATOM      1  C   UNL     1      -2.869  10.739  16.679  0.00  0.00    +0.000 A 
ATOM      2  C   UNL     1      -1.937   9.707  16.538  0.00  0.00    +0.000 A 
ATOM      3  C   UNL     1      -0.831   9.648  17.387  0.00  0.00    +0.000 A 
ATOM      4  C   UNL     1      -0.679  10.607  18.395  0.00  0.00    +0.000 A 
ATOM      5  C   UNL     1      -1.593  11.657  18.535  0.00  0.00    +0.000 A 
ATOM      6  C   UNL     1      -2.698  11.714  17.674  0.00  0.00    +0.000 A 
ATOM      7  C   UNL     1      -1.414  12.662  19.634  0.00  0.00    +0.000 C 
ATOM      8  C   UNL     1      -1.746  12.032  20.982  0.00  0.00    +0.000 C 
ATOM      9  C   UNL     1      -0.801  10.978  21.511  0.00  0.00    +0.000 A 
ATOM     10  C   UNL     1      -0.958  10.637  22.867  0.00  0.00    +0.000 A 
ATOM     11  F   UNL     1      -1.923  11.230  23.586  0.00  0.00    +0.000 F 
ATOM     12  C   UNL     1      -0.149   9.701  23.504  0.00  0.00    +0.000 A 
ATOM     13  C   UNL     1       0.864   9.075  22.790  0.00  0.00    +0.000 A 
ATOM     14  C   UNL     1       1.041   9.384  21.441  0.00  0.00    +0.000 A 
ATOM     15  C   UNL     1       0.205  10.313  20.788  0.00  0.00    +0.000 A 
ATOM     16  C   UNL     1       0.451  10.461  19.328  0.00  0.00    +0.000 C 
ATOM     17  O   UNL     1       1.586  10.350  18.869  0.00  0.00    +0.000 OA
ENDROOT
BRANCH   1  19
ATOM     18  O   UNL     1      -4.040  10.335  14.652  0.00  0.00    +0.000 OA
ATOM     19  C   UNL     1      -4.065  10.733  15.803  0.00  0.00    +0.000 C 
BRANCH  19  20
ATOM     20  O   UNL     1      -5.169  11.228  16.399  0.00  0.00    +0.000 OA
ATOM     21  H   UNL     1      -5.592  11.970  15.928  0.00  0.00    +0.000 HD
ENDBRANCH  19  20
ENDBRANCH   1  19
TORSDOF 2
ENDMDL
MODEL 8
REMARK VINA RESULT:      -6.6      4.492      6.655
REMARK  Name = 
REMARK  2 active torsions:
REMARK  status: ('A' for Active; 'I' for Inactive)
REMARK    1  A    between atoms: C_2  and  O_3
REMARK    2  A    between atoms: C_2  and  C_4
REMARK                            x       y       z     vdW  Elec       q    Type
REMARK                         _______ _______ _______ _____ _____    ______ ____
ROOT
ATOM      1  C   UNL     1      -4.633  11.168  17.931  0.00  0.00    +0.000 A 
ATOM      2  C   UNL     1      -3.994  10.088  17.314  0.00  0.00    +0.000 A 
ATOM      3  C   UNL     1      -2.640   9.853  17.552  0.00  0.00    +0.000 A 
ATOM      4  C   UNL     1      -1.936  10.682  18.433  0.00  0.00    +0.000 A 
ATOM      5  C   UNL     1      -2.557  11.779  19.041  0.00  0.00    +0.000 A 
ATOM      6  C   UNL     1      -3.916  12.014  18.792  0.00  0.00    +0.000 A 
ATOM      7  C   UNL     1      -1.783  12.643  19.993  0.00  0.00    +0.000 C 
ATOM      8  C   UNL     1      -1.541  11.898  21.302  0.00  0.00    +0.000 C 
ATOM      9  C   UNL     1      -0.592  10.723  21.271  0.00  0.00    +0.000 A 
ATOM     10  C   UNL     1      -0.157  10.250  22.523  0.00  0.00    +0.000 A 
ATOM     11  F   UNL     1      -0.615  10.835  23.640  0.00  0.00    +0.000 F 
ATOM     12  C   UNL     1       0.735   9.191  22.657  0.00  0.00    +0.000 A 
ATOM     13  C   UNL     1       1.233   8.570  21.520  0.00  0.00    +0.000 A 
ATOM     14  C   UNL     1       0.816   9.008  20.263  0.00  0.00    +0.000 A 
ATOM     15  C   UNL     1      -0.107  10.064  20.127  0.00  0.00    +0.000 A 
ATOM     16  C   UNL     1      -0.533  10.349  18.730  0.00  0.00    +0.000 C 
ATOM     17  O   UNL     1       0.250  10.201  17.793  0.00  0.00    +0.000 OA
ENDROOT
BRANCH   1  19
ATOM     18  O   UNL     1      -6.934  10.729  18.323  0.00  0.00    +0.000 OA
ATOM     19  C   UNL     1      -6.087  11.350  17.706  0.00  0.00    +0.000 C 
BRANCH  19  20
ATOM     20  O   UNL     1      -6.373  12.249  16.743  0.00  0.00    +0.000 OA
ATOM     21  H   UNL     1      -7.182  12.772  16.897  0.00  0.00    +0.000 HD
ENDBRANCH  19  20
ENDBRANCH   1  19
TORSDOF 2
ENDMDL
MODEL 9
REMARK VINA RESULT:      -6.6      2.960      4.215
REMARK  Name = 
REMARK  2 active torsions:
REMARK  status: ('A' for Active; 'I' for Inactive)
REMARK    1  A    between atoms: C_2  and  O_3
REMARK    2  A    between atoms: C_2  and  C_4
REMARK                            x       y       z     vdW  Elec       q    Type
REMARK                         _______ _______ _______ _____ _____    ______ ____
ROOT
ATOM      1  C   UNL     1       1.350   7.793  20.909  0.00  0.00    +0.000 A 
ATOM      2  C   UNL     1       1.382   6.413  21.133  0.00  0.00    +0.000 A 
ATOM      3  C   UNL     1       1.873   5.560  20.143  0.00  0.00    +0.000 A 
ATOM      4  C   UNL     1       2.359   6.096  18.945  0.00  0.00    +0.000 A 
ATOM      5  C   UNL     1       2.313   7.472  18.700  0.00  0.00    +0.000 A 
ATOM      6  C   UNL     1       1.813   8.323  19.695  0.00  0.00    +0.000 A 
ATOM      7  C   UNL     1       2.855   8.021  17.413  0.00  0.00    +0.000 C 
ATOM      8  C   UNL     1       4.378   7.946  17.409  0.00  0.00    +0.000 C 
ATOM      9  C   UNL     1       5.009   6.576  17.331  0.00  0.00    +0.000 A 
ATOM     10  C   UNL     1       6.383   6.548  17.027  0.00  0.00    +0.000 A 
ATOM     11  F   UNL     1       7.041   7.704  16.853  0.00  0.00    +0.000 F 
ATOM     12  C   UNL     1       7.100   5.362  16.898  0.00  0.00    +0.000 A 
ATOM     13  C   UNL     1       6.446   4.148  17.065  0.00  0.00    +0.000 A 
ATOM     14  C   UNL     1       5.087   4.140  17.375  0.00  0.00    +0.000 A 
ATOM     15  C   UNL     1       4.366   5.341  17.531  0.00  0.00    +0.000 A 
ATOM     16  C   UNL     1       2.951   5.173  17.961  0.00  0.00    +0.000 C 
ATOM     17  O   UNL     1       2.295   4.201  17.593  0.00  0.00    +0.000 OA
ENDROOT
BRANCH   1  19
ATOM     18  O   UNL     1      -0.295   8.871  22.242  0.00  0.00    +0.000 OA
ATOM     19  C   UNL     1       0.883   8.674  22.007  0.00  0.00    +0.000 C 
BRANCH  19  20
ATOM     20  O   UNL     1       1.889   9.246  22.700  0.00  0.00    +0.000 OA
ATOM     21  H   UNL     1       1.643  10.053  23.189  0.00  0.00    +0.000 HD
ENDBRANCH  19  20
ENDBRANCH   1  19
TORSDOF 2
ENDMDL
