MODEL 1
REMARK VINA RESULT:      -7.3      0.000      0.000
REMARK  Name = 
REMARK  11 active torsions:
REMARK  status: ('A' for Active; 'I' for Inactive)
REMARK    1  A    between atoms: C_1  and  C_2
REMARK    2  A    between atoms: C_2  and  C_3
REMARK    3  A    between atoms: C_3  and  C_4
REMARK    4  A    between atoms: C_4  and  C_5
REMARK    5  A    between atoms: C_5  and  C_6
REMARK    6  A    between atoms: C_6  and  C_7
REMARK    7  A    between atoms: C_7  and  C_8
REMARK    8  A    between atoms: C_8  and  C_9
REMARK    9  A    between atoms: C_9  and  C_10
REMARK   10  A    between atoms: C_10  and  N_11
REMARK   11  A    between atoms: N_23  and  C_24
REMARK                            x       y       z     vdW  Elec       q    Type
REMARK                         _______ _______ _______ _____ _____    ______ ____
ROOT
ATOM      1  N   UNL     1       5.398   4.942  17.202  0.00  0.00    +0.000 N 
ATOM      2  C   UNL     1       4.884   6.165  16.959  0.00  0.00    +0.000 A 
ATOM      3  C   UNL     1       3.871   6.667  17.757  0.00  0.00    +0.000 A 
ATOM      4  C   UNL     1       3.347   5.882  18.791  0.00  0.00    +0.000 A 
ATOM      5  C   UNL     1       3.842   4.587  18.991  0.00  0.00    +0.000 A 
ATOM      6  C   UNL     1       4.941   4.194  18.232  0.00  0.00    +0.000 A 
ATOM      7  C   UNL     1       3.291   3.642  20.049  0.00  0.00    +0.000 C 
ATOM      8  C   UNL     1       2.075   4.211  20.805  0.00  0.00    +0.000 C 
ATOM      9  C   UNL     1       2.107   5.724  20.977  0.00  0.00    +0.000 C 
ATOM     10  C   UNL     1       2.247   6.458  19.647  0.00  0.00    +0.000 C 
ATOM     11  C   UNL     1       0.872   3.707  20.012  0.00  0.00    +0.000 C 
ATOM     12  C   UNL     1       1.312   2.356  19.491  0.00  0.00    +0.000 C 
ATOM     13  N   UNL     1       2.768   2.346  19.593  0.00  0.00    +0.000 NA
ATOM     14  C   UNL     1       3.408   1.555  18.568  0.00  0.00    +0.000 C 
ENDROOT
BRANCH   1  15
ATOM     15  C   UNL     1       6.406   4.362  16.292  0.00  0.00    +0.000 C 
BRANCH  15  16
ATOM     16  C   UNL     1       6.692   5.386  15.192  0.00  0.00    +0.000 C 
BRANCH  16  17
ATOM     17  C   UNL     1       6.900   4.757  13.818  0.00  0.00    +0.000 C 
BRANCH  17  18
ATOM     18  C   UNL     1       5.798   3.759  13.468  0.00  0.00    +0.000 C 
BRANCH  18  19
ATOM     19  C   UNL     1       6.298   2.677  12.518  0.00  0.00    +0.000 C 
BRANCH  19  20
ATOM     20  C   UNL     1       5.429   2.638  11.263  0.00  0.00    +0.000 C 
BRANCH  20  21
ATOM     21  C   UNL     1       4.174   3.486  11.436  0.00  0.00    +0.000 C 
BRANCH  21  22
ATOM     22  C   UNL     1       3.139   3.155  10.362  0.00  0.00    +0.000 C 
BRANCH  22  24
ATOM     23  C   UNL     1       3.068   4.788   8.450  0.00  0.00    +0.000 C 
ATOM     24  C   UNL     1       2.499   4.428   9.812  0.00  0.00    +0.000 C 
ENDBRANCH  22  24
ENDBRANCH  21  22
ENDBRANCH  20  21
ENDBRANCH  19  20
ENDBRANCH  18  19
ENDBRANCH  17  18
ENDBRANCH  16  17
ENDBRANCH  15  16
ENDBRANCH   1  15
TORSDOF 9
ENDMDL
MODEL 2
REMARK VINA RESULT:      -7.1      0.989      1.464
REMARK  Name = 
REMARK  11 active torsions:
REMARK  status: ('A' for Active; 'I' for Inactive)
REMARK    1  A    between atoms: C_1  and  C_2
REMARK    2  A    between atoms: C_2  and  C_3
REMARK    3  A    between atoms: C_3  and  C_4
REMARK    4  A    between atoms: C_4  and  C_5
REMARK    5  A    between atoms: C_5  and  C_6
REMARK    6  A    between atoms: C_6  and  C_7
REMARK    7  A    between atoms: C_7  and  C_8
REMARK    8  A    between atoms: C_8  and  C_9
REMARK    9  A    between atoms: C_9  and  C_10
REMARK   10  A    between atoms: C_10  and  N_11
REMARK   11  A    between atoms: N_23  and  C_24
REMARK                            x       y       z     vdW  Elec       q    Type
REMARK                         _______ _______ _______ _____ _____    ______ ____
ROOT
ATOM      1  N   UNL     1       4.536   6.474  17.969  0.00  0.00    +0.000 N 
ATOM      2  C   UNL     1       3.531   7.329  18.248  0.00  0.00    +0.000 A 
ATOM      3  C   UNL     1       2.514   6.953  19.108  0.00  0.00    +0.000 A 
ATOM      4  C   UNL     1       2.507   5.664  19.654  0.00  0.00    +0.000 A 
ATOM      5  C   UNL     1       3.520   4.762  19.304  0.00  0.00    +0.000 A 
ATOM      6  C   UNL     1       4.573   5.245  18.531  0.00  0.00    +0.000 A 
ATOM      7  C   UNL     1       3.558   3.324  19.799  0.00  0.00    +0.000 C 
ATOM      8  C   UNL     1       2.326   2.931  20.637  0.00  0.00    +0.000 C 
ATOM      9  C   UNL     1       1.744   4.077  21.454  0.00  0.00    +0.000 C 
ATOM     10  C   UNL     1       1.389   5.285  20.592  0.00  0.00    +0.000 C 
ATOM     11  C   UNL     1       1.352   2.345  19.618  0.00  0.00    +0.000 C 
ATOM     12  C   UNL     1       2.245   1.681  18.592  0.00  0.00    +0.000 C 
ATOM     13  N   UNL     1       3.572   2.259  18.786  0.00  0.00    +0.000 NA
ATOM     14  C   UNL     1       4.343   2.339  17.568  0.00  0.00    +0.000 C 
ENDROOT
BRANCH   1  15
ATOM     15  C   UNL     1       5.566   6.834  16.973  0.00  0.00    +0.000 C 
BRANCH  15  16
ATOM     16  C   UNL     1       5.272   6.056  15.689  0.00  0.00    +0.000 C 
BRANCH  16  17
ATOM     17  C   UNL     1       6.360   5.048  15.330  0.00  0.00    +0.000 C 
BRANCH  17  18
ATOM     18  C   UNL     1       5.817   3.881  14.507  0.00  0.00    +0.000 C 
BRANCH  18  19
ATOM     19  C   UNL     1       6.302   3.937  13.063  0.00  0.00    +0.000 C 
BRANCH  19  20
ATOM     20  C   UNL     1       5.521   2.940  12.209  0.00  0.00    +0.000 C 
BRANCH  20  21
ATOM     21  C   UNL     1       4.831   3.638  11.042  0.00  0.00    +0.000 C 
BRANCH  21  22
ATOM     22  C   UNL     1       3.390   3.155  10.892  0.00  0.00    +0.000 C 
BRANCH  22  24
ATOM     23  C   UNL     1       2.509   4.850   9.257  0.00  0.00    +0.000 C 
ATOM     24  C   UNL     1       2.880   3.393   9.472  0.00  0.00    +0.000 C 
ENDBRANCH  22  24
ENDBRANCH  21  22
ENDBRANCH  20  21
ENDBRANCH  19  20
ENDBRANCH  18  19
ENDBRANCH  17  18
ENDBRANCH  16  17
ENDBRANCH  15  16
ENDBRANCH   1  15
TORSDOF 9
ENDMDL
MODEL 3
REMARK VINA RESULT:      -7.1      1.114      1.922
REMARK  Name = 
REMARK  11 active torsions:
REMARK  status: ('A' for Active; 'I' for Inactive)
REMARK    1  A    between atoms: C_1  and  C_2
REMARK    2  A    between atoms: C_2  and  C_3
REMARK    3  A    between atoms: C_3  and  C_4
REMARK    4  A    between atoms: C_4  and  C_5
REMARK    5  A    between atoms: C_5  and  C_6
REMARK    6  A    between atoms: C_6  and  C_7
REMARK    7  A    between atoms: C_7  and  C_8
REMARK    8  A    between atoms: C_8  and  C_9
REMARK    9  A    between atoms: C_9  and  C_10
REMARK   10  A    between atoms: C_10  and  N_11
REMARK   11  A    between atoms: N_23  and  C_24
REMARK                            x       y       z     vdW  Elec       q    Type
REMARK                         _______ _______ _______ _____ _____    ______ ____
ROOT
ATOM      1  N   UNL     1       4.234   6.622  17.740  0.00  0.00    +0.000 N 
ATOM      2  C   UNL     1       3.259   7.436  18.194  0.00  0.00    +0.000 A 
ATOM      3  C   UNL     1       2.392   7.003  19.182  0.00  0.00    +0.000 A 
ATOM      4  C   UNL     1       2.501   5.698  19.678  0.00  0.00    +0.000 A 
ATOM      5  C   UNL     1       3.474   4.839  19.151  0.00  0.00    +0.000 A 
ATOM      6  C   UNL     1       4.387   5.378  18.249  0.00  0.00    +0.000 A 
ATOM      7  C   UNL     1       3.623   3.389  19.585  0.00  0.00    +0.000 C 
ATOM      8  C   UNL     1       2.541   2.932  20.582  0.00  0.00    +0.000 C 
ATOM      9  C   UNL     1       2.056   4.034  21.516  0.00  0.00    +0.000 C 
ATOM     10  C   UNL     1       1.546   5.256  20.758  0.00  0.00    +0.000 C 
ATOM     11  C   UNL     1       1.441   2.348  19.699  0.00  0.00    +0.000 C 
ATOM     12  C   UNL     1       2.189   1.742  18.530  0.00  0.00    +0.000 C 
ATOM     13  N   UNL     1       3.514   2.355  18.545  0.00  0.00    +0.000 NA
ATOM     14  C   UNL     1       4.093   2.497  17.230  0.00  0.00    +0.000 C 
ENDROOT
BRANCH   1  15
ATOM     15  C   UNL     1       5.094   7.044  16.616  0.00  0.00    +0.000 C 
BRANCH  15  16
ATOM     16  C   UNL     1       5.168   5.885  15.619  0.00  0.00    +0.000 C 
BRANCH  16  17
ATOM     17  C   UNL     1       6.570   5.302  15.472  0.00  0.00    +0.000 C 
BRANCH  17  18
ATOM     18  C   UNL     1       6.618   4.167  14.451  0.00  0.00    +0.000 C 
BRANCH  18  19
ATOM     19  C   UNL     1       7.488   4.524  13.252  0.00  0.00    +0.000 C 
BRANCH  19  20
ATOM     20  C   UNL     1       6.760   4.179  11.954  0.00  0.00    +0.000 C 
BRANCH  20  21
ATOM     21  C   UNL     1       6.699   2.670  11.742  0.00  0.00    +0.000 C 
BRANCH  21  22
ATOM     22  C   UNL     1       5.275   2.221  11.419  0.00  0.00    +0.000 C 
BRANCH  22  24
ATOM     23  C   UNL     1       3.493   3.601  10.303  0.00  0.00    +0.000 C 
ATOM     24  C   UNL     1       4.290   3.378  11.576  0.00  0.00    +0.000 C 
ENDBRANCH  22  24
ENDBRANCH  21  22
ENDBRANCH  20  21
ENDBRANCH  19  20
ENDBRANCH  18  19
ENDBRANCH  17  18
ENDBRANCH  16  17
ENDBRANCH  15  16
ENDBRANCH   1  15
TORSDOF 9
ENDMDL
MODEL 4
REMARK VINA RESULT:      -7.1      4.295      7.172
REMARK  Name = 
REMARK  11 active torsions:
REMARK  status: ('A' for Active; 'I' for Inactive)
REMARK    1  A    between atoms: C_1  and  C_2
REMARK    2  A    between atoms: C_2  and  C_3
REMARK    3  A    between atoms: C_3  and  C_4
REMARK    4  A    between atoms: C_4  and  C_5
REMARK    5  A    between atoms: C_5  and  C_6
REMARK    6  A    between atoms: C_6  and  C_7
REMARK    7  A    between atoms: C_7  and  C_8
REMARK    8  A    between atoms: C_8  and  C_9
REMARK    9  A    between atoms: C_9  and  C_10
REMARK   10  A    between atoms: C_10  and  N_11
REMARK   11  A    between atoms: N_23  and  C_24
REMARK                            x       y       z     vdW  Elec       q    Type
REMARK                         _______ _______ _______ _____ _____    ______ ____
ROOT
ATOM      1  N   UNL     1       4.650   5.659  17.155  0.00  0.00    +0.000 N 
ATOM      2  C   UNL     1       5.193   4.496  16.738  0.00  0.00    +0.000 A 
ATOM      3  C   UNL     1       4.545   3.298  16.982  0.00  0.00    +0.000 A 
ATOM      4  C   UNL     1       3.345   3.290  17.703  0.00  0.00    +0.000 A 
ATOM      5  C   UNL     1       2.826   4.497  18.189  0.00  0.00    +0.000 A 
ATOM      6  C   UNL     1       3.464   5.673  17.804  0.00  0.00    +0.000 A 
ATOM      7  C   UNL     1       1.563   4.577  19.034  0.00  0.00    +0.000 C 
ATOM      8  C   UNL     1       0.972   3.199  19.385  0.00  0.00    +0.000 C 
ATOM      9  C   UNL     1       1.187   2.142  18.309  0.00  0.00    +0.000 C 
ATOM     10  C   UNL     1       2.659   1.970  17.949  0.00  0.00    +0.000 C 
ATOM     11  C   UNL     1       1.609   2.848  20.727  0.00  0.00    +0.000 C 
ATOM     12  C   UNL     1       1.774   4.185  21.418  0.00  0.00    +0.000 C 
ATOM     13  N   UNL     1       1.676   5.191  20.365  0.00  0.00    +0.000 NA
ATOM     14  C   UNL     1       2.470   6.370  20.625  0.00  0.00    +0.000 C 
ENDROOT
BRANCH   1  15
ATOM     15  C   UNL     1       5.387   6.928  16.987  0.00  0.00    +0.000 C 
BRANCH  15  16
ATOM     16  C   UNL     1       6.871   6.593  16.828  0.00  0.00    +0.000 C 
BRANCH  16  17
ATOM     17  C   UNL     1       7.748   7.199  17.920  0.00  0.00    +0.000 C 
BRANCH  17  18
ATOM     18  C   UNL     1       7.899   8.711  17.765  0.00  0.00    +0.000 C 
BRANCH  18  19
ATOM     19  C   UNL     1       8.815   9.298  18.832  0.00  0.00    +0.000 C 
BRANCH  19  20
ATOM     20  C   UNL     1       9.414  10.616  18.344  0.00  0.00    +0.000 C 
BRANCH  20  21
ATOM     21  C   UNL     1      10.217  11.297  19.446  0.00  0.00    +0.000 C 
BRANCH  21  22
ATOM     22  C   UNL     1      11.316  12.179  18.856  0.00  0.00    +0.000 C 
BRANCH  22  24
ATOM     23  C   UNL     1      12.001  13.456  16.800  0.00  0.00    +0.000 C 
ATOM     24  C   UNL     1      11.142  12.328  17.347  0.00  0.00    +0.000 C 
ENDBRANCH  22  24
ENDBRANCH  21  22
ENDBRANCH  20  21
ENDBRANCH  19  20
ENDBRANCH  18  19
ENDBRANCH  17  18
ENDBRANCH  16  17
ENDBRANCH  15  16
ENDBRANCH   1  15
TORSDOF 9
ENDMDL
MODEL 5
REMARK VINA RESULT:      -6.9      4.031      6.842
REMARK  Name = 
REMARK  11 active torsions:
REMARK  status: ('A' for Active; 'I' for Inactive)
REMARK    1  A    between atoms: C_1  and  C_2
REMARK    2  A    between atoms: C_2  and  C_3
REMARK    3  A    between atoms: C_3  and  C_4
REMARK    4  A    between atoms: C_4  and  C_5
REMARK    5  A    between atoms: C_5  and  C_6
REMARK    6  A    between atoms: C_6  and  C_7
REMARK    7  A    between atoms: C_7  and  C_8
REMARK    8  A    between atoms: C_8  and  C_9
REMARK    9  A    between atoms: C_9  and  C_10
REMARK   10  A    between atoms: C_10  and  N_11
REMARK   11  A    between atoms: N_23  and  C_24
REMARK                            x       y       z     vdW  Elec       q    Type
REMARK                         _______ _______ _______ _____ _____    ______ ____
ROOT
ATOM      1  N   UNL     1       4.401   6.558  17.610  0.00  0.00    +0.000 N 
ATOM      2  C   UNL     1       3.433   7.423  17.977  0.00  0.00    +0.000 A 
ATOM      3  C   UNL     1       2.517   7.071  18.953  0.00  0.00    +0.000 A 
ATOM      4  C   UNL     1       2.569   5.796  19.528  0.00  0.00    +0.000 A 
ATOM      5  C   UNL     1       3.537   4.882  19.091  0.00  0.00    +0.000 A 
ATOM      6  C   UNL     1       4.499   5.343  18.196  0.00  0.00    +0.000 A 
ATOM      7  C   UNL     1       3.629   3.457  19.614  0.00  0.00    +0.000 C 
ATOM      8  C   UNL     1       2.497   3.088  20.592  0.00  0.00    +0.000 C 
ATOM      9  C   UNL     1       2.008   4.256  21.440  0.00  0.00    +0.000 C 
ATOM     10  C   UNL     1       1.562   5.443  20.592  0.00  0.00    +0.000 C 
ATOM     11  C   UNL     1       1.416   2.481  19.701  0.00  0.00    +0.000 C 
ATOM     12  C   UNL     1       2.191   1.788  18.600  0.00  0.00    +0.000 C 
ATOM     13  N   UNL     1       3.531   2.367  18.633  0.00  0.00    +0.000 NA
ATOM     14  C   UNL     1       4.164   2.415  17.336  0.00  0.00    +0.000 C 
ENDROOT
BRANCH   1  15
ATOM     15  C   UNL     1       5.316   6.890  16.498  0.00  0.00    +0.000 C 
BRANCH  15  16
ATOM     16  C   UNL     1       6.749   6.672  16.987  0.00  0.00    +0.000 C 
BRANCH  16  17
ATOM     17  C   UNL     1       7.478   7.970  17.321  0.00  0.00    +0.000 C 
BRANCH  17  18
ATOM     18  C   UNL     1       8.329   7.845  18.583  0.00  0.00    +0.000 C 
BRANCH  18  19
ATOM     19  C   UNL     1       8.850   9.200  19.047  0.00  0.00    +0.000 C 
BRANCH  19  20
ATOM     20  C   UNL     1       8.825  10.197  17.890  0.00  0.00    +0.000 C 
BRANCH  20  21
ATOM     21  C   UNL     1       9.485  11.514  18.284  0.00  0.00    +0.000 C 
BRANCH  21  22
ATOM     22  C   UNL     1      10.901  11.606  17.717  0.00  0.00    +0.000 C 
BRANCH  22  24
ATOM     23  C   UNL     1      11.256  11.934  20.185  0.00  0.00    +0.000 C 
ATOM     24  C   UNL     1      11.929  11.738  18.838  0.00  0.00    +0.000 C 
ENDBRANCH  22  24
ENDBRANCH  21  22
ENDBRANCH  20  21
ENDBRANCH  19  20
ENDBRANCH  18  19
ENDBRANCH  17  18
ENDBRANCH  16  17
ENDBRANCH  15  16
ENDBRANCH   1  15
TORSDOF 9
ENDMDL
MODEL 6
REMARK VINA RESULT:      -6.9      3.848      6.695
REMARK  Name = 
REMARK  11 active torsions:
REMARK  status: ('A' for Active; 'I' for Inactive)
REMARK    1  A    between atoms: C_1  and  C_2
REMARK    2  A    between atoms: C_2  and  C_3
REMARK    3  A    between atoms: C_3  and  C_4
REMARK    4  A    between atoms: C_4  and  C_5
REMARK    5  A    between atoms: C_5  and  C_6
REMARK    6  A    between atoms: C_6  and  C_7
REMARK    7  A    between atoms: C_7  and  C_8
REMARK    8  A    between atoms: C_8  and  C_9
REMARK    9  A    between atoms: C_9  and  C_10
REMARK   10  A    between atoms: C_10  and  N_11
REMARK   11  A    between atoms: N_23  and  C_24
REMARK                            x       y       z     vdW  Elec       q    Type
REMARK                         _______ _______ _______ _____ _____    ______ ____
ROOT
ATOM      1  N   UNL     1       4.859   5.730  17.522  0.00  0.00    +0.000 N 
ATOM      2  C   UNL     1       4.085   6.835  17.541  0.00  0.00    +0.000 A 
ATOM      3  C   UNL     1       2.983   6.899  18.375  0.00  0.00    +0.000 A 
ATOM      4  C   UNL     1       2.646   5.796  19.168  0.00  0.00    +0.000 A 
ATOM      5  C   UNL     1       3.419   4.630  19.090  0.00  0.00    +0.000 A 
ATOM      6  C   UNL     1       4.579   4.678  18.323  0.00  0.00    +0.000 A 
ATOM      7  C   UNL     1       3.091   3.363  19.867  0.00  0.00    +0.000 C 
ATOM      8  C   UNL     1       1.777   3.456  20.666  0.00  0.00    +0.000 C 
ATOM      9  C   UNL     1       1.467   4.855  21.185  0.00  0.00    +0.000 C 
ATOM     10  C   UNL     1       1.443   5.897  20.071  0.00  0.00    +0.000 C 
ATOM     11  C   UNL     1       0.719   2.907  19.711  0.00  0.00    +0.000 C 
ATOM     12  C   UNL     1       1.453   1.849  18.916  0.00  0.00    +0.000 C 
ATOM     13  N   UNL     1       2.874   2.131  19.095  0.00  0.00    +0.000 NA
ATOM     14  C   UNL     1       3.677   1.766  17.951  0.00  0.00    +0.000 C 
ENDROOT
BRANCH   1  15
ATOM     15  C   UNL     1       5.974   5.618  16.559  0.00  0.00    +0.000 C 
BRANCH  15  16
ATOM     16  C   UNL     1       7.195   5.087  17.313  0.00  0.00    +0.000 C 
BRANCH  16  17
ATOM     17  C   UNL     1       7.818   6.113  18.255  0.00  0.00    +0.000 C 
BRANCH  17  18
ATOM     18  C   UNL     1       7.609   7.545  17.767  0.00  0.00    +0.000 C 
BRANCH  18  19
ATOM     19  C   UNL     1       8.680   8.486  18.306  0.00  0.00    +0.000 C 
BRANCH  19  20
ATOM     20  C   UNL     1       8.246   9.938  18.119  0.00  0.00    +0.000 C 
BRANCH  20  21
ATOM     21  C   UNL     1       9.435  10.886  18.229  0.00  0.00    +0.000 C 
BRANCH  21  22
ATOM     22  C   UNL     1      10.063  10.816  19.620  0.00  0.00    +0.000 C 
BRANCH  22  24
ATOM     23  C   UNL     1      12.333  11.855  19.925  0.00  0.00    +0.000 C 
ATOM     24  C   UNL     1      10.834  12.096  19.935  0.00  0.00    +0.000 C 
ENDBRANCH  22  24
ENDBRANCH  21  22
ENDBRANCH  20  21
ENDBRANCH  19  20
ENDBRANCH  18  19
ENDBRANCH  17  18
ENDBRANCH  16  17
ENDBRANCH  15  16
ENDBRANCH   1  15
TORSDOF 9
ENDMDL
MODEL 7
REMARK VINA RESULT:      -6.9      3.869      6.871
REMARK  Name = 
REMARK  11 active torsions:
REMARK  status: ('A' for Active; 'I' for Inactive)
REMARK    1  A    between atoms: C_1  and  C_2
REMARK    2  A    between atoms: C_2  and  C_3
REMARK    3  A    between atoms: C_3  and  C_4
REMARK    4  A    between atoms: C_4  and  C_5
REMARK    5  A    between atoms: C_5  and  C_6
REMARK    6  A    between atoms: C_6  and  C_7
REMARK    7  A    between atoms: C_7  and  C_8
REMARK    8  A    between atoms: C_8  and  C_9
REMARK    9  A    between atoms: C_9  and  C_10
REMARK   10  A    between atoms: C_10  and  N_11
REMARK   11  A    between atoms: N_23  and  C_24
REMARK                            x       y       z     vdW  Elec       q    Type
REMARK                         _______ _______ _______ _____ _____    ______ ____
ROOT
ATOM      1  N   UNL     1       4.763   5.084  16.585  0.00  0.00    +0.000 N 
ATOM      2  C   UNL     1       5.311   3.854  16.498  0.00  0.00    +0.000 A 
ATOM      3  C   UNL     1       4.683   2.768  17.082  0.00  0.00    +0.000 A 
ATOM      4  C   UNL     1       3.499   2.955  17.804  0.00  0.00    +0.000 A 
ATOM      5  C   UNL     1       2.975   4.247  17.945  0.00  0.00    +0.000 A 
ATOM      6  C   UNL     1       3.591   5.272  17.232  0.00  0.00    +0.000 A 
ATOM      7  C   UNL     1       1.729   4.553  18.762  0.00  0.00    +0.000 C 
ATOM      8  C   UNL     1       1.161   3.323  19.498  0.00  0.00    +0.000 C 
ATOM      9  C   UNL     1       1.368   2.009  18.756  0.00  0.00    +0.000 C 
ATOM     10  C   UNL     1       2.834   1.752  18.424  0.00  0.00    +0.000 C 
ATOM     11  C   UNL     1       1.830   3.366  20.870  0.00  0.00    +0.000 C 
ATOM     12  C   UNL     1       1.993   4.844  21.155  0.00  0.00    +0.000 C 
ATOM     13  N   UNL     1       1.861   5.515  19.865  0.00  0.00    +0.000 NA
ATOM     14  C   UNL     1       2.646   6.724  19.767  0.00  0.00    +0.000 C 
ENDROOT
BRANCH   1  15
ATOM     15  C   UNL     1       5.481   6.260  16.053  0.00  0.00    +0.000 C 
BRANCH  15  16
ATOM     16  C   UNL     1       6.031   7.052  17.240  0.00  0.00    +0.000 C 
BRANCH  16  17
ATOM     17  C   UNL     1       7.129   6.316  18.002  0.00  0.00    +0.000 C 
BRANCH  17  18
ATOM     18  C   UNL     1       8.189   7.269  18.550  0.00  0.00    +0.000 C 
BRANCH  18  19
ATOM     19  C   UNL     1       8.092   8.649  17.909  0.00  0.00    +0.000 C 
BRANCH  19  20
ATOM     20  C   UNL     1       8.903   9.661  18.715  0.00  0.00    +0.000 C 
BRANCH  20  21
ATOM     21  C   UNL     1       9.039  10.981  17.964  0.00  0.00    +0.000 C 
BRANCH  21  22
ATOM     22  C   UNL     1      10.430  11.581  18.161  0.00  0.00    +0.000 C 
BRANCH  22  24
ATOM     23  C   UNL     1       8.981  13.630  18.333  0.00  0.00    +0.000 C 
ATOM     24  C   UNL     1      10.336  13.023  18.654  0.00  0.00    +0.000 C 
ENDBRANCH  22  24
ENDBRANCH  21  22
ENDBRANCH  20  21
ENDBRANCH  19  20
ENDBRANCH  18  19
ENDBRANCH  17  18
ENDBRANCH  16  17
ENDBRANCH  15  16
ENDBRANCH   1  15
TORSDOF 9
ENDMDL
MODEL 8
REMARK VINA RESULT:      -6.8      4.220      6.960
REMARK  Name = 
REMARK  11 active torsions:
REMARK  status: ('A' for Active; 'I' for Inactive)
REMARK    1  A    between atoms: C_1  and  C_2
REMARK    2  A    between atoms: C_2  and  C_3
REMARK    3  A    between atoms: C_3  and  C_4
REMARK    4  A    between atoms: C_4  and  C_5
REMARK    5  A    between atoms: C_5  and  C_6
REMARK    6  A    between atoms: C_6  and  C_7
REMARK    7  A    between atoms: C_7  and  C_8
REMARK    8  A    between atoms: C_8  and  C_9
REMARK    9  A    between atoms: C_9  and  C_10
REMARK   10  A    between atoms: C_10  and  N_11
REMARK   11  A    between atoms: N_23  and  C_24
REMARK                            x       y       z     vdW  Elec       q    Type
REMARK                         _______ _______ _______ _____ _____    ______ ____
ROOT
ATOM      1  N   UNL     1       4.903   5.927  17.375  0.00  0.00    +0.000 N 
ATOM      2  C   UNL     1       4.131   7.031  17.443  0.00  0.00    +0.000 A 
ATOM      3  C   UNL     1       3.077   7.091  18.338  0.00  0.00    +0.000 A 
ATOM      4  C   UNL     1       2.785   5.983  19.143  0.00  0.00    +0.000 A 
ATOM      5  C   UNL     1       3.553   4.818  19.016  0.00  0.00    +0.000 A 
ATOM      6  C   UNL     1       4.669   4.870  18.185  0.00  0.00    +0.000 A 
ATOM      7  C   UNL     1       3.269   3.548  19.803  0.00  0.00    +0.000 C 
ATOM      8  C   UNL     1       2.001   3.636  20.675  0.00  0.00    +0.000 C 
ATOM      9  C   UNL     1       1.721   5.032  21.218  0.00  0.00    +0.000 C 
ATOM     10  C   UNL     1       1.635   6.080  20.112  0.00  0.00    +0.000 C 
ATOM     11  C   UNL     1       0.892   3.091  19.778  0.00  0.00    +0.000 C 
ATOM     12  C   UNL     1       1.581   2.037  18.938  0.00  0.00    +0.000 C 
ATOM     13  N   UNL     1       3.010   2.320  19.039  0.00  0.00    +0.000 NA
ATOM     14  C   UNL     1       3.748   1.960  17.850  0.00  0.00    +0.000 C 
ENDROOT
BRANCH   1  15
ATOM     15  C   UNL     1       5.963   5.820  16.351  0.00  0.00    +0.000 C 
BRANCH  15  16
ATOM     16  C   UNL     1       7.263   6.343  16.963  0.00  0.00    +0.000 C 
BRANCH  16  17
ATOM     17  C   UNL     1       7.207   7.823  17.329  0.00  0.00    +0.000 C 
BRANCH  17  18
ATOM     18  C   UNL     1       8.345   8.230  18.264  0.00  0.00    +0.000 C 
BRANCH  18  19
ATOM     19  C   UNL     1       8.657   9.718  18.157  0.00  0.00    +0.000 C 
BRANCH  19  20
ATOM     20  C   UNL     1       9.308  10.212  19.447  0.00  0.00    +0.000 C 
BRANCH  20  21
ATOM     21  C   UNL     1      10.421  11.213  19.153  0.00  0.00    +0.000 C 
BRANCH  21  22
ATOM     22  C   UNL     1      10.318  12.429  20.072  0.00  0.00    +0.000 C 
BRANCH  22  24
ATOM     23  C   UNL     1       9.662  13.821  18.083  0.00  0.00    +0.000 C 
ATOM     24  C   UNL     1      10.569  13.720  19.296  0.00  0.00    +0.000 C 
ENDBRANCH  22  24
ENDBRANCH  21  22
ENDBRANCH  20  21
ENDBRANCH  19  20
ENDBRANCH  18  19
ENDBRANCH  17  18
ENDBRANCH  16  17
ENDBRANCH  15  16
ENDBRANCH   1  15
TORSDOF 9
ENDMDL
MODEL 9
REMARK VINA RESULT:      -6.8      4.613      7.548
REMARK  Name = 
REMARK  11 active torsions:
REMARK  status: ('A' for Active; 'I' for Inactive)
REMARK    1  A    between atoms: C_1  and  C_2
REMARK    2  A    between atoms: C_2  and  C_3
REMARK    3  A    between atoms: C_3  and  C_4
REMARK    4  A    between atoms: C_4  and  C_5
REMARK    5  A    between atoms: C_5  and  C_6
REMARK    6  A    between atoms: C_6  and  C_7
REMARK    7  A    between atoms: C_7  and  C_8
REMARK    8  A    between atoms: C_8  and  C_9
REMARK    9  A    between atoms: C_9  and  C_10
REMARK   10  A    between atoms: C_10  and  N_11
REMARK   11  A    between atoms: N_23  and  C_24
REMARK                            x       y       z     vdW  Elec       q    Type
REMARK                         _______ _______ _______ _____ _____    ______ ____
ROOT
ATOM      1  N   UNL     1       5.547   5.992  17.348  0.00  0.00    +0.000 N 
ATOM      2  C   UNL     1       6.213   4.821  17.265  0.00  0.00    +0.000 A 
ATOM      3  C   UNL     1       5.543   3.624  17.442  0.00  0.00    +0.000 A 
ATOM      4  C   UNL     1       4.178   3.631  17.754  0.00  0.00    +0.000 A 
ATOM      5  C   UNL     1       3.512   4.854  17.904  0.00  0.00    +0.000 A 
ATOM      6  C   UNL     1       4.218   6.013  17.593  0.00  0.00    +0.000 A 
ATOM      7  C   UNL     1       2.047   4.958  18.302  0.00  0.00    +0.000 C 
ATOM      8  C   UNL     1       1.400   3.596  18.619  0.00  0.00    +0.000 C 
ATOM      9  C   UNL     1       1.959   2.440  17.800  0.00  0.00    +0.000 C 
ATOM     10  C   UNL     1       3.473   2.311  17.936  0.00  0.00    +0.000 C 
ATOM     11  C   UNL     1       1.592   3.433  20.125  0.00  0.00    +0.000 C 
ATOM     12  C   UNL     1       1.510   4.846  20.663  0.00  0.00    +0.000 C 
ATOM     13  N   UNL     1       1.727   5.722  19.516  0.00  0.00    +0.000 NA
ATOM     14  C   UNL     1       2.380   6.963  19.862  0.00  0.00    +0.000 C 
ENDROOT
BRANCH   1  15
ATOM     15  C   UNL     1       6.278   7.273  17.261  0.00  0.00    +0.000 C 
BRANCH  15  16
ATOM     16  C   UNL     1       7.682   7.053  17.825  0.00  0.00    +0.000 C 
BRANCH  16  17
ATOM     17  C   UNL     1       8.283   8.305  18.458  0.00  0.00    +0.000 C 
BRANCH  17  18
ATOM     18  C   UNL     1       8.258   9.500  17.507  0.00  0.00    +0.000 C 
BRANCH  18  19
ATOM     19  C   UNL     1       8.666  10.789  18.212  0.00  0.00    +0.000 C 
BRANCH  19  20
ATOM     20  C   UNL     1       9.554  10.472  19.414  0.00  0.00    +0.000 C 
BRANCH  20  21
ATOM     21  C   UNL     1      10.876  11.226  19.335  0.00  0.00    +0.000 C 
BRANCH  21  22
ATOM     22  C   UNL     1      11.102  11.788  17.932  0.00  0.00    +0.000 C 
BRANCH  22  24
ATOM     23  C   UNL     1      12.326  13.463  19.353  0.00  0.00    +0.000 C 
ATOM     24  C   UNL     1      11.699  13.192  17.997  0.00  0.00    +0.000 C 
ENDBRANCH  22  24
ENDBRANCH  21  22
ENDBRANCH  20  21
ENDBRANCH  19  20
ENDBRANCH  18  19
ENDBRANCH  17  18
ENDBRANCH  16  17
ENDBRANCH  15  16
ENDBRANCH   1  15
TORSDOF 9
ENDMDL
