MODEL 1
REMARK VINA RESULT:      -8.4      0.000      0.000
REMARK  Name = 
REMARK  6 active torsions:
REMARK  status: ('A' for Active; 'I' for Inactive)
REMARK    1  A    between atoms: C_1  and  C_2
REMARK    2  A    between atoms: C_7  and  C_8
REMARK    3  A    between atoms: C_8  and  C_9
REMARK    4  A    between atoms: C_16  and  C_17
REMARK    5  A    between atoms: C_17  and  C_18
REMARK    6  A    between atoms: N_20  and  C_21
REMARK                            x       y       z     vdW  Elec       q    Type
REMARK                         _______ _______ _______ _____ _____    ______ ____
ROOT
ATOM      1  C   UNL     1       4.746   4.228  19.204  0.00  0.00    +0.000 C 
ATOM      2  O   UNL     1       4.835   5.061  20.111  0.00  0.00    +0.000 OA
ATOM      3  N   UNL     1       3.691   3.319  19.128  0.00  0.00    +0.000 N 
ATOM      4  C   UNL     1       3.686   2.172  18.203  0.00  0.00    +0.000 C 
ATOM      5  C   UNL     1       2.299   1.931  17.607  0.00  0.00    +0.000 C 
ATOM      6  O   UNL     1       1.319   1.772  18.636  0.00  0.00    +0.000 OA
ATOM      7  C   UNL     1       1.258   2.946  19.461  0.00  0.00    +0.000 C 
ATOM      8  C   UNL     1       2.615   3.199  20.174  0.00  0.00    +0.000 C 
ENDROOT
BRANCH   1   9
ATOM      9  C   UNL     1       5.816   4.270  18.104  0.00  0.00    +0.000 C 
BRANCH   9  16
ATOM     10  C   UNL     1       5.107   6.659  15.993  0.00  0.00    +0.000 C 
ATOM     11  C   UNL     1       6.156   6.618  17.051  0.00  0.00    +0.000 A 
ATOM     12  N   UNL     1       7.050   7.676  17.177  0.00  0.00    +0.000 N 
ATOM     13  N   UNL     1       8.042   7.243  18.043  0.00  0.00    +0.000 N 
ATOM     14  C   UNL     1       7.627   6.070  18.646  0.00  0.00    +0.000 A 
ATOM     15  O   UNL     1       8.156   5.505  19.579  0.00  0.00    +0.000 OA
ATOM     16  C   UNL     1       6.408   5.621  17.922  0.00  0.00    +0.000 A 
ATOM     17  H   UNL     1       7.384   8.022  16.274  0.00  0.00    +0.000 HD
ATOM     18  H   UNL     1       8.643   7.898  18.531  0.00  0.00    +0.000 HD
ENDBRANCH   9  16
ENDBRANCH   1   9
BRANCH   8  19
ATOM     19  C   UNL     1       2.473   4.343  21.187  0.00  0.00    +0.000 C 
BRANCH  19  20
ATOM     20  C   UNL     1       1.704   5.538  20.654  0.00  0.00    +0.000 C 
ATOM     21  O   UNL     1       0.476   5.499  20.618  0.00  0.00    +0.000 OA
ATOM     22  N   UNL     1       2.487   6.619  20.275  0.00  0.00    +0.000 N 
ATOM     23  H   UNL     1       3.466   6.612  20.534  0.00  0.00    +0.000 HD
BRANCH  22  24
ATOM     24  C   UNL     1       2.002   7.813  19.687  0.00  0.00    +0.000 A 
ATOM     25  C   UNL     1       2.257   8.157  18.352  0.00  0.00    +0.000 A 
ATOM     26  C   UNL     1       1.721   9.321  17.792  0.00  0.00    +0.000 A 
ATOM     27  C   UNL     1       0.930  10.162  18.566  0.00  0.00    +0.000 A 
ATOM     28  C   UNL     1       0.708   9.844  19.901  0.00  0.00    +0.000 A 
ATOM     29  F   UNL     1      -0.047  10.659  20.650  0.00  0.00    +0.000 F 
ATOM     30  C   UNL     1       1.248   8.688  20.471  0.00  0.00    +0.000 A 
ENDBRANCH  22  24
ENDBRANCH  19  20
ENDBRANCH   8  19
TORSDOF 5
ENDMDL
MODEL 2
REMARK VINA RESULT:      -8.2      3.660      6.703
REMARK  Name = 
REMARK  6 active torsions:
REMARK  status: ('A' for Active; 'I' for Inactive)
REMARK    1  A    between atoms: C_1  and  C_2
REMARK    2  A    between atoms: C_7  and  C_8
REMARK    3  A    between atoms: C_8  and  C_9
REMARK    4  A    between atoms: C_16  and  C_17
REMARK    5  A    between atoms: C_17  and  C_18
REMARK    6  A    between atoms: N_20  and  C_21
REMARK                            x       y       z     vdW  Elec       q    Type
REMARK                         _______ _______ _______ _____ _____    ______ ____
ROOT
ATOM      1  C   UNL     1       3.295   5.944  17.947  0.00  0.00    +0.000 C 
ATOM      2  O   UNL     1       4.299   6.616  17.692  0.00  0.00    +0.000 OA
ATOM      3  N   UNL     1       3.371   4.603  18.323  0.00  0.00    +0.000 N 
ATOM      4  C   UNL     1       2.191   3.723  18.399  0.00  0.00    +0.000 C 
ATOM      5  C   UNL     1       2.268   2.775  19.595  0.00  0.00    +0.000 C 
ATOM      6  O   UNL     1       3.480   2.017  19.572  0.00  0.00    +0.000 OA
ATOM      7  C   UNL     1       4.621   2.887  19.612  0.00  0.00    +0.000 C 
ATOM      8  C   UNL     1       4.656   3.821  18.370  0.00  0.00    +0.000 C 
ENDROOT
BRANCH   1   9
ATOM      9  C   UNL     1       1.939   6.663  17.903  0.00  0.00    +0.000 C 
BRANCH   9  16
ATOM     10  C   UNL     1       1.775   9.921  18.078  0.00  0.00    +0.000 C 
ATOM     11  C   UNL     1       1.674   8.912  19.171  0.00  0.00    +0.000 A 
ATOM     12  N   UNL     1       1.567   9.335  20.492  0.00  0.00    +0.000 N 
ATOM     13  N   UNL     1       1.755   8.208  21.276  0.00  0.00    +0.000 N 
ATOM     14  C   UNL     1       1.700   7.088  20.467  0.00  0.00    +0.000 A 
ATOM     15  O   UNL     1       1.650   5.931  20.828  0.00  0.00    +0.000 OA
ATOM     16  C   UNL     1       1.725   7.569  19.061  0.00  0.00    +0.000 A 
ATOM     17  H   UNL     1       2.186  10.121  20.707  0.00  0.00    +0.000 HD
ATOM     18  H   UNL     1       1.442   8.174  22.240  0.00  0.00    +0.000 HD
ENDBRANCH   9  16
ENDBRANCH   1   9
BRANCH   8  19
ATOM     19  C   UNL     1       5.973   4.608  18.340  0.00  0.00    +0.000 C 
BRANCH  19  20
ATOM     20  C   UNL     1       6.720   4.499  17.023  0.00  0.00    +0.000 C 
ATOM     21  O   UNL     1       7.945   4.399  17.030  0.00  0.00    +0.000 OA
ATOM     22  N   UNL     1       5.917   4.487  15.891  0.00  0.00    +0.000 N 
ATOM     23  H   UNL     1       4.919   4.375  16.017  0.00  0.00    +0.000 HD
BRANCH  22  24
ATOM     24  C   UNL     1       6.389   4.463  14.555  0.00  0.00    +0.000 A 
ATOM     25  C   UNL     1       7.403   5.314  14.095  0.00  0.00    +0.000 A 
ATOM     26  C   UNL     1       7.876   5.228  12.783  0.00  0.00    +0.000 A 
ATOM     27  C   UNL     1       7.332   4.294  11.909  0.00  0.00    +0.000 A 
ATOM     28  C   UNL     1       6.299   3.475  12.351  0.00  0.00    +0.000 A 
ATOM     29  F   UNL     1       5.768   2.580  11.506  0.00  0.00    +0.000 F 
ATOM     30  C   UNL     1       5.813   3.561  13.658  0.00  0.00    +0.000 A 
ENDBRANCH  22  24
ENDBRANCH  19  20
ENDBRANCH   8  19
TORSDOF 5
ENDMDL
MODEL 3
REMARK VINA RESULT:      -8.2      4.037      6.744
REMARK  Name = 
REMARK  6 active torsions:
REMARK  status: ('A' for Active; 'I' for Inactive)
REMARK    1  A    between atoms: C_1  and  C_2
REMARK    2  A    between atoms: C_7  and  C_8
REMARK    3  A    between atoms: C_8  and  C_9
REMARK    4  A    between atoms: C_16  and  C_17
REMARK    5  A    between atoms: C_17  and  C_18
REMARK    6  A    between atoms: N_20  and  C_21
REMARK                            x       y       z     vdW  Elec       q    Type
REMARK                         _______ _______ _______ _____ _____    ______ ____
ROOT
ATOM      1  C   UNL     1       5.496   4.448  18.648  0.00  0.00    +0.000 C 
ATOM      2  O   UNL     1       6.039   4.955  19.635  0.00  0.00    +0.000 OA
ATOM      3  N   UNL     1       5.789   4.853  17.346  0.00  0.00    +0.000 N 
ATOM      4  C   UNL     1       4.991   4.437  16.179  0.00  0.00    +0.000 C 
ATOM      5  C   UNL     1       5.873   4.154  14.963  0.00  0.00    +0.000 C 
ATOM      6  O   UNL     1       6.698   5.280  14.653  0.00  0.00    +0.000 OA
ATOM      7  C   UNL     1       7.550   5.602  15.763  0.00  0.00    +0.000 C 
ATOM      8  C   UNL     1       6.716   5.992  17.014  0.00  0.00    +0.000 C 
ENDROOT
BRANCH   1   9
ATOM      9  C   UNL     1       4.520   3.290  18.901  0.00  0.00    +0.000 C 
BRANCH   9  16
ATOM     10  C   UNL     1       2.283   5.572  18.225  0.00  0.00    +0.000 C 
ATOM     11  C   UNL     1       2.372   4.658  19.400  0.00  0.00    +0.000 A 
ATOM     12  N   UNL     1       1.453   4.777  20.437  0.00  0.00    +0.000 N 
ATOM     13  N   UNL     1       1.938   3.997  21.476  0.00  0.00    +0.000 N 
ATOM     14  C   UNL     1       2.967   3.207  20.996  0.00  0.00    +0.000 A 
ATOM     15  O   UNL     1       3.505   2.286  21.572  0.00  0.00    +0.000 OA
ATOM     16  C   UNL     1       3.300   3.710  19.638  0.00  0.00    +0.000 A 
ATOM     17  H   UNL     1       1.257   5.751  20.683  0.00  0.00    +0.000 HD
ATOM     18  H   UNL     1       1.334   3.674  22.223  0.00  0.00    +0.000 HD
ENDBRANCH   9  16
ENDBRANCH   1   9
BRANCH   8  19
ATOM     19  C   UNL     1       7.640   6.507  18.125  0.00  0.00    +0.000 C 
BRANCH  19  20
ATOM     20  C   UNL     1       7.868   8.008  18.085  0.00  0.00    +0.000 C 
ATOM     21  O   UNL     1       7.239   8.692  17.281  0.00  0.00    +0.000 OA
ATOM     22  N   UNL     1       8.775   8.489  19.018  0.00  0.00    +0.000 N 
ATOM     23  H   UNL     1       9.078   7.863  19.754  0.00  0.00    +0.000 HD
BRANCH  22  24
ATOM     24  C   UNL     1       9.199   9.836  19.125  0.00  0.00    +0.000 A 
ATOM     25  C   UNL     1       9.188  10.539  20.337  0.00  0.00    +0.000 A 
ATOM     26  C   UNL     1       9.660  11.853  20.414  0.00  0.00    +0.000 A 
ATOM     27  C   UNL     1      10.140  12.485  19.274  0.00  0.00    +0.000 A 
ATOM     28  C   UNL     1      10.116  11.804  18.062  0.00  0.00    +0.000 A 
ATOM     29  F   UNL     1      10.571  12.416  16.959  0.00  0.00    +0.000 F 
ATOM     30  C   UNL     1       9.637  10.495  17.974  0.00  0.00    +0.000 A 
ENDBRANCH  22  24
ENDBRANCH  19  20
ENDBRANCH   8  19
TORSDOF 5
ENDMDL
MODEL 4
REMARK VINA RESULT:      -8.1      3.732      6.810
REMARK  Name = 
REMARK  6 active torsions:
REMARK  status: ('A' for Active; 'I' for Inactive)
REMARK    1  A    between atoms: C_1  and  C_2
REMARK    2  A    between atoms: C_7  and  C_8
REMARK    3  A    between atoms: C_8  and  C_9
REMARK    4  A    between atoms: C_16  and  C_17
REMARK    5  A    between atoms: C_17  and  C_18
REMARK    6  A    between atoms: N_20  and  C_21
REMARK                            x       y       z     vdW  Elec       q    Type
REMARK                         _______ _______ _______ _____ _____    ______ ____
ROOT
ATOM      1  C   UNL     1       3.276   6.160  17.848  0.00  0.00    +0.000 C 
ATOM      2  O   UNL     1       4.404   6.661  17.823  0.00  0.00    +0.000 OA
ATOM      3  N   UNL     1       3.074   4.782  17.907  0.00  0.00    +0.000 N 
ATOM      4  C   UNL     1       1.756   4.154  17.699  0.00  0.00    +0.000 C 
ATOM      5  C   UNL     1       1.536   2.974  18.646  0.00  0.00    +0.000 C 
ATOM      6  O   UNL     1       2.591   2.017  18.527  0.00  0.00    +0.000 OA
ATOM      7  C   UNL     1       3.856   2.618  18.843  0.00  0.00    +0.000 C 
ATOM      8  C   UNL     1       4.189   3.771  17.857  0.00  0.00    +0.000 C 
ENDROOT
BRANCH   1   9
ATOM      9  C   UNL     1       2.080   7.122  17.883  0.00  0.00    +0.000 C 
BRANCH   9  16
ATOM     10  C   UNL     1       1.924   5.819  20.874  0.00  0.00    +0.000 C 
ATOM     11  C   UNL     1       1.789   7.245  20.459  0.00  0.00    +0.000 A 
ATOM     12  N   UNL     1       1.481   8.213  21.409  0.00  0.00    +0.000 N 
ATOM     13  N   UNL     1       1.167   9.364  20.701  0.00  0.00    +0.000 N 
ATOM     14  C   UNL     1       1.542   9.190  19.381  0.00  0.00    +0.000 A 
ATOM     15  O   UNL     1       1.580  10.042  18.519  0.00  0.00    +0.000 OA
ATOM     16  C   UNL     1       1.881   7.753  19.214  0.00  0.00    +0.000 A 
ATOM     17  H   UNL     1       0.765   7.904  22.071  0.00  0.00    +0.000 HD
ATOM     18  H   UNL     1       1.194  10.278  21.138  0.00  0.00    +0.000 HD
ENDBRANCH   9  16
ENDBRANCH   1   9
BRANCH   8  19
ATOM     19  C   UNL     1       5.619   4.274  18.097  0.00  0.00    +0.000 C 
BRANCH  19  20
ATOM     20  C   UNL     1       6.470   4.318  16.840  0.00  0.00    +0.000 C 
ATOM     21  O   UNL     1       7.687   4.453  16.940  0.00  0.00    +0.000 OA
ATOM     22  N   UNL     1       5.771   4.163  15.652  0.00  0.00    +0.000 N 
ATOM     23  H   UNL     1       4.805   3.861  15.703  0.00  0.00    +0.000 HD
BRANCH  22  24
ATOM     24  C   UNL     1       6.337   4.238  14.355  0.00  0.00    +0.000 A 
ATOM     25  C   UNL     1       5.924   3.413  13.300  0.00  0.00    +0.000 A 
ATOM     26  C   UNL     1       6.471   3.548  12.021  0.00  0.00    +0.000 A 
ATOM     27  C   UNL     1       7.450   4.506  11.784  0.00  0.00    +0.000 A 
ATOM     28  C   UNL     1       7.890   5.300  12.837  0.00  0.00    +0.000 A 
ATOM     29  F   UNL     1       8.839   6.218  12.611  0.00  0.00    +0.000 F 
ATOM     30  C   UNL     1       7.355   5.165  14.120  0.00  0.00    +0.000 A 
ENDBRANCH  22  24
ENDBRANCH  19  20
ENDBRANCH   8  19
TORSDOF 5
ENDMDL
MODEL 5
REMARK VINA RESULT:      -8.1      2.310      2.986
REMARK  Name = 
REMARK  6 active torsions:
REMARK  status: ('A' for Active; 'I' for Inactive)
REMARK    1  A    between atoms: C_1  and  C_2
REMARK    2  A    between atoms: C_7  and  C_8
REMARK    3  A    between atoms: C_8  and  C_9
REMARK    4  A    between atoms: C_16  and  C_17
REMARK    5  A    between atoms: C_17  and  C_18
REMARK    6  A    between atoms: N_20  and  C_21
REMARK                            x       y       z     vdW  Elec       q    Type
REMARK                         _______ _______ _______ _____ _____    ______ ____
ROOT
ATOM      1  C   UNL     1       3.657   5.001  17.856  0.00  0.00    +0.000 C 
ATOM      2  O   UNL     1       3.571   6.136  17.378  0.00  0.00    +0.000 OA
ATOM      3  N   UNL     1       3.103   4.669  19.093  0.00  0.00    +0.000 N 
ATOM      4  C   UNL     1       3.394   3.402  19.788  0.00  0.00    +0.000 C 
ATOM      5  C   UNL     1       2.152   2.837  20.476  0.00  0.00    +0.000 C 
ATOM      6  O   UNL     1       1.577   3.797  21.367  0.00  0.00    +0.000 OA
ATOM      7  C   UNL     1       1.196   4.983  20.652  0.00  0.00    +0.000 C 
ATOM      8  C   UNL     1       2.431   5.664  20.001  0.00  0.00    +0.000 C 
ENDROOT
BRANCH   1   9
ATOM      9  C   UNL     1       4.346   3.928  17.001  0.00  0.00    +0.000 C 
BRANCH   9  16
ATOM     10  C   UNL     1       5.752   4.216  14.067  0.00  0.00    +0.000 C 
ATOM     11  C   UNL     1       6.349   4.404  15.420  0.00  0.00    +0.000 A 
ATOM     12  N   UNL     1       7.709   4.670  15.543  0.00  0.00    +0.000 N 
ATOM     13  N   UNL     1       8.010   4.533  16.889  0.00  0.00    +0.000 N 
ATOM     14  C   UNL     1       6.829   4.462  17.605  0.00  0.00    +0.000 A 
ATOM     15  O   UNL     1       6.705   4.514  18.810  0.00  0.00    +0.000 OA
ATOM     16  C   UNL     1       5.733   4.298  16.614  0.00  0.00    +0.000 A 
ATOM     17  H   UNL     1       8.282   4.104  14.911  0.00  0.00    +0.000 HD
ATOM     18  H   UNL     1       8.842   4.949  17.292  0.00  0.00    +0.000 HD
ENDBRANCH   9  16
ENDBRANCH   1   9
BRANCH   8  19
ATOM     19  C   UNL     1       2.031   7.019  19.403  0.00  0.00    +0.000 C 
BRANCH  19  20
ATOM     20  C   UNL     1       1.629   8.051  20.442  0.00  0.00    +0.000 C 
ATOM     21  O   UNL     1       1.842   7.826  21.631  0.00  0.00    +0.000 OA
ATOM     22  N   UNL     1       1.066   9.211  19.929  0.00  0.00    +0.000 N 
ATOM     23  H   UNL     1       1.123   9.367  18.930  0.00  0.00    +0.000 HD
BRANCH  22  24
ATOM     24  C   UNL     1       0.553  10.281  20.703  0.00  0.00    +0.000 A 
ATOM     25  C   UNL     1       0.892  11.620  20.462  0.00  0.00    +0.000 A 
ATOM     26  C   UNL     1       0.328  12.653  21.216  0.00  0.00    +0.000 A 
ATOM     27  C   UNL     1      -0.577  12.359  22.229  0.00  0.00    +0.000 A 
ATOM     28  C   UNL     1      -0.884  11.030  22.497  0.00  0.00    +0.000 A 
ATOM     29  F   UNL     1      -1.750  10.744  23.480  0.00  0.00    +0.000 F 
ATOM     30  C   UNL     1      -0.318   9.990  21.755  0.00  0.00    +0.000 A 
ENDBRANCH  22  24
ENDBRANCH  19  20
ENDBRANCH   8  19
TORSDOF 5
ENDMDL
MODEL 6
REMARK VINA RESULT:      -8.1      0.848      1.254
REMARK  Name = 
REMARK  6 active torsions:
REMARK  status: ('A' for Active; 'I' for Inactive)
REMARK    1  A    between atoms: C_1  and  C_2
REMARK    2  A    between atoms: C_7  and  C_8
REMARK    3  A    between atoms: C_8  and  C_9
REMARK    4  A    between atoms: C_16  and  C_17
REMARK    5  A    between atoms: C_17  and  C_18
REMARK    6  A    between atoms: N_20  and  C_21
REMARK                            x       y       z     vdW  Elec       q    Type
REMARK                         _______ _______ _______ _____ _____    ______ ____
ROOT
ATOM      1  C   UNL     1       4.757   4.157  19.136  0.00  0.00    +0.000 C 
ATOM      2  O   UNL     1       4.857   4.954  20.074  0.00  0.00    +0.000 OA
ATOM      3  N   UNL     1       3.718   3.231  19.054  0.00  0.00    +0.000 N 
ATOM      4  C   UNL     1       3.708   2.122  18.083  0.00  0.00    +0.000 C 
ATOM      5  C   UNL     1       2.307   1.878  17.519  0.00  0.00    +0.000 C 
ATOM      6  O   UNL     1       1.362   1.657  18.569  0.00  0.00    +0.000 OA
ATOM      7  C   UNL     1       1.304   2.795  19.443  0.00  0.00    +0.000 C 
ATOM      8  C   UNL     1       2.677   3.046  20.126  0.00  0.00    +0.000 C 
ENDROOT
BRANCH   1   9
ATOM      9  C   UNL     1       5.793   4.266  18.008  0.00  0.00    +0.000 C 
BRANCH   9  16
ATOM     10  C   UNL     1       5.066   6.757  16.025  0.00  0.00    +0.000 C 
ATOM     11  C   UNL     1       6.123   6.664  17.072  0.00  0.00    +0.000 A 
ATOM     12  N   UNL     1       7.017   7.716  17.246  0.00  0.00    +0.000 N 
ATOM     13  N   UNL     1       8.015   7.241  18.082  0.00  0.00    +0.000 N 
ATOM     14  C   UNL     1       7.605   6.038  18.627  0.00  0.00    +0.000 A 
ATOM     15  O   UNL     1       8.141   5.428  19.528  0.00  0.00    +0.000 OA
ATOM     16  C   UNL     1       6.383   5.625  17.891  0.00  0.00    +0.000 A 
ATOM     17  H   UNL     1       7.345   8.107  16.359  0.00  0.00    +0.000 HD
ATOM     18  H   UNL     1       8.619   7.871  18.598  0.00  0.00    +0.000 HD
ENDBRANCH   9  16
ENDBRANCH   1   9
BRANCH   8  19
ATOM     19  C   UNL     1       2.544   4.145  21.188  0.00  0.00    +0.000 C 
BRANCH  19  20
ATOM     20  C   UNL     1       1.698   5.325  20.744  0.00  0.00    +0.000 C 
ATOM     21  O   UNL     1       0.496   5.166  20.545  0.00  0.00    +0.000 OA
ATOM     22  N   UNL     1       2.382   6.528  20.633  0.00  0.00    +0.000 N 
ATOM     23  H   UNL     1       3.319   6.580  21.012  0.00  0.00    +0.000 HD
BRANCH  22  24
ATOM     24  C   UNL     1       1.823   7.745  20.171  0.00  0.00    +0.000 A 
ATOM     25  C   UNL     1       1.000   8.551  20.970  0.00  0.00    +0.000 A 
ATOM     26  C   UNL     1       0.506   9.770  20.497  0.00  0.00    +0.000 A 
ATOM     27  C   UNL     1       0.821  10.194  19.212  0.00  0.00    +0.000 A 
ATOM     28  C   UNL     1       1.604   9.378  18.403  0.00  0.00    +0.000 A 
ATOM     29  F   UNL     1       1.901   9.782  17.160  0.00  0.00    +0.000 F 
ATOM     30  C   UNL     1       2.094   8.154  18.864  0.00  0.00    +0.000 A 
ENDBRANCH  22  24
ENDBRANCH  19  20
ENDBRANCH   8  19
TORSDOF 5
ENDMDL
MODEL 7
REMARK VINA RESULT:      -8.0      0.921      1.518
REMARK  Name = 
REMARK  6 active torsions:
REMARK  status: ('A' for Active; 'I' for Inactive)
REMARK    1  A    between atoms: C_1  and  C_2
REMARK    2  A    between atoms: C_7  and  C_8
REMARK    3  A    between atoms: C_8  and  C_9
REMARK    4  A    between atoms: C_16  and  C_17
REMARK    5  A    between atoms: C_17  and  C_18
REMARK    6  A    between atoms: N_20  and  C_21
REMARK                            x       y       z     vdW  Elec       q    Type
REMARK                         _______ _______ _______ _____ _____    ______ ____
ROOT
ATOM      1  C   UNL     1       4.862   4.333  18.980  0.00  0.00    +0.000 C 
ATOM      2  O   UNL     1       4.994   5.171  19.877  0.00  0.00    +0.000 OA
ATOM      3  N   UNL     1       3.800   3.430  18.955  0.00  0.00    +0.000 N 
ATOM      4  C   UNL     1       3.749   2.277  18.038  0.00  0.00    +0.000 C 
ATOM      5  C   UNL     1       2.336   2.042  17.503  0.00  0.00    +0.000 C 
ATOM      6  O   UNL     1       1.400   1.895  18.573  0.00  0.00    +0.000 OA
ATOM      7  C   UNL     1       1.381   3.074  19.392  0.00  0.00    +0.000 C 
ATOM      8  C   UNL     1       2.768   3.323  20.046  0.00  0.00    +0.000 C 
ENDROOT
BRANCH   1   9
ATOM      9  C   UNL     1       5.885   4.362  17.836  0.00  0.00    +0.000 C 
BRANCH   9  16
ATOM     10  C   UNL     1       8.375   5.564  19.574  0.00  0.00    +0.000 C 
ATOM     11  C   UNL     1       7.622   6.190  18.450  0.00  0.00    +0.000 A 
ATOM     12  N   UNL     1       7.908   7.498  18.072  0.00  0.00    +0.000 N 
ATOM     13  N   UNL     1       6.895   7.881  17.207  0.00  0.00    +0.000 N 
ATOM     14  C   UNL     1       6.169   6.760  16.846  0.00  0.00    +0.000 A 
ATOM     15  O   UNL     1       5.327   6.688  15.977  0.00  0.00    +0.000 OA
ATOM     16  C   UNL     1       6.610   5.656  17.738  0.00  0.00    +0.000 A 
ATOM     17  H   UNL     1       8.052   8.119  18.872  0.00  0.00    +0.000 HD
ATOM     18  H   UNL     1       7.010   8.659  16.566  0.00  0.00    +0.000 HD
ENDBRANCH   9  16
ENDBRANCH   1   9
BRANCH   8  19
ATOM     19  C   UNL     1       2.676   4.474  21.056  0.00  0.00    +0.000 C 
BRANCH  19  20
ATOM     20  C   UNL     1       1.820   5.635  20.583  0.00  0.00    +0.000 C 
ATOM     21  O   UNL     1       0.595   5.533  20.609  0.00  0.00    +0.000 OA
ATOM     22  N   UNL     1       2.526   6.760  20.182  0.00  0.00    +0.000 N 
ATOM     23  H   UNL     1       3.516   6.801  20.392  0.00  0.00    +0.000 HD
BRANCH  22  24
ATOM     24  C   UNL     1       1.951   7.936  19.640  0.00  0.00    +0.000 A 
ATOM     25  C   UNL     1       2.138   8.324  18.306  0.00  0.00    +0.000 A 
ATOM     26  C   UNL     1       1.516   9.465  17.792  0.00  0.00    +0.000 A 
ATOM     27  C   UNL     1       0.703  10.240  18.612  0.00  0.00    +0.000 A 
ATOM     28  C   UNL     1       0.547   9.880  19.945  0.00  0.00    +0.000 A 
ATOM     29  F   UNL     1      -0.229  10.631  20.738  0.00  0.00    +0.000 F 
ATOM     30  C   UNL     1       1.173   8.747  20.469  0.00  0.00    +0.000 A 
ENDBRANCH  22  24
ENDBRANCH  19  20
ENDBRANCH   8  19
TORSDOF 5
ENDMDL
MODEL 8
REMARK VINA RESULT:      -7.8      3.868      6.944
REMARK  Name = 
REMARK  6 active torsions:
REMARK  status: ('A' for Active; 'I' for Inactive)
REMARK    1  A    between atoms: C_1  and  C_2
REMARK    2  A    between atoms: C_7  and  C_8
REMARK    3  A    between atoms: C_8  and  C_9
REMARK    4  A    between atoms: C_16  and  C_17
REMARK    5  A    between atoms: C_17  and  C_18
REMARK    6  A    between atoms: N_20  and  C_21
REMARK                            x       y       z     vdW  Elec       q    Type
REMARK                         _______ _______ _______ _____ _____    ______ ____
ROOT
ATOM      1  C   UNL     1       3.121   6.360  17.944  0.00  0.00    +0.000 C 
ATOM      2  O   UNL     1       4.226   6.904  17.863  0.00  0.00    +0.000 OA
ATOM      3  N   UNL     1       2.978   4.975  18.029  0.00  0.00    +0.000 N 
ATOM      4  C   UNL     1       1.678   4.293  17.886  0.00  0.00    +0.000 C 
ATOM      5  C   UNL     1       1.547   3.119  18.856  0.00  0.00    +0.000 C 
ATOM      6  O   UNL     1       2.634   2.202  18.702  0.00  0.00    +0.000 OA
ATOM      7  C   UNL     1       3.886   2.857  18.955  0.00  0.00    +0.000 C 
ATOM      8  C   UNL     1       4.129   4.009  17.941  0.00  0.00    +0.000 C 
ENDROOT
BRANCH   1   9
ATOM      9  C   UNL     1       1.890   7.274  18.020  0.00  0.00    +0.000 C 
BRANCH   9  16
ATOM     10  C   UNL     1       1.804   6.017  21.033  0.00  0.00    +0.000 C 
ATOM     11  C   UNL     1       1.670   7.438  20.601  0.00  0.00    +0.000 A 
ATOM     12  N   UNL     1       1.395   8.422  21.544  0.00  0.00    +0.000 N 
ATOM     13  N   UNL     1       1.073   9.565  20.828  0.00  0.00    +0.000 N 
ATOM     14  C   UNL     1       1.410   9.369  19.501  0.00  0.00    +0.000 A 
ATOM     15  O   UNL     1       1.432  10.207  18.625  0.00  0.00    +0.000 OA
ATOM     16  C   UNL     1       1.732   7.926  19.346  0.00  0.00    +0.000 A 
ATOM     17  H   UNL     1       0.695   8.129  22.230  0.00  0.00    +0.000 HD
ATOM     18  H   UNL     1       1.119  10.486  21.249  0.00  0.00    +0.000 HD
ENDBRANCH   9  16
ENDBRANCH   1   9
BRANCH   8  19
ATOM     19  C   UNL     1       5.546   4.571  18.112  0.00  0.00    +0.000 C 
BRANCH  19  20
ATOM     20  C   UNL     1       6.402   4.461  16.862  0.00  0.00    +0.000 C 
ATOM     21  O   UNL     1       7.623   4.373  16.973  0.00  0.00    +0.000 OA
ATOM     22  N   UNL     1       5.696   4.435  15.668  0.00  0.00    +0.000 N 
ATOM     23  H   UNL     1       4.692   4.313  15.711  0.00  0.00    +0.000 HD
BRANCH  22  24
ATOM     24  C   UNL     1       6.278   4.407  14.376  0.00  0.00    +0.000 A 
ATOM     25  C   UNL     1       7.290   5.293  13.983  0.00  0.00    +0.000 A 
ATOM     26  C   UNL     1       7.874   5.204  12.716  0.00  0.00    +0.000 A 
ATOM     27  C   UNL     1       7.444   4.232  11.821  0.00  0.00    +0.000 A 
ATOM     28  C   UNL     1       6.413   3.377  12.193  0.00  0.00    +0.000 A 
ATOM     29  F   UNL     1       5.992   2.445  11.327  0.00  0.00    +0.000 F 
ATOM     30  C   UNL     1       5.817   3.465  13.454  0.00  0.00    +0.000 A 
ENDBRANCH  22  24
ENDBRANCH  19  20
ENDBRANCH   8  19
TORSDOF 5
ENDMDL
MODEL 9
REMARK VINA RESULT:      -7.8      3.827      6.710
REMARK  Name = 
REMARK  6 active torsions:
REMARK  status: ('A' for Active; 'I' for Inactive)
REMARK    1  A    between atoms: C_1  and  C_2
REMARK    2  A    between atoms: C_7  and  C_8
REMARK    3  A    between atoms: C_8  and  C_9
REMARK    4  A    between atoms: C_16  and  C_17
REMARK    5  A    between atoms: C_17  and  C_18
REMARK    6  A    between atoms: N_20  and  C_21
REMARK                            x       y       z     vdW  Elec       q    Type
REMARK                         _______ _______ _______ _____ _____    ______ ____
ROOT
ATOM      1  C   UNL     1       4.689   5.393  18.182  0.00  0.00    +0.000 C 
ATOM      2  O   UNL     1       5.095   6.024  19.162  0.00  0.00    +0.000 OA
ATOM      3  N   UNL     1       5.453   5.242  17.025  0.00  0.00    +0.000 N 
ATOM      4  C   UNL     1       4.905   4.705  15.766  0.00  0.00    +0.000 C 
ATOM      5  C   UNL     1       5.908   3.796  15.055  0.00  0.00    +0.000 C 
ATOM      6  O   UNL     1       7.147   4.474  14.833  0.00  0.00    +0.000 OA
ATOM      7  C   UNL     1       7.723   4.892  16.080  0.00  0.00    +0.000 C 
ATOM      8  C   UNL     1       6.794   5.895  16.818  0.00  0.00    +0.000 C 
ENDROOT
BRANCH   1   9
ATOM      9  C   UNL     1       3.319   4.710  18.303  0.00  0.00    +0.000 C 
BRANCH   9  16
ATOM     10  C   UNL     1       4.230   1.791  19.451  0.00  0.00    +0.000 C 
ATOM     11  C   UNL     1       3.446   2.866  20.125  0.00  0.00    +0.000 A 
ATOM     12  N   UNL     1       2.929   2.647  21.397  0.00  0.00    +0.000 N 
ATOM     13  N   UNL     1       2.051   3.691  21.643  0.00  0.00    +0.000 N 
ATOM     14  C   UNL     1       2.233   4.663  20.676  0.00  0.00    +0.000 A 
ATOM     15  O   UNL     1       1.766   5.782  20.673  0.00  0.00    +0.000 OA
ATOM     16  C   UNL     1       3.105   4.071  19.628  0.00  0.00    +0.000 A 
ATOM     17  H   UNL     1       2.531   1.711  21.508  0.00  0.00    +0.000 HD
ATOM     18  H   UNL     1       1.768   3.936  22.585  0.00  0.00    +0.000 HD
ENDBRANCH   9  16
ENDBRANCH   1   9
BRANCH   8  19
ATOM     19  C   UNL     1       7.506   6.467  18.050  0.00  0.00    +0.000 C 
BRANCH  19  20
ATOM     20  C   UNL     1       7.771   7.960  17.965  0.00  0.00    +0.000 C 
ATOM     21  O   UNL     1       7.163   8.635  17.138  0.00  0.00    +0.000 OA
ATOM     22  N   UNL     1       8.685   8.447  18.889  0.00  0.00    +0.000 N 
ATOM     23  H   UNL     1       8.970   7.836  19.645  0.00  0.00    +0.000 HD
BRANCH  22  24
ATOM     24  C   UNL     1       9.142   9.786  18.957  0.00  0.00    +0.000 A 
ATOM     25  C   UNL     1       9.449  10.540  17.816  0.00  0.00    +0.000 A 
ATOM     26  C   UNL     1       9.851  11.875  17.919  0.00  0.00    +0.000 A 
ATOM     27  C   UNL     1       9.962  12.470  19.170  0.00  0.00    +0.000 A 
ATOM     28  C   UNL     1       9.697  11.714  20.306  0.00  0.00    +0.000 A 
ATOM     29  F   UNL     1       9.812  12.285  21.513  0.00  0.00    +0.000 F 
ATOM     30  C   UNL     1       9.303  10.377  20.212  0.00  0.00    +0.000 A 
ENDBRANCH  22  24
ENDBRANCH  19  20
ENDBRANCH   8  19
TORSDOF 5
ENDMDL
