MODEL 1
REMARK VINA RESULT:      -8.3      0.000      0.000
REMARK  Name = 
REMARK  7 active torsions:
REMARK  status: ('A' for Active; 'I' for Inactive)
REMARK    1  A    between atoms: C_1  and  N_2
REMARK    2  A    between atoms: N_2  and  C_3
REMARK    3  A    between atoms: C_4  and  C_6
REMARK    4  A    between atoms: C_10  and  C_11
REMARK    5  A    between atoms: C_13  and  C_14
REMARK    6  A    between atoms: C_16  and  O_17
REMARK    7  A    between atoms: C_18  and  C_19
REMARK                            x       y       z     vdW  Elec       q    Type
REMARK                         _______ _______ _______ _____ _____    ______ ____
ROOT
ATOM      1  C   UNL     1       2.997   6.336  19.154  0.00  0.00    +0.000 A 
ATOM      2  C   UNL     1       4.238   6.089  18.555  0.00  0.00    +0.000 A 
ATOM      3  C   UNL     1       4.857   4.841  18.679  0.00  0.00    +0.000 A 
ATOM      4  C   UNL     1       4.246   3.800  19.390  0.00  0.00    +0.000 A 
ATOM      5  C   UNL     1       3.010   4.006  20.002  0.00  0.00    +0.000 A 
ATOM      6  C   UNL     1       2.414   5.281  19.887  0.00  0.00    +0.000 A 
ENDROOT
BRANCH   1  11
ATOM      7  C   UNL     1       1.188   9.569  20.024  0.00  0.00    +0.000 A 
ATOM      8  C   UNL     1       0.989  10.129  18.759  0.00  0.00    +0.000 A 
ATOM      9  C   UNL     1       1.447   9.466  17.622  0.00  0.00    +0.000 A 
ATOM     10  C   UNL     1       2.121   8.246  17.747  0.00  0.00    +0.000 A 
ATOM     11  C   UNL     1       2.305   7.638  19.001  0.00  0.00    +0.000 A 
ATOM     12  C   UNL     1       1.786   8.308  20.126  0.00  0.00    +0.000 A 
BRANCH   7  16
ATOM     13  C   UNL     1      -0.773  10.555  23.144  0.00  0.00    +0.000 C 
ATOM     14  N   UNL     1      -0.301   9.734  22.042  0.00  0.00    +0.000 N 
ATOM     15  C   UNL     1      -0.738   8.345  22.021  0.00  0.00    +0.000 C 
ATOM     16  C   UNL     1       0.675  10.300  21.214  0.00  0.00    +0.000 C 
ATOM     17  O   UNL     1       1.155  11.412  21.439  0.00  0.00    +0.000 OA
ENDBRANCH   7  16
ENDBRANCH   1  11
BRANCH   5  18
ATOM     18  C   UNL     1       2.255   2.937  20.755  0.00  0.00    +0.000 C 
ATOM     19  F   UNL     1       1.917   1.818  20.064  0.00  0.00    +0.000 F 
ATOM     20  F   UNL     1       2.953   2.501  21.845  0.00  0.00    +0.000 F 
ATOM     21  F   UNL     1       1.082   3.423  21.261  0.00  0.00    +0.000 F 
ENDBRANCH   5  18
BRANCH   3  22
ATOM     22  C   UNL     1       6.162   4.647  18.009  0.00  0.00    +0.000 C 
ATOM     23  O   UNL     1       7.163   4.359  18.658  0.00  0.00    +0.000 OA
ENDBRANCH   3  22
BRANCH   4  24
ATOM     24  O   UNL     1       4.831   2.569  19.506  0.00  0.00    +0.000 OA
ATOM     25  H   UNL     1       5.670   2.559  18.989  0.00  0.00    +0.000 HD
ENDBRANCH   4  24
TORSDOF 5
ENDMDL
MODEL 2
REMARK VINA RESULT:      -8.2      0.880      1.380
REMARK  Name = 
REMARK  7 active torsions:
REMARK  status: ('A' for Active; 'I' for Inactive)
REMARK    1  A    between atoms: C_1  and  N_2
REMARK    2  A    between atoms: N_2  and  C_3
REMARK    3  A    between atoms: C_4  and  C_6
REMARK    4  A    between atoms: C_10  and  C_11
REMARK    5  A    between atoms: C_13  and  C_14
REMARK    6  A    between atoms: C_16  and  O_17
REMARK    7  A    between atoms: C_18  and  C_19
REMARK                            x       y       z     vdW  Elec       q    Type
REMARK                         _______ _______ _______ _____ _____    ______ ____
ROOT
ATOM      1  C   UNL     1       3.068   6.242  19.219  0.00  0.00    +0.000 A 
ATOM      2  C   UNL     1       4.282   6.016  18.558  0.00  0.00    +0.000 A 
ATOM      3  C   UNL     1       4.927   4.779  18.650  0.00  0.00    +0.000 A 
ATOM      4  C   UNL     1       4.371   3.728  19.391  0.00  0.00    +0.000 A 
ATOM      5  C   UNL     1       3.164   3.912  20.065  0.00  0.00    +0.000 A 
ATOM      6  C   UNL     1       2.541   5.177  19.980  0.00  0.00    +0.000 A 
ENDROOT
BRANCH   1  11
ATOM      7  C   UNL     1       0.877   9.227  20.094  0.00  0.00    +0.000 A 
ATOM      8  C   UNL     1       0.962   9.990  18.926  0.00  0.00    +0.000 A 
ATOM      9  C   UNL     1       1.735   9.544  17.856  0.00  0.00    +0.000 A 
ATOM     10  C   UNL     1       2.440   8.340  17.956  0.00  0.00    +0.000 A 
ATOM     11  C   UNL     1       2.347   7.531  19.101  0.00  0.00    +0.000 A 
ATOM     12  C   UNL     1       1.517   7.983  20.146  0.00  0.00    +0.000 A 
BRANCH   7  16
ATOM     13  C   UNL     1      -0.764  11.449  22.726  0.00  0.00    +0.000 C 
ATOM     14  N   UNL     1       0.057  11.076  21.586  0.00  0.00    +0.000 N 
ATOM     15  C   UNL     1       0.663  12.162  20.827  0.00  0.00    +0.000 C 
ATOM     16  C   UNL     1       0.033   9.729  21.212  0.00  0.00    +0.000 C 
ATOM     17  O   UNL     1      -0.690   8.908  21.780  0.00  0.00    +0.000 OA
ENDBRANCH   7  16
ENDBRANCH   1  11
BRANCH   5  18
ATOM     18  C   UNL     1       2.467   2.831  20.854  0.00  0.00    +0.000 C 
ATOM     19  F   UNL     1       3.192   2.204  21.817  0.00  0.00    +0.000 F 
ATOM     20  F   UNL     1       1.352   3.307  21.483  0.00  0.00    +0.000 F 
ATOM     21  F   UNL     1       2.010   1.837  20.035  0.00  0.00    +0.000 F 
ENDBRANCH   5  18
BRANCH   3  22
ATOM     22  C   UNL     1       6.200   4.607  17.915  0.00  0.00    +0.000 C 
ATOM     23  O   UNL     1       7.245   4.377  18.517  0.00  0.00    +0.000 OA
ENDBRANCH   3  22
BRANCH   4  24
ATOM     24  O   UNL     1       4.983   2.507  19.477  0.00  0.00    +0.000 OA
ATOM     25  H   UNL     1       4.742   2.084  20.334  0.00  0.00    +0.000 HD
ENDBRANCH   4  24
TORSDOF 5
ENDMDL
MODEL 3
REMARK VINA RESULT:      -8.1      0.736      1.101
REMARK  Name = 
REMARK  7 active torsions:
REMARK  status: ('A' for Active; 'I' for Inactive)
REMARK    1  A    between atoms: C_1  and  N_2
REMARK    2  A    between atoms: N_2  and  C_3
REMARK    3  A    between atoms: C_4  and  C_6
REMARK    4  A    between atoms: C_10  and  C_11
REMARK    5  A    between atoms: C_13  and  C_14
REMARK    6  A    between atoms: C_16  and  O_17
REMARK    7  A    between atoms: C_18  and  C_19
REMARK                            x       y       z     vdW  Elec       q    Type
REMARK                         _______ _______ _______ _____ _____    ______ ____
ROOT
ATOM      1  C   UNL     1       3.049   6.316  19.119  0.00  0.00    +0.000 A 
ATOM      2  C   UNL     1       4.286   6.033  18.526  0.00  0.00    +0.000 A 
ATOM      3  C   UNL     1       4.878   4.775  18.672  0.00  0.00    +0.000 A 
ATOM      4  C   UNL     1       4.245   3.760  19.400  0.00  0.00    +0.000 A 
ATOM      5  C   UNL     1       3.014   4.001  20.007  0.00  0.00    +0.000 A 
ATOM      6  C   UNL     1       2.444   5.286  19.870  0.00  0.00    +0.000 A 
ENDROOT
BRANCH   1  11
ATOM      7  C   UNL     1       0.891   9.373  19.810  0.00  0.00    +0.000 A 
ATOM      8  C   UNL     1       1.103  10.133  18.657  0.00  0.00    +0.000 A 
ATOM      9  C   UNL     1       1.952   9.663  17.657  0.00  0.00    +0.000 A 
ATOM     10  C   UNL     1       2.605   8.436  17.814  0.00  0.00    +0.000 A 
ATOM     11  C   UNL     1       2.385   7.629  18.944  0.00  0.00    +0.000 A 
ATOM     12  C   UNL     1       1.482   8.108  19.913  0.00  0.00    +0.000 A 
BRANCH   7  16
ATOM     13  C   UNL     1      -0.765  10.215  23.143  0.00  0.00    +0.000 C 
ATOM     14  N   UNL     1       0.229   9.706  22.212  0.00  0.00    +0.000 N 
ATOM     15  C   UNL     1       1.481   9.225  22.781  0.00  0.00    +0.000 C 
ATOM     16  C   UNL     1      -0.031   9.902  20.852  0.00  0.00    +0.000 C 
ATOM     17  O   UNL     1      -1.020  10.523  20.460  0.00  0.00    +0.000 OA
ENDBRANCH   7  16
ENDBRANCH   1  11
BRANCH   5  18
ATOM     18  C   UNL     1       2.236   2.960  20.777  0.00  0.00    +0.000 C 
ATOM     19  F   UNL     1       1.044   3.344  21.302  0.00  0.00    +0.000 F 
ATOM     20  F   UNL     1       1.966   1.864  20.009  0.00  0.00    +0.000 F 
ATOM     21  F   UNL     1       2.962   2.480  21.831  0.00  0.00    +0.000 F 
ENDBRANCH   5  18
BRANCH   3  22
ATOM     22  C   UNL     1       6.180   4.543  18.007  0.00  0.00    +0.000 C 
ATOM     23  O   UNL     1       7.201   4.381  18.668  0.00  0.00    +0.000 OA
ENDBRANCH   3  22
BRANCH   4  24
ATOM     24  O   UNL     1       4.805   2.519  19.538  0.00  0.00    +0.000 OA
ATOM     25  H   UNL     1       5.463   2.378  18.817  0.00  0.00    +0.000 HD
ENDBRANCH   4  24
TORSDOF 5
ENDMDL
MODEL 4
REMARK VINA RESULT:      -8.1      0.779      1.224
REMARK  Name = 
REMARK  7 active torsions:
REMARK  status: ('A' for Active; 'I' for Inactive)
REMARK    1  A    between atoms: C_1  and  N_2
REMARK    2  A    between atoms: N_2  and  C_3
REMARK    3  A    between atoms: C_4  and  C_6
REMARK    4  A    between atoms: C_10  and  C_11
REMARK    5  A    between atoms: C_13  and  C_14
REMARK    6  A    between atoms: C_16  and  O_17
REMARK    7  A    between atoms: C_18  and  C_19
REMARK                            x       y       z     vdW  Elec       q    Type
REMARK                         _______ _______ _______ _____ _____    ______ ____
ROOT
ATOM      1  C   UNL     1       2.977   6.248  19.290  0.00  0.00    +0.000 A 
ATOM      2  C   UNL     1       4.188   6.001  18.632  0.00  0.00    +0.000 A 
ATOM      3  C   UNL     1       4.800   4.746  18.706  0.00  0.00    +0.000 A 
ATOM      4  C   UNL     1       4.212   3.698  19.427  0.00  0.00    +0.000 A 
ATOM      5  C   UNL     1       3.007   3.903  20.098  0.00  0.00    +0.000 A 
ATOM      6  C   UNL     1       2.419   5.186  20.032  0.00  0.00    +0.000 A 
ENDROOT
BRANCH   1  11
ATOM      7  C   UNL     1       1.112   9.413  20.283  0.00  0.00    +0.000 A 
ATOM      8  C   UNL     1       0.983  10.061  19.052  0.00  0.00    +0.000 A 
ATOM      9  C   UNL     1       1.508   9.481  17.899  0.00  0.00    +0.000 A 
ATOM     10  C   UNL     1       2.177   8.255  17.976  0.00  0.00    +0.000 A 
ATOM     11  C   UNL     1       2.291   7.558  19.192  0.00  0.00    +0.000 A 
ATOM     12  C   UNL     1       1.706   8.147  20.330  0.00  0.00    +0.000 A 
BRANCH   7  16
ATOM     13  C   UNL     1      -0.958  11.608  22.618  0.00  0.00    +0.000 C 
ATOM     14  N   UNL     1      -0.500  10.999  21.380  0.00  0.00    +0.000 N 
ATOM     15  C   UNL     1      -1.280  11.274  20.181  0.00  0.00    +0.000 C 
ATOM     16  C   UNL     1       0.529  10.057  21.491  0.00  0.00    +0.000 C 
ATOM     17  O   UNL     1       0.985   9.716  22.583  0.00  0.00    +0.000 OA
ENDBRANCH   7  16
ENDBRANCH   1  11
BRANCH   5  18
ATOM     18  C   UNL     1       2.277   2.828  20.866  0.00  0.00    +0.000 C 
ATOM     19  F   UNL     1       1.158   3.202  21.539  0.00  0.00    +0.000 F 
ATOM     20  F   UNL     1       1.893   1.801  20.052  0.00  0.00    +0.000 F 
ATOM     21  F   UNL     1       3.090   2.249  21.800  0.00  0.00    +0.000 F 
ENDBRANCH   5  18
BRANCH   3  22
ATOM     22  C   UNL     1       6.071   4.552  17.975  0.00  0.00    +0.000 C 
ATOM     23  O   UNL     1       7.129   4.412  18.582  0.00  0.00    +0.000 OA
ENDBRANCH   3  22
BRANCH   4  24
ATOM     24  O   UNL     1       4.791   2.460  19.496  0.00  0.00    +0.000 OA
ATOM     25  H   UNL     1       5.756   2.543  19.313  0.00  0.00    +0.000 HD
ENDBRANCH   4  24
TORSDOF 5
ENDMDL
MODEL 5
REMARK VINA RESULT:      -7.9      2.255      3.167
REMARK  Name = 
REMARK  7 active torsions:
REMARK  status: ('A' for Active; 'I' for Inactive)
REMARK    1  A    between atoms: C_1  and  N_2
REMARK    2  A    between atoms: N_2  and  C_3
REMARK    3  A    between atoms: C_4  and  C_6
REMARK    4  A    between atoms: C_10  and  C_11
REMARK    5  A    between atoms: C_13  and  C_14
REMARK    6  A    between atoms: C_16  and  O_17
REMARK    7  A    between atoms: C_18  and  C_19
REMARK                            x       y       z     vdW  Elec       q    Type
REMARK                         _______ _______ _______ _____ _____    ______ ____
ROOT
ATOM      1  C   UNL     1       2.393   6.528  19.540  0.00  0.00    +0.000 A 
ATOM      2  C   UNL     1       1.915   5.592  20.465  0.00  0.00    +0.000 A 
ATOM      3  C   UNL     1       2.436   4.294  20.504  0.00  0.00    +0.000 A 
ATOM      4  C   UNL     1       3.459   3.901  19.632  0.00  0.00    +0.000 A 
ATOM      5  C   UNL     1       3.962   4.803  18.695  0.00  0.00    +0.000 A 
ATOM      6  C   UNL     1       3.404   6.100  18.654  0.00  0.00    +0.000 A 
ENDROOT
BRANCH   1  11
ATOM      7  C   UNL     1       0.825   9.808  20.663  0.00  0.00    +0.000 A 
ATOM      8  C   UNL     1       0.908  10.573  19.496  0.00  0.00    +0.000 A 
ATOM      9  C   UNL     1       1.479  10.033  18.347  0.00  0.00    +0.000 A 
ATOM     10  C   UNL     1       1.985   8.728  18.363  0.00  0.00    +0.000 A 
ATOM     11  C   UNL     1       1.883   7.919  19.508  0.00  0.00    +0.000 A 
ATOM     12  C   UNL     1       1.254   8.477  20.639  0.00  0.00    +0.000 A 
BRANCH   7  16
ATOM     13  C   UNL     1      -1.332  11.929  22.988  0.00  0.00    +0.000 C 
ATOM     14  N   UNL     1      -0.828  11.359  21.749  0.00  0.00    +0.000 N 
ATOM     15  C   UNL     1      -1.565  11.671  20.532  0.00  0.00    +0.000 C 
ATOM     16  C   UNL     1       0.197  10.415  21.868  0.00  0.00    +0.000 C 
ATOM     17  O   UNL     1       0.614  10.040  22.965  0.00  0.00    +0.000 OA
ENDBRANCH   7  16
ENDBRANCH   1  11
BRANCH   5  18
ATOM     18  C   UNL     1       5.089   4.487  17.742  0.00  0.00    +0.000 C 
ATOM     19  F   UNL     1       6.278   4.125  18.290  0.00  0.00    +0.000 F 
ATOM     20  F   UNL     1       4.754   3.477  16.885  0.00  0.00    +0.000 F 
ATOM     21  F   UNL     1       5.367   5.553  16.934  0.00  0.00    +0.000 F 
ENDBRANCH   5  18
BRANCH   3  22
ATOM     22  C   UNL     1       1.893   3.362  21.516  0.00  0.00    +0.000 C 
ATOM     23  O   UNL     1       2.634   2.595  22.125  0.00  0.00    +0.000 OA
ENDBRANCH   3  22
BRANCH   4  24
ATOM     24  O   UNL     1       3.990   2.641  19.670  0.00  0.00    +0.000 OA
ATOM     25  H   UNL     1       3.312   1.994  19.365  0.00  0.00    +0.000 HD
ENDBRANCH   4  24
TORSDOF 5
ENDMDL
MODEL 6
REMARK VINA RESULT:      -7.8      2.320      3.037
REMARK  Name = 
REMARK  7 active torsions:
REMARK  status: ('A' for Active; 'I' for Inactive)
REMARK    1  A    between atoms: C_1  and  N_2
REMARK    2  A    between atoms: N_2  and  C_3
REMARK    3  A    between atoms: C_4  and  C_6
REMARK    4  A    between atoms: C_10  and  C_11
REMARK    5  A    between atoms: C_13  and  C_14
REMARK    6  A    between atoms: C_16  and  O_17
REMARK    7  A    between atoms: C_18  and  C_19
REMARK                            x       y       z     vdW  Elec       q    Type
REMARK                         _______ _______ _______ _____ _____    ______ ____
ROOT
ATOM      1  C   UNL     1       2.637   6.796  18.771  0.00  0.00    +0.000 A 
ATOM      2  C   UNL     1       3.657   7.159  17.883  0.00  0.00    +0.000 A 
ATOM      3  C   UNL     1       4.355   6.188  17.159  0.00  0.00    +0.000 A 
ATOM      4  C   UNL     1       4.043   4.829  17.289  0.00  0.00    +0.000 A 
ATOM      5  C   UNL     1       3.034   4.425  18.163  0.00  0.00    +0.000 A 
ATOM      6  C   UNL     1       2.359   5.419  18.905  0.00  0.00    +0.000 A 
ENDROOT
BRANCH   1  11
ATOM      7  C   UNL     1       0.547   9.886  19.522  0.00  0.00    +0.000 A 
ATOM      8  C   UNL     1       0.355   9.767  20.901  0.00  0.00    +0.000 A 
ATOM      9  C   UNL     1       0.893   8.683  21.590  0.00  0.00    +0.000 A 
ATOM     10  C   UNL     1       1.614   7.703  20.899  0.00  0.00    +0.000 A 
ATOM     11  C   UNL     1       1.858   7.811  19.518  0.00  0.00    +0.000 A 
ATOM     12  C   UNL     1       1.344   8.946  18.860  0.00  0.00    +0.000 A 
BRANCH   7  16
ATOM     13  C   UNL     1      -0.148  13.427  18.283  0.00  0.00    +0.000 C 
ATOM     14  N   UNL     1       0.530  12.337  18.966  0.00  0.00    +0.000 N 
ATOM     15  C   UNL     1       1.824  12.636  19.563  0.00  0.00    +0.000 C 
ATOM     16  C   UNL     1      -0.033  11.065  18.822  0.00  0.00    +0.000 C 
ATOM     17  O   UNL     1      -1.016  10.864  18.107  0.00  0.00    +0.000 OA
ENDBRANCH   7  16
ENDBRANCH   1  11
BRANCH   5  18
ATOM     18  C   UNL     1       2.599   2.990  18.341  0.00  0.00    +0.000 C 
ATOM     19  F   UNL     1       2.273   2.300  17.218  0.00  0.00    +0.000 F 
ATOM     20  F   UNL     1       3.560   2.247  18.967  0.00  0.00    +0.000 F 
ATOM     21  F   UNL     1       1.504   2.903  19.155  0.00  0.00    +0.000 F 
ENDBRANCH   5  18
BRANCH   3  22
ATOM     22  C   UNL     1       5.411   6.645  16.229  0.00  0.00    +0.000 C 
ATOM     23  O   UNL     1       5.421   6.275  15.059  0.00  0.00    +0.000 OA
ENDBRANCH   3  22
BRANCH   4  24
ATOM     24  O   UNL     1       4.706   3.868  16.574  0.00  0.00    +0.000 OA
ATOM     25  H   UNL     1       5.607   3.746  16.954  0.00  0.00    +0.000 HD
ENDBRANCH   4  24
TORSDOF 5
ENDMDL
MODEL 7
REMARK VINA RESULT:      -7.8      2.126      2.807
REMARK  Name = 
REMARK  7 active torsions:
REMARK  status: ('A' for Active; 'I' for Inactive)
REMARK    1  A    between atoms: C_1  and  N_2
REMARK    2  A    between atoms: N_2  and  C_3
REMARK    3  A    between atoms: C_4  and  C_6
REMARK    4  A    between atoms: C_10  and  C_11
REMARK    5  A    between atoms: C_13  and  C_14
REMARK    6  A    between atoms: C_16  and  O_17
REMARK    7  A    between atoms: C_18  and  C_19
REMARK                            x       y       z     vdW  Elec       q    Type
REMARK                         _______ _______ _______ _____ _____    ______ ____
ROOT
ATOM      1  C   UNL     1       2.735   6.662  18.740  0.00  0.00    +0.000 A 
ATOM      2  C   UNL     1       3.667   7.050  17.770  0.00  0.00    +0.000 A 
ATOM      3  C   UNL     1       4.334   6.094  16.997  0.00  0.00    +0.000 A 
ATOM      4  C   UNL     1       4.076   4.727  17.160  0.00  0.00    +0.000 A 
ATOM      5  C   UNL     1       3.156   4.299  18.116  0.00  0.00    +0.000 A 
ATOM      6  C   UNL     1       2.513   5.279  18.904  0.00  0.00    +0.000 A 
ENDROOT
BRANCH   1  11
ATOM      7  C   UNL     1       0.947   9.875  19.723  0.00  0.00    +0.000 A 
ATOM      8  C   UNL     1       0.554   9.588  21.033  0.00  0.00    +0.000 A 
ATOM      9  C   UNL     1       0.858   8.352  21.598  0.00  0.00    +0.000 A 
ATOM     10  C   UNL     1       1.545   7.390  20.850  0.00  0.00    +0.000 A 
ATOM     11  C   UNL     1       1.987   7.659  19.543  0.00  0.00    +0.000 A 
ATOM     12  C   UNL     1       1.709   8.936  19.018  0.00  0.00    +0.000 A 
BRANCH   7  16
ATOM     13  C   UNL     1      -0.804  12.758  17.941  0.00  0.00    +0.000 C 
ATOM     14  N   UNL     1      -0.604  11.434  18.506  0.00  0.00    +0.000 N 
ATOM     15  C   UNL     1      -1.754  10.541  18.517  0.00  0.00    +0.000 C 
ATOM     16  C   UNL     1       0.615  11.210  19.156  0.00  0.00    +0.000 C 
ATOM     17  O   UNL     1       1.453  12.102  19.295  0.00  0.00    +0.000 OA
ENDBRANCH   7  16
ENDBRANCH   1  11
BRANCH   5  18
ATOM     18  C   UNL     1       2.782   2.854  18.337  0.00  0.00    +0.000 C 
ATOM     19  F   UNL     1       2.324   2.162  17.262  0.00  0.00    +0.000 F 
ATOM     20  F   UNL     1       3.835   2.131  18.821  0.00  0.00    +0.000 F 
ATOM     21  F   UNL     1       1.809   2.735  19.290  0.00  0.00    +0.000 F 
ENDBRANCH   5  18
BRANCH   3  22
ATOM     22  C   UNL     1       5.297   6.576  15.982  0.00  0.00    +0.000 C 
ATOM     23  O   UNL     1       6.445   6.143  15.951  0.00  0.00    +0.000 OA
ENDBRANCH   3  22
BRANCH   4  24
ATOM     24  O   UNL     1       4.709   3.782  16.399  0.00  0.00    +0.000 OA
ATOM     25  H   UNL     1       5.374   3.311  16.954  0.00  0.00    +0.000 HD
ENDBRANCH   4  24
TORSDOF 5
ENDMDL
MODEL 8
REMARK VINA RESULT:      -7.7      1.268      1.679
REMARK  Name = 
REMARK  7 active torsions:
REMARK  status: ('A' for Active; 'I' for Inactive)
REMARK    1  A    between atoms: C_1  and  N_2
REMARK    2  A    between atoms: N_2  and  C_3
REMARK    3  A    between atoms: C_4  and  C_6
REMARK    4  A    between atoms: C_10  and  C_11
REMARK    5  A    between atoms: C_13  and  C_14
REMARK    6  A    between atoms: C_16  and  O_17
REMARK    7  A    between atoms: C_18  and  C_19
REMARK                            x       y       z     vdW  Elec       q    Type
REMARK                         _______ _______ _______ _____ _____    ______ ____
ROOT
ATOM      1  C   UNL     1       2.918   6.298  18.998  0.00  0.00    +0.000 A 
ATOM      2  C   UNL     1       4.308   6.187  19.117  0.00  0.00    +0.000 A 
ATOM      3  C   UNL     1       4.935   4.938  19.063  0.00  0.00    +0.000 A 
ATOM      4  C   UNL     1       4.191   3.766  18.872  0.00  0.00    +0.000 A 
ATOM      5  C   UNL     1       2.804   3.833  18.750  0.00  0.00    +0.000 A 
ATOM      6  C   UNL     1       2.188   5.101  18.834  0.00  0.00    +0.000 A 
ENDROOT
BRANCH   1  11
ATOM      7  C   UNL     1       1.096   9.389  20.266  0.00  0.00    +0.000 A 
ATOM      8  C   UNL     1       0.943  10.127  19.089  0.00  0.00    +0.000 A 
ATOM      9  C   UNL     1       1.436   9.630  17.884  0.00  0.00    +0.000 A 
ATOM     10  C   UNL     1       2.100   8.399  17.854  0.00  0.00    +0.000 A 
ATOM     11  C   UNL     1       2.238   7.614  19.013  0.00  0.00    +0.000 A 
ATOM     12  C   UNL     1       1.683   8.120  20.205  0.00  0.00    +0.000 A 
BRANCH   7  16
ATOM     13  C   UNL     1      -0.921  11.399  22.804  0.00  0.00    +0.000 C 
ATOM     14  N   UNL     1      -0.496  10.878  21.516  0.00  0.00    +0.000 N 
ATOM     15  C   UNL     1      -1.318  11.221  20.363  0.00  0.00    +0.000 C 
ATOM     16  C   UNL     1       0.546   9.945  21.532  0.00  0.00    +0.000 C 
ATOM     17  O   UNL     1       1.041   9.540  22.584  0.00  0.00    +0.000 OA
ENDBRANCH   7  16
ENDBRANCH   1  11
BRANCH   5  18
ATOM     18  C   UNL     1       1.922   2.633  18.502  0.00  0.00    +0.000 C 
ATOM     19  F   UNL     1       1.899   1.674  19.464  0.00  0.00    +0.000 F 
ATOM     20  F   UNL     1       0.619   2.997  18.313  0.00  0.00    +0.000 F 
ATOM     21  F   UNL     1       2.276   1.988  17.351  0.00  0.00    +0.000 F 
ENDBRANCH   5  18
BRANCH   3  22
ATOM     22  C   UNL     1       6.409   4.898  19.183  0.00  0.00    +0.000 C 
ATOM     23  O   UNL     1       7.094   4.364  18.316  0.00  0.00    +0.000 OA
ENDBRANCH   3  22
BRANCH   4  24
ATOM     24  O   UNL     1       4.791   2.538  18.801  0.00  0.00    +0.000 OA
ATOM     25  H   UNL     1       5.433   2.535  18.053  0.00  0.00    +0.000 HD
ENDBRANCH   4  24
TORSDOF 5
ENDMDL
MODEL 9
REMARK VINA RESULT:      -7.7      1.150      1.253
REMARK  Name = 
REMARK  7 active torsions:
REMARK  status: ('A' for Active; 'I' for Inactive)
REMARK    1  A    between atoms: C_1  and  N_2
REMARK    2  A    between atoms: N_2  and  C_3
REMARK    3  A    between atoms: C_4  and  C_6
REMARK    4  A    between atoms: C_10  and  C_11
REMARK    5  A    between atoms: C_13  and  C_14
REMARK    6  A    between atoms: C_16  and  O_17
REMARK    7  A    between atoms: C_18  and  C_19
REMARK                            x       y       z     vdW  Elec       q    Type
REMARK                         _______ _______ _______ _____ _____    ______ ____
ROOT
ATOM      1  C   UNL     1       2.772   6.257  18.894  0.00  0.00    +0.000 A 
ATOM      2  C   UNL     1       3.780   5.899  17.991  0.00  0.00    +0.000 A 
ATOM      3  C   UNL     1       4.256   4.585  17.933  0.00  0.00    +0.000 A 
ATOM      4  C   UNL     1       3.726   3.590  18.764  0.00  0.00    +0.000 A 
ATOM      5  C   UNL     1       2.722   3.905  19.678  0.00  0.00    +0.000 A 
ATOM      6  C   UNL     1       2.274   5.243  19.739  0.00  0.00    +0.000 A 
ENDROOT
BRANCH   1  11
ATOM      7  C   UNL     1       1.191   9.451  20.228  0.00  0.00    +0.000 A 
ATOM      8  C   UNL     1       1.181  10.258  19.087  0.00  0.00    +0.000 A 
ATOM      9  C   UNL     1       1.694   9.774  17.886  0.00  0.00    +0.000 A 
ATOM     10  C   UNL     1       2.234   8.485  17.824  0.00  0.00    +0.000 A 
ATOM     11  C   UNL     1       2.225   7.634  18.943  0.00  0.00    +0.000 A 
ATOM     12  C   UNL     1       1.653   8.134  20.130  0.00  0.00    +0.000 A 
BRANCH   7  16
ATOM     13  C   UNL     1      -0.885  11.414  22.757  0.00  0.00    +0.000 C 
ATOM     14  N   UNL     1      -0.445  10.900  21.470  0.00  0.00    +0.000 N 
ATOM     15  C   UNL     1      -1.275  11.213  20.316  0.00  0.00    +0.000 C 
ATOM     16  C   UNL     1       0.624   9.997  21.491  0.00  0.00    +0.000 C 
ATOM     17  O   UNL     1       1.131   9.611  22.546  0.00  0.00    +0.000 OA
ENDBRANCH   7  16
ENDBRANCH   1  11
BRANCH   5  18
ATOM     18  C   UNL     1       2.062   2.895  20.585  0.00  0.00    +0.000 C 
ATOM     19  F   UNL     1       1.595   1.758  20.008  0.00  0.00    +0.000 F 
ATOM     20  F   UNL     1       2.904   2.486  21.580  0.00  0.00    +0.000 F 
ATOM     21  F   UNL     1       0.991   3.441  21.236  0.00  0.00    +0.000 F 
ENDBRANCH   5  18
BRANCH   3  22
ATOM     22  C   UNL     1       5.313   4.276  16.946  0.00  0.00    +0.000 C 
ATOM     23  O   UNL     1       5.164   4.551  15.759  0.00  0.00    +0.000 OA
ENDBRANCH   3  22
BRANCH   4  24
ATOM     24  O   UNL     1       4.170   2.296  18.707  0.00  0.00    +0.000 OA
ATOM     25  H   UNL     1       4.540   2.120  17.811  0.00  0.00    +0.000 HD
ENDBRANCH   4  24
TORSDOF 5
ENDMDL
