MODEL 1
REMARK VINA RESULT:      -7.8      0.000      0.000
REMARK  Name = 
REMARK  10 active torsions:
REMARK  status: ('A' for Active; 'I' for Inactive)
REMARK    1  A    between atoms: C_1  and  O_2
REMARK    2  A    between atoms: O_2  and  C_3
REMARK    3  A    between atoms: C_5  and  C_6
REMARK    4  A    between atoms: C_9  and  C_10
REMARK    5  A    between atoms: C_13  and  C_14
REMARK    6  A    between atoms: C_15  and  N_16
REMARK    7  A    between atoms: C_20  and  O_21
REMARK    8  A    between atoms: O_21  and  C_22
REMARK    9  A    between atoms: C_23  and  O_24
REMARK   10  A    between atoms: O_24  and  C_25
REMARK                            x       y       z     vdW  Elec       q    Type
REMARK                         _______ _______ _______ _____ _____    ______ ____
ROOT
ATOM      1  C   UNL     1       4.303   3.904  17.892  0.00  0.00    +0.000 C 
ATOM      2  C   UNL     1       2.958   3.505  17.302  0.00  0.00    +0.000 C 
ATOM      3  N   UNL     1       2.050   4.629  17.573  0.00  0.00    +0.000 NA
ATOM      4  C   UNL     1       2.747   5.423  18.327  0.00  0.00    +0.000 C 
ATOM      5  O   UNL     1       4.019   5.088  18.646  0.00  0.00    +0.000 OA
ENDROOT
BRANCH   4   6
ATOM      6  C   UNL     1       2.280   6.720  18.858  0.00  0.00    +0.000 A 
ATOM      7  C   UNL     1       1.920   6.790  20.205  0.00  0.00    +0.000 A 
ATOM      8  C   UNL     1       1.457   7.992  20.741  0.00  0.00    +0.000 A 
ATOM      9  C   UNL     1       1.317   9.129  19.930  0.00  0.00    +0.000 A 
ATOM     10  C   UNL     1       0.831  10.411  20.558  0.00  0.00    +0.000 C 
ATOM     11  C   UNL     1       1.622   9.052  18.562  0.00  0.00    +0.000 A 
ATOM     12  C   UNL     1       2.165   7.859  18.046  0.00  0.00    +0.000 A 
BRANCH  11  13
ATOM     13  N   UNL     1       1.609  10.188  17.739  0.00  0.00    +0.000 N 
ATOM     14  H   UNL     1       0.906  10.161  17.009  0.00  0.00    +0.000 HD
ATOM     15  H   UNL     1       2.521  10.448  17.376  0.00  0.00    +0.000 HD
ENDBRANCH  11  13
ENDBRANCH   4   6
BRANCH   1  18
ATOM     16  C   UNL     1       6.310   3.987  14.648  0.00  0.00    +0.000 A 
ATOM     17  C   UNL     1       5.512   3.517  15.704  0.00  0.00    +0.000 A 
ATOM     18  C   UNL     1       5.389   4.230  16.895  0.00  0.00    +0.000 A 
ATOM     19  C   UNL     1       6.232   5.324  17.088  0.00  0.00    +0.000 A 
ATOM     20  C   UNL     1       7.127   5.751  16.092  0.00  0.00    +0.000 A 
ATOM     21  C   UNL     1       7.158   5.100  14.839  0.00  0.00    +0.000 A 
BRANCH  16  23
ATOM     22  C   UNL     1       5.024   3.503  12.719  0.00  0.00    +0.000 C 
ATOM     23  O   UNL     1       6.255   3.349  13.434  0.00  0.00    +0.000 OA
ENDBRANCH  16  23
BRANCH  20  24
ATOM     24  O   UNL     1       7.845   6.843  16.518  0.00  0.00    +0.000 OA
ATOM     25  C   UNL     1       7.511   7.473  17.743  0.00  0.00    +0.000 C 
ENDBRANCH  20  24
BRANCH  21  26
ATOM     26  O   UNL     1       8.022   5.623  13.917  0.00  0.00    +0.000 OA
ATOM     27  C   UNL     1       7.807   5.456  12.527  0.00  0.00    +0.000 C 
ENDBRANCH  21  26
ENDBRANCH   1  18
TORSDOF 6
ENDMDL
MODEL 2
REMARK VINA RESULT:      -7.6      0.410      2.615
REMARK  Name = 
REMARK  10 active torsions:
REMARK  status: ('A' for Active; 'I' for Inactive)
REMARK    1  A    between atoms: C_1  and  O_2
REMARK    2  A    between atoms: O_2  and  C_3
REMARK    3  A    between atoms: C_5  and  C_6
REMARK    4  A    between atoms: C_9  and  C_10
REMARK    5  A    between atoms: C_13  and  C_14
REMARK    6  A    between atoms: C_15  and  N_16
REMARK    7  A    between atoms: C_20  and  O_21
REMARK    8  A    between atoms: O_21  and  C_22
REMARK    9  A    between atoms: C_23  and  O_24
REMARK   10  A    between atoms: O_24  and  C_25
REMARK                            x       y       z     vdW  Elec       q    Type
REMARK                         _______ _______ _______ _____ _____    ______ ____
ROOT
ATOM      1  C   UNL     1       4.104   4.255  17.912  0.00  0.00    +0.000 C 
ATOM      2  C   UNL     1       2.732   3.810  17.427  0.00  0.00    +0.000 C 
ATOM      3  N   UNL     1       1.804   4.890  17.796  0.00  0.00    +0.000 NA
ATOM      4  C   UNL     1       2.529   5.699  18.507  0.00  0.00    +0.000 C 
ATOM      5  O   UNL     1       3.837   5.413  18.712  0.00  0.00    +0.000 OA
ENDROOT
BRANCH   4   6
ATOM      6  C   UNL     1       2.057   6.965  19.103  0.00  0.00    +0.000 A 
ATOM      7  C   UNL     1       1.695   6.965  20.451  0.00  0.00    +0.000 A 
ATOM      8  C   UNL     1       1.227   8.137  21.047  0.00  0.00    +0.000 A 
ATOM      9  C   UNL     1       1.083   9.313  20.295  0.00  0.00    +0.000 A 
ATOM     10  C   UNL     1       0.591  10.559  20.987  0.00  0.00    +0.000 C 
ATOM     11  C   UNL     1       1.390   9.306  18.925  0.00  0.00    +0.000 A 
ATOM     12  C   UNL     1       1.938   8.144  18.350  0.00  0.00    +0.000 A 
BRANCH  11  13
ATOM     13  N   UNL     1       1.373  10.483  18.161  0.00  0.00    +0.000 N 
ATOM     14  H   UNL     1       1.905  10.424  17.301  0.00  0.00    +0.000 HD
ATOM     15  H   UNL     1       1.594  11.323  18.687  0.00  0.00    +0.000 HD
ENDBRANCH  11  13
ENDBRANCH   4   6
BRANCH   1  18
ATOM     16  C   UNL     1       7.033   5.951  16.148  0.00  0.00    +0.000 A 
ATOM     17  C   UNL     1       5.924   5.750  16.987  0.00  0.00    +0.000 A 
ATOM     18  C   UNL     1       5.089   4.645  16.835  0.00  0.00    +0.000 A 
ATOM     19  C   UNL     1       5.266   3.846  15.706  0.00  0.00    +0.000 A 
ATOM     20  C   UNL     1       6.297   4.092  14.782  0.00  0.00    +0.000 A 
ATOM     21  C   UNL     1       7.219   5.138  15.008  0.00  0.00    +0.000 A 
BRANCH  16  23
ATOM     22  C   UNL     1       7.639   7.685  17.644  0.00  0.00    +0.000 C 
ATOM     23  O   UNL     1       7.927   6.948  16.450  0.00  0.00    +0.000 OA
ENDBRANCH  16  23
BRANCH  20  24
ATOM     24  O   UNL     1       6.265   3.173  13.761  0.00  0.00    +0.000 OA
ATOM     25  C   UNL     1       5.422   3.391  12.641  0.00  0.00    +0.000 C 
ENDBRANCH  20  24
BRANCH  21  26
ATOM     26  O   UNL     1       8.218   5.262  14.083  0.00  0.00    +0.000 OA
ATOM     27  C   UNL     1       7.963   5.778  12.789  0.00  0.00    +0.000 C 
ENDBRANCH  21  26
ENDBRANCH   1  18
TORSDOF 6
ENDMDL
MODEL 3
REMARK VINA RESULT:      -7.6      0.923      1.334
REMARK  Name = 
REMARK  10 active torsions:
REMARK  status: ('A' for Active; 'I' for Inactive)
REMARK    1  A    between atoms: C_1  and  O_2
REMARK    2  A    between atoms: O_2  and  C_3
REMARK    3  A    between atoms: C_5  and  C_6
REMARK    4  A    between atoms: C_9  and  C_10
REMARK    5  A    between atoms: C_13  and  C_14
REMARK    6  A    between atoms: C_15  and  N_16
REMARK    7  A    between atoms: C_20  and  O_21
REMARK    8  A    between atoms: O_21  and  C_22
REMARK    9  A    between atoms: C_23  and  O_24
REMARK   10  A    between atoms: O_24  and  C_25
REMARK                            x       y       z     vdW  Elec       q    Type
REMARK                         _______ _______ _______ _____ _____    ______ ____
ROOT
ATOM      1  C   UNL     1       4.291   3.933  17.849  0.00  0.00    +0.000 C 
ATOM      2  C   UNL     1       2.958   3.500  17.254  0.00  0.00    +0.000 C 
ATOM      3  N   UNL     1       2.032   4.620  17.485  0.00  0.00    +0.000 NA
ATOM      4  C   UNL     1       2.710   5.442  18.226  0.00  0.00    +0.000 C 
ATOM      5  O   UNL     1       3.983   5.133  18.567  0.00  0.00    +0.000 OA
ENDROOT
BRANCH   4   6
ATOM      6  C   UNL     1       2.222   6.747  18.716  0.00  0.00    +0.000 A 
ATOM      7  C   UNL     1       2.008   7.763  17.783  0.00  0.00    +0.000 A 
ATOM      8  C   UNL     1       1.564   9.016  18.208  0.00  0.00    +0.000 A 
ATOM      9  C   UNL     1       1.360   9.278  19.572  0.00  0.00    +0.000 A 
ATOM     10  C   UNL     1       0.862  10.641  19.981  0.00  0.00    +0.000 C 
ATOM     11  C   UNL     1       1.629   8.279  20.521  0.00  0.00    +0.000 A 
ATOM     12  C   UNL     1       1.998   6.994  20.080  0.00  0.00    +0.000 A 
BRANCH  11  13
ATOM     13  N   UNL     1       1.330   8.456  21.881  0.00  0.00    +0.000 N 
ATOM     14  H   UNL     1       0.917   7.642  22.321  0.00  0.00    +0.000 HD
ATOM     15  H   UNL     1       0.809   9.304  22.084  0.00  0.00    +0.000 HD
ENDBRANCH  11  13
ENDBRANCH   4   6
BRANCH   1  18
ATOM     16  C   UNL     1       6.311   3.990  14.612  0.00  0.00    +0.000 A 
ATOM     17  C   UNL     1       5.504   3.530  15.666  0.00  0.00    +0.000 A 
ATOM     18  C   UNL     1       5.384   4.246  16.855  0.00  0.00    +0.000 A 
ATOM     19  C   UNL     1       6.237   5.331  17.050  0.00  0.00    +0.000 A 
ATOM     20  C   UNL     1       7.141   5.747  16.057  0.00  0.00    +0.000 A 
ATOM     21  C   UNL     1       7.170   5.094  14.804  0.00  0.00    +0.000 A 
BRANCH  16  23
ATOM     22  C   UNL     1       5.013   3.482  12.698  0.00  0.00    +0.000 C 
ATOM     23  O   UNL     1       6.255   3.351  13.399  0.00  0.00    +0.000 OA
ENDBRANCH  16  23
BRANCH  20  24
ATOM     24  O   UNL     1       7.868   6.833  16.484  0.00  0.00    +0.000 OA
ATOM     25  C   UNL     1       7.578   7.428  17.738  0.00  0.00    +0.000 C 
ENDBRANCH  20  24
BRANCH  21  26
ATOM     26  O   UNL     1       8.043   5.607  13.886  0.00  0.00    +0.000 OA
ATOM     27  C   UNL     1       7.827   5.448  12.495  0.00  0.00    +0.000 C 
ENDBRANCH  21  26
ENDBRANCH   1  18
TORSDOF 6
ENDMDL
MODEL 4
REMARK VINA RESULT:      -7.5      4.665      9.293
REMARK  Name = 
REMARK  10 active torsions:
REMARK  status: ('A' for Active; 'I' for Inactive)
REMARK    1  A    between atoms: C_1  and  O_2
REMARK    2  A    between atoms: O_2  and  C_3
REMARK    3  A    between atoms: C_5  and  C_6
REMARK    4  A    between atoms: C_9  and  C_10
REMARK    5  A    between atoms: C_13  and  C_14
REMARK    6  A    between atoms: C_15  and  N_16
REMARK    7  A    between atoms: C_20  and  O_21
REMARK    8  A    between atoms: O_21  and  C_22
REMARK    9  A    between atoms: C_23  and  O_24
REMARK   10  A    between atoms: O_24  and  C_25
REMARK                            x       y       z     vdW  Elec       q    Type
REMARK                         _______ _______ _______ _____ _____    ______ ____
ROOT
ATOM      1  C   UNL     1       1.169  10.366  19.092  0.00  0.00    +0.000 C 
ATOM      2  C   UNL     1       1.991  10.305  17.812  0.00  0.00    +0.000 C 
ATOM      3  N   UNL     1       2.369   8.893  17.643  0.00  0.00    +0.000 NA
ATOM      4  C   UNL     1       1.960   8.325  18.736  0.00  0.00    +0.000 C 
ATOM      5  O   UNL     1       1.329   9.068  19.676  0.00  0.00    +0.000 OA
ENDROOT
BRANCH   4   6
ATOM      6  C   UNL     1       2.087   6.886  19.046  0.00  0.00    +0.000 A 
ATOM      7  C   UNL     1       1.894   6.477  20.367  0.00  0.00    +0.000 A 
ATOM      8  C   UNL     1       2.023   5.129  20.704  0.00  0.00    +0.000 A 
ATOM      9  C   UNL     1       2.378   4.180  19.734  0.00  0.00    +0.000 A 
ATOM     10  C   UNL     1       2.487   2.732  20.142  0.00  0.00    +0.000 C 
ATOM     11  C   UNL     1       2.630   4.591  18.416  0.00  0.00    +0.000 A 
ATOM     12  C   UNL     1       2.419   5.939  18.065  0.00  0.00    +0.000 A 
BRANCH  11  13
ATOM     13  N   UNL     1       2.873   3.666  17.389  0.00  0.00    +0.000 N 
ATOM     14  H   UNL     1       2.353   3.847  16.538  0.00  0.00    +0.000 HD
ATOM     15  H   UNL     1       2.800   2.696  17.679  0.00  0.00    +0.000 HD
ENDBRANCH  11  13
ENDBRANCH   4   6
BRANCH   1  18
ATOM     16  C   UNL     1      -2.269  11.993  19.400  0.00  0.00    +0.000 A 
ATOM     17  C   UNL     1      -0.987  11.524  19.732  0.00  0.00    +0.000 A 
ATOM     18  C   UNL     1      -0.308  10.623  18.913  0.00  0.00    +0.000 A 
ATOM     19  C   UNL     1      -1.011  10.049  17.855  0.00  0.00    +0.000 A 
ATOM     20  C   UNL     1      -2.337  10.413  17.566  0.00  0.00    +0.000 A 
ATOM     21  C   UNL     1      -2.979  11.419  18.323  0.00  0.00    +0.000 A 
BRANCH  16  23
ATOM     22  C   UNL     1      -3.283  12.642  21.439  0.00  0.00    +0.000 C 
ATOM     23  O   UNL     1      -2.818  13.013  20.136  0.00  0.00    +0.000 OA
ENDBRANCH  16  23
BRANCH  20  24
ATOM     24  O   UNL     1      -2.810   9.713  16.482  0.00  0.00    +0.000 OA
ATOM     25  C   UNL     1      -2.808  10.313  15.198  0.00  0.00    +0.000 C 
ENDBRANCH  20  24
BRANCH  21  26
ATOM     26  O   UNL     1      -4.248  11.742  17.930  0.00  0.00    +0.000 OA
ATOM     27  C   UNL     1      -5.379  11.111  18.502  0.00  0.00    +0.000 C 
ENDBRANCH  21  26
ENDBRANCH   1  18
TORSDOF 6
ENDMDL
MODEL 5
REMARK VINA RESULT:      -7.3      4.679      9.193
REMARK  Name = 
REMARK  10 active torsions:
REMARK  status: ('A' for Active; 'I' for Inactive)
REMARK    1  A    between atoms: C_1  and  O_2
REMARK    2  A    between atoms: O_2  and  C_3
REMARK    3  A    between atoms: C_5  and  C_6
REMARK    4  A    between atoms: C_9  and  C_10
REMARK    5  A    between atoms: C_13  and  C_14
REMARK    6  A    between atoms: C_15  and  N_16
REMARK    7  A    between atoms: C_20  and  O_21
REMARK    8  A    between atoms: O_21  and  C_22
REMARK    9  A    between atoms: C_23  and  O_24
REMARK   10  A    between atoms: O_24  and  C_25
REMARK                            x       y       z     vdW  Elec       q    Type
REMARK                         _______ _______ _______ _____ _____    ______ ____
ROOT
ATOM      1  C   UNL     1       1.290  10.042  19.086  0.00  0.00    +0.000 C 
ATOM      2  C   UNL     1       2.164  10.041  17.840  0.00  0.00    +0.000 C 
ATOM      3  N   UNL     1       2.516   8.634  17.597  0.00  0.00    +0.000 NA
ATOM      4  C   UNL     1       2.049   8.008  18.633  0.00  0.00    +0.000 C 
ATOM      5  O   UNL     1       1.396   8.706  19.592  0.00  0.00    +0.000 OA
ENDROOT
BRANCH   4   6
ATOM      6  C   UNL     1       2.130   6.550  18.856  0.00  0.00    +0.000 A 
ATOM      7  C   UNL     1       2.164   5.714  17.738  0.00  0.00    +0.000 A 
ATOM      8  C   UNL     1       2.223   4.329  17.906  0.00  0.00    +0.000 A 
ATOM      9  C   UNL     1       2.215   3.764  19.190  0.00  0.00    +0.000 A 
ATOM     10  C   UNL     1       2.299   2.264  19.322  0.00  0.00    +0.000 C 
ATOM     11  C   UNL     1       2.123   4.595  20.317  0.00  0.00    +0.000 A 
ATOM     12  C   UNL     1       2.146   5.992  20.144  0.00  0.00    +0.000 A 
BRANCH  11  13
ATOM     13  N   UNL     1       2.229   4.084  21.620  0.00  0.00    +0.000 N 
ATOM     14  H   UNL     1       2.215   3.072  21.669  0.00  0.00    +0.000 HD
ATOM     15  H   UNL     1       1.585   4.504  22.284  0.00  0.00    +0.000 HD
ENDBRANCH  11  13
ENDBRANCH   4   6
BRANCH   1  18
ATOM     16  C   UNL     1      -2.126  11.718  19.374  0.00  0.00    +0.000 A 
ATOM     17  C   UNL     1      -0.870  11.193  19.723  0.00  0.00    +0.000 A 
ATOM     18  C   UNL     1      -0.172  10.347  18.865  0.00  0.00    +0.000 A 
ATOM     19  C   UNL     1      -0.837   9.877  17.733  0.00  0.00    +0.000 A 
ATOM     20  C   UNL     1      -2.141  10.294  17.416  0.00  0.00    +0.000 A 
ATOM     21  C   UNL     1      -2.797  11.249  18.224  0.00  0.00    +0.000 A 
BRANCH  16  23
ATOM     22  C   UNL     1      -1.788  13.333  21.074  0.00  0.00    +0.000 C 
ATOM     23  O   UNL     1      -2.689  12.687  20.167  0.00  0.00    +0.000 OA
ENDBRANCH  16  23
BRANCH  20  24
ATOM     24  O   UNL     1      -2.577   9.694  16.259  0.00  0.00    +0.000 OA
ATOM     25  C   UNL     1      -2.839  10.482  15.110  0.00  0.00    +0.000 C 
ENDBRANCH  20  24
BRANCH  21  26
ATOM     26  O   UNL     1      -4.041  11.632  17.803  0.00  0.00    +0.000 OA
ATOM     27  C   UNL     1      -5.206  10.952  18.234  0.00  0.00    +0.000 C 
ENDBRANCH  21  26
ENDBRANCH   1  18
TORSDOF 6
ENDMDL
MODEL 6
REMARK VINA RESULT:      -7.3      3.258      6.124
REMARK  Name = 
REMARK  10 active torsions:
REMARK  status: ('A' for Active; 'I' for Inactive)
REMARK    1  A    between atoms: C_1  and  O_2
REMARK    2  A    between atoms: O_2  and  C_3
REMARK    3  A    between atoms: C_5  and  C_6
REMARK    4  A    between atoms: C_9  and  C_10
REMARK    5  A    between atoms: C_13  and  C_14
REMARK    6  A    between atoms: C_15  and  N_16
REMARK    7  A    between atoms: C_20  and  O_21
REMARK    8  A    between atoms: O_21  and  C_22
REMARK    9  A    between atoms: C_23  and  O_24
REMARK   10  A    between atoms: O_24  and  C_25
REMARK                            x       y       z     vdW  Elec       q    Type
REMARK                         _______ _______ _______ _____ _____    ______ ____
ROOT
ATOM      1  C   UNL     1       1.933   8.616  20.308  0.00  0.00    +0.000 C 
ATOM      2  C   UNL     1       1.104   8.767  21.575  0.00  0.00    +0.000 C 
ATOM      3  N   UNL     1      -0.202   9.286  21.142  0.00  0.00    +0.000 NA
ATOM      4  C   UNL     1      -0.041   9.530  19.878  0.00  0.00    +0.000 C 
ATOM      5  O   UNL     1       1.152   9.264  19.297  0.00  0.00    +0.000 OA
ENDROOT
BRANCH   4   6
ATOM      6  C   UNL     1      -1.085  10.051  18.971  0.00  0.00    +0.000 A 
ATOM      7  C   UNL     1      -1.129   9.559  17.666  0.00  0.00    +0.000 A 
ATOM      8  C   UNL     1      -2.089  10.040  16.773  0.00  0.00    +0.000 A 
ATOM      9  C   UNL     1      -2.992  11.040  17.164  0.00  0.00    +0.000 A 
ATOM     10  C   UNL     1      -4.022  11.514  16.170  0.00  0.00    +0.000 C 
ATOM     11  C   UNL     1      -2.916  11.581  18.457  0.00  0.00    +0.000 A 
ATOM     12  C   UNL     1      -2.000  11.036  19.377  0.00  0.00    +0.000 A 
BRANCH  11  13
ATOM     13  N   UNL     1      -3.868  12.497  18.930  0.00  0.00    +0.000 N 
ATOM     14  H   UNL     1      -3.596  12.971  19.783  0.00  0.00    +0.000 HD
ATOM     15  H   UNL     1      -4.811  12.122  18.987  0.00  0.00    +0.000 HD
ENDBRANCH  11  13
ENDBRANCH   4   6
BRANCH   1  18
ATOM     16  C   UNL     1       1.635   4.827  19.971  0.00  0.00    +0.000 A 
ATOM     17  C   UNL     1       1.644   6.113  20.535  0.00  0.00    +0.000 A 
ATOM     18  C   UNL     1       2.200   7.199  19.861  0.00  0.00    +0.000 A 
ATOM     19  C   UNL     1       2.921   6.940  18.696  0.00  0.00    +0.000 A 
ATOM     20  C   UNL     1       3.029   5.642  18.167  0.00  0.00    +0.000 A 
ATOM     21  C   UNL     1       2.358   4.565  18.787  0.00  0.00    +0.000 A 
BRANCH  16  23
ATOM     22  C   UNL     1       1.620   3.118  21.611  0.00  0.00    +0.000 C 
ATOM     23  O   UNL     1       0.917   3.832  20.587  0.00  0.00    +0.000 OA
ENDBRANCH  16  23
BRANCH  20  24
ATOM     24  O   UNL     1       3.787   5.645  17.021  0.00  0.00    +0.000 OA
ATOM     25  C   UNL     1       5.191   5.471  17.102  0.00  0.00    +0.000 C 
ENDBRANCH  20  24
BRANCH  21  26
ATOM     26  O   UNL     1       2.478   3.352  18.166  0.00  0.00    +0.000 OA
ATOM     27  C   UNL     1       3.481   2.427  18.544  0.00  0.00    +0.000 C 
ENDBRANCH  21  26
ENDBRANCH   1  18
TORSDOF 6
ENDMDL
MODEL 7
REMARK VINA RESULT:      -7.2      1.096      2.962
REMARK  Name = 
REMARK  10 active torsions:
REMARK  status: ('A' for Active; 'I' for Inactive)
REMARK    1  A    between atoms: C_1  and  O_2
REMARK    2  A    between atoms: O_2  and  C_3
REMARK    3  A    between atoms: C_5  and  C_6
REMARK    4  A    between atoms: C_9  and  C_10
REMARK    5  A    between atoms: C_13  and  C_14
REMARK    6  A    between atoms: C_15  and  N_16
REMARK    7  A    between atoms: C_20  and  O_21
REMARK    8  A    between atoms: O_21  and  C_22
REMARK    9  A    between atoms: C_23  and  O_24
REMARK   10  A    between atoms: O_24  and  C_25
REMARK                            x       y       z     vdW  Elec       q    Type
REMARK                         _______ _______ _______ _____ _____    ______ ____
ROOT
ATOM      1  C   UNL     1       4.065   4.537  18.070  0.00  0.00    +0.000 C 
ATOM      2  C   UNL     1       2.704   4.029  17.614  0.00  0.00    +0.000 C 
ATOM      3  N   UNL     1       1.756   5.122  17.880  0.00  0.00    +0.000 NA
ATOM      4  C   UNL     1       2.462   6.001  18.524  0.00  0.00    +0.000 C 
ATOM      5  O   UNL     1       3.771   5.755  18.764  0.00  0.00    +0.000 OA
ENDROOT
BRANCH   4   6
ATOM      6  C   UNL     1       1.964   7.306  19.003  0.00  0.00    +0.000 A 
ATOM      7  C   UNL     1       1.815   8.336  18.073  0.00  0.00    +0.000 A 
ATOM      8  C   UNL     1       1.365   9.590  18.488  0.00  0.00    +0.000 A 
ATOM      9  C   UNL     1       1.090   9.839  19.841  0.00  0.00    +0.000 A 
ATOM     10  C   UNL     1       0.587  11.204  20.240  0.00  0.00    +0.000 C 
ATOM     11  C   UNL     1       1.292   8.826  20.791  0.00  0.00    +0.000 A 
ATOM     12  C   UNL     1       1.668   7.541  20.356  0.00  0.00    +0.000 A 
BRANCH  11  13
ATOM     13  N   UNL     1       0.921   8.991  22.135  0.00  0.00    +0.000 N 
ATOM     14  H   UNL     1       1.561   9.565  22.672  0.00  0.00    +0.000 HD
ATOM     15  H   UNL     1       0.698   8.123  22.613  0.00  0.00    +0.000 HD
ENDBRANCH  11  13
ENDBRANCH   4   6
BRANCH   1  18
ATOM     16  C   UNL     1       7.038   6.053  16.221  0.00  0.00    +0.000 A 
ATOM     17  C   UNL     1       5.930   5.926  17.075  0.00  0.00    +0.000 A 
ATOM     18  C   UNL     1       5.053   4.847  16.972  0.00  0.00    +0.000 A 
ATOM     19  C   UNL     1       5.191   4.000  15.873  0.00  0.00    +0.000 A 
ATOM     20  C   UNL     1       6.223   4.171  14.934  0.00  0.00    +0.000 A 
ATOM     21  C   UNL     1       7.185   5.190  15.112  0.00  0.00    +0.000 A 
BRANCH  16  23
ATOM     22  C   UNL     1       7.683   7.866  17.601  0.00  0.00    +0.000 C 
ATOM     23  O   UNL     1       7.971   7.026  16.477  0.00  0.00    +0.000 OA
ENDBRANCH  16  23
BRANCH  20  24
ATOM     24  O   UNL     1       6.148   3.215  13.949  0.00  0.00    +0.000 OA
ATOM     25  C   UNL     1       5.427   3.484  12.757  0.00  0.00    +0.000 C 
ENDBRANCH  20  24
BRANCH  21  26
ATOM     26  O   UNL     1       8.180   5.241  14.176  0.00  0.00    +0.000 OA
ATOM     27  C   UNL     1       7.947   5.765  12.881  0.00  0.00    +0.000 C 
ENDBRANCH  21  26
ENDBRANCH   1  18
TORSDOF 6
ENDMDL
MODEL 8
REMARK VINA RESULT:      -7.2      3.346      6.167
REMARK  Name = 
REMARK  10 active torsions:
REMARK  status: ('A' for Active; 'I' for Inactive)
REMARK    1  A    between atoms: C_1  and  O_2
REMARK    2  A    between atoms: O_2  and  C_3
REMARK    3  A    between atoms: C_5  and  C_6
REMARK    4  A    between atoms: C_9  and  C_10
REMARK    5  A    between atoms: C_13  and  C_14
REMARK    6  A    between atoms: C_15  and  N_16
REMARK    7  A    between atoms: C_20  and  O_21
REMARK    8  A    between atoms: O_21  and  C_22
REMARK    9  A    between atoms: C_23  and  O_24
REMARK   10  A    between atoms: O_24  and  C_25
REMARK                            x       y       z     vdW  Elec       q    Type
REMARK                         _______ _______ _______ _____ _____    ______ ____
ROOT
ATOM      1  C   UNL     1       1.830   8.869  20.131  0.00  0.00    +0.000 C 
ATOM      2  C   UNL     1       1.053   9.047  21.427  0.00  0.00    +0.000 C 
ATOM      3  N   UNL     1      -0.279   9.531  21.036  0.00  0.00    +0.000 NA
ATOM      4  C   UNL     1      -0.176   9.738  19.758  0.00  0.00    +0.000 C 
ATOM      5  O   UNL     1       0.996   9.472  19.135  0.00  0.00    +0.000 OA
ENDROOT
BRANCH   4   6
ATOM      6  C   UNL     1      -1.266  10.214  18.882  0.00  0.00    +0.000 A 
ATOM      7  C   UNL     1      -1.307   9.747  17.568  0.00  0.00    +0.000 A 
ATOM      8  C   UNL     1      -2.310  10.187  16.703  0.00  0.00    +0.000 A 
ATOM      9  C   UNL     1      -3.263  11.123  17.131  0.00  0.00    +0.000 A 
ATOM     10  C   UNL     1      -4.339  11.555  16.167  0.00  0.00    +0.000 C 
ATOM     11  C   UNL     1      -3.194  11.642  18.434  0.00  0.00    +0.000 A 
ATOM     12  C   UNL     1      -2.230  11.134  19.326  0.00  0.00    +0.000 A 
BRANCH  11  13
ATOM     13  N   UNL     1      -4.190  12.489  18.943  0.00  0.00    +0.000 N 
ATOM     14  H   UNL     1      -3.836  13.236  19.530  0.00  0.00    +0.000 HD
ATOM     15  H   UNL     1      -4.967  12.002  19.378  0.00  0.00    +0.000 HD
ENDBRANCH  11  13
ENDBRANCH   4   6
BRANCH   1  18
ATOM     16  C   UNL     1       3.231   5.874  18.226  0.00  0.00    +0.000 A 
ATOM     17  C   UNL     1       2.708   7.149  18.496  0.00  0.00    +0.000 A 
ATOM     18  C   UNL     1       2.102   7.442  19.716  0.00  0.00    +0.000 A 
ATOM     19  C   UNL     1       1.853   6.385  20.590  0.00  0.00    +0.000 A 
ATOM     20  C   UNL     1       2.262   5.073  20.296  0.00  0.00    +0.000 A 
ATOM     21  C   UNL     1       2.988   4.803  19.114  0.00  0.00    +0.000 A 
BRANCH  16  23
ATOM     22  C   UNL     1       5.299   6.237  17.130  0.00  0.00    +0.000 C 
ATOM     23  O   UNL     1       3.978   5.684  17.090  0.00  0.00    +0.000 OA
ENDBRANCH  16  23
BRANCH  20  24
ATOM     24  O   UNL     1       1.904   4.213  21.306  0.00  0.00    +0.000 OA
ATOM     25  C   UNL     1       1.146   3.052  21.010  0.00  0.00    +0.000 C 
ENDBRANCH  20  24
BRANCH  21  26
ATOM     26  O   UNL     1       3.389   3.507  18.945  0.00  0.00    +0.000 OA
ATOM     27  C   UNL     1       4.625   3.045  19.459  0.00  0.00    +0.000 C 
ENDBRANCH  21  26
ENDBRANCH   1  18
TORSDOF 6
ENDMDL
MODEL 9
REMARK VINA RESULT:      -7.2      3.238      5.976
REMARK  Name = 
REMARK  10 active torsions:
REMARK  status: ('A' for Active; 'I' for Inactive)
REMARK    1  A    between atoms: C_1  and  O_2
REMARK    2  A    between atoms: O_2  and  C_3
REMARK    3  A    between atoms: C_5  and  C_6
REMARK    4  A    between atoms: C_9  and  C_10
REMARK    5  A    between atoms: C_13  and  C_14
REMARK    6  A    between atoms: C_15  and  N_16
REMARK    7  A    between atoms: C_20  and  O_21
REMARK    8  A    between atoms: O_21  and  C_22
REMARK    9  A    between atoms: C_23  and  O_24
REMARK   10  A    between atoms: O_24  and  C_25
REMARK                            x       y       z     vdW  Elec       q    Type
REMARK                         _______ _______ _______ _____ _____    ______ ____
ROOT
ATOM      1  C   UNL     1       1.877   8.757  19.919  0.00  0.00    +0.000 C 
ATOM      2  C   UNL     1       1.134   8.908  21.238  0.00  0.00    +0.000 C 
ATOM      3  N   UNL     1      -0.197   9.431  20.895  0.00  0.00    +0.000 NA
ATOM      4  C   UNL     1      -0.120   9.677  19.623  0.00  0.00    +0.000 C 
ATOM      5  O   UNL     1       1.032   9.409  18.963  0.00  0.00    +0.000 OA
ENDROOT
BRANCH   4   6
ATOM      6  C   UNL     1      -1.220  10.204  18.789  0.00  0.00    +0.000 A 
ATOM      7  C   UNL     1      -2.053  11.180  19.338  0.00  0.00    +0.000 A 
ATOM      8  C   UNL     1      -3.115  11.690  18.590  0.00  0.00    +0.000 A 
ATOM      9  C   UNL     1      -3.376  11.208  17.298  0.00  0.00    +0.000 A 
ATOM     10  C   UNL     1      -4.523  11.804  16.521  0.00  0.00    +0.000 C 
ATOM     11  C   UNL     1      -2.578  10.186  16.761  0.00  0.00    +0.000 A 
ATOM     12  C   UNL     1      -1.460   9.733  17.489  0.00  0.00    +0.000 A 
BRANCH  11  13
ATOM     13  N   UNL     1      -2.728   9.754  15.434  0.00  0.00    +0.000 N 
ATOM     14  H   UNL     1      -3.525   9.147  15.286  0.00  0.00    +0.000 HD
ATOM     15  H   UNL     1      -1.880   9.375  15.023  0.00  0.00    +0.000 HD
ENDBRANCH  11  13
ENDBRANCH   4   6
BRANCH   1  18
ATOM     16  C   UNL     1       3.355   5.773  18.055  0.00  0.00    +0.000 A 
ATOM     17  C   UNL     1       2.887   7.070  18.328  0.00  0.00    +0.000 A 
ATOM     18  C   UNL     1       2.109   7.340  19.452  0.00  0.00    +0.000 A 
ATOM     19  C   UNL     1       1.642   6.257  20.195  0.00  0.00    +0.000 A 
ATOM     20  C   UNL     1       1.998   4.935  19.877  0.00  0.00    +0.000 A 
ATOM     21  C   UNL     1       2.889   4.676  18.811  0.00  0.00    +0.000 A 
BRANCH  16  23
ATOM     22  C   UNL     1       4.959   6.772  16.627  0.00  0.00    +0.000 C 
ATOM     23  O   UNL     1       4.265   5.590  17.044  0.00  0.00    +0.000 OA
ENDBRANCH  16  23
BRANCH  20  24
ATOM     24  O   UNL     1       1.414   4.050  20.751  0.00  0.00    +0.000 OA
ATOM     25  C   UNL     1       2.202   3.418  21.747  0.00  0.00    +0.000 C 
ENDBRANCH  20  24
BRANCH  21  26
ATOM     26  O   UNL     1       3.218   3.363  18.616  0.00  0.00    +0.000 OA
ATOM     27  C   UNL     1       2.495   2.550  17.709  0.00  0.00    +0.000 C 
ENDBRANCH  21  26
ENDBRANCH   1  18
TORSDOF 6
ENDMDL
