MODEL 1
REMARK VINA RESULT:      -7.9      0.000      0.000
REMARK  Name = 
REMARK  4 active torsions:
REMARK  status: ('A' for Active; 'I' for Inactive)
REMARK    1  A    between atoms: N_3  and  C_4
REMARK    2  A    between atoms: C_15  and  C_16
REMARK    3  A    between atoms: C_16  and  O_17
REMARK    4  A    between atoms: O_17  and  C_18
REMARK                            x       y       z     vdW  Elec       q    Type
REMARK                         _______ _______ _______ _____ _____    ______ ____
ROOT
ATOM      1  O   UNL     1       2.648   6.412  19.604  0.00  0.00    +0.000 OA
ATOM      2  C   UNL     1       3.166   6.928  18.625  0.00  0.00    +0.000 C 
ATOM      3  N   UNL     1       2.658   8.117  18.154  0.00  0.00    +0.000 N 
ATOM      4  N   UNL     1       4.210   6.252  18.010  0.00  0.00    +0.000 N 
ATOM      5  C   UNL     1       4.958   6.743  16.844  0.00  0.00    +0.000 C 
ATOM      6  C   UNL     1       6.461   6.738  17.167  0.00  0.00    +0.000 C 
ATOM      7  N   UNL     1       6.884   5.402  17.611  0.00  0.00    +0.000 NA
ATOM      8  C   UNL     1       6.160   5.017  18.829  0.00  0.00    +0.000 C 
ATOM      9  C   UNL     1       4.649   4.953  18.544  0.00  0.00    +0.000 C 
ATOM     10  H   UNL     1       3.005   8.507  17.273  0.00  0.00    +0.000 HD
ATOM     11  H   UNL     1       7.907   5.430  17.829  0.00  0.00    +0.000 HD
ENDROOT
BRANCH   3  12
ATOM     12  C   UNL     1       1.560   8.846  18.739  0.00  0.00    +0.000 A 
ATOM     13  C   UNL     1       1.308   8.906  20.134  0.00  0.00    +0.000 A 
ATOM     14  C   UNL     1       0.211   9.612  20.631  0.00  0.00    +0.000 A 
ATOM     15  C   UNL     1      -0.652  10.273  19.760  0.00  0.00    +0.000 A 
ATOM     16  C   UNL     1      -0.411  10.246  18.387  0.00  0.00    +0.000 A 
ATOM     17  C   UNL     1       0.689   9.545  17.880  0.00  0.00    +0.000 A 
ENDBRANCH   3  12
BRANCH   9  18
ATOM     18  C   UNL     1       4.303   3.820  17.567  0.00  0.00    +0.000 C 
BRANCH  18  19
ATOM     19  O   UNL     1       3.849   2.728  18.275  0.00  0.00    +0.000 OA
BRANCH  19  20
ATOM     20  C   UNL     1       3.037   2.776  19.358  0.00  0.00    +0.000 A 
ATOM     21  C   UNL     1       1.666   3.081  19.270  0.00  0.00    +0.000 A 
ATOM     22  C   UNL     1       0.885   3.108  20.424  0.00  0.00    +0.000 A 
ATOM     23  C   UNL     1       1.478   2.831  21.658  0.00  0.00    +0.000 A 
ATOM     24  N   UNL     1       2.804   2.539  21.727  0.00  0.00    +0.000 NA
ATOM     25  C   UNL     1       3.587   2.507  20.615  0.00  0.00    +0.000 A 
ENDBRANCH  19  20
ENDBRANCH  18  19
ENDBRANCH   9  18
TORSDOF 4
ENDMDL
MODEL 2
REMARK VINA RESULT:      -7.9      2.634      5.060
REMARK  Name = 
REMARK  4 active torsions:
REMARK  status: ('A' for Active; 'I' for Inactive)
REMARK    1  A    between atoms: N_3  and  C_4
REMARK    2  A    between atoms: C_15  and  C_16
REMARK    3  A    between atoms: C_16  and  O_17
REMARK    4  A    between atoms: O_17  and  C_18
REMARK                            x       y       z     vdW  Elec       q    Type
REMARK                         _______ _______ _______ _____ _____    ______ ____
ROOT
ATOM      1  O   UNL     1       2.158   5.643  17.759  0.00  0.00    +0.000 OA
ATOM      2  C   UNL     1       2.866   5.416  18.728  0.00  0.00    +0.000 C 
ATOM      3  N   UNL     1       2.865   6.309  19.775  0.00  0.00    +0.000 N 
ATOM      4  N   UNL     1       3.676   4.290  18.691  0.00  0.00    +0.000 N 
ATOM      5  C   UNL     1       4.564   3.858  19.779  0.00  0.00    +0.000 C 
ATOM      6  C   UNL     1       4.248   2.398  20.143  0.00  0.00    +0.000 C 
ATOM      7  N   UNL     1       4.329   1.544  18.949  0.00  0.00    +0.000 NA
ATOM      8  C   UNL     1       3.353   1.980  17.943  0.00  0.00    +0.000 C 
ATOM      9  C   UNL     1       3.661   3.422  17.502  0.00  0.00    +0.000 C 
ATOM     10  H   UNL     1       3.532   6.194  20.544  0.00  0.00    +0.000 HD
ATOM     11  H   UNL     1       4.104   0.560  19.224  0.00  0.00    +0.000 HD
ENDROOT
BRANCH   3  12
ATOM     12  C   UNL     1       2.064   7.504  19.852  0.00  0.00    +0.000 A 
ATOM     13  C   UNL     1       1.296   7.868  20.988  0.00  0.00    +0.000 A 
ATOM     14  C   UNL     1       0.523   9.030  20.984  0.00  0.00    +0.000 A 
ATOM     15  C   UNL     1       0.498   9.854  19.862  0.00  0.00    +0.000 A 
ATOM     16  C   UNL     1       1.263   9.528  18.742  0.00  0.00    +0.000 A 
ATOM     17  C   UNL     1       2.044   8.368  18.738  0.00  0.00    +0.000 A 
ENDBRANCH   3  12
BRANCH   9  18
ATOM     18  C   UNL     1       4.994   3.514  16.747  0.00  0.00    +0.000 C 
BRANCH  18  19
ATOM     19  O   UNL     1       4.791   4.133  15.532  0.00  0.00    +0.000 OA
BRANCH  19  20
ATOM     20  C   UNL     1       5.743   4.353  14.594  0.00  0.00    +0.000 A 
ATOM     21  C   UNL     1       5.713   3.750  13.323  0.00  0.00    +0.000 A 
ATOM     22  C   UNL     1       6.722   4.024  12.401  0.00  0.00    +0.000 A 
ATOM     23  C   UNL     1       7.752   4.899  12.754  0.00  0.00    +0.000 A 
ATOM     24  N   UNL     1       7.767   5.472  13.987  0.00  0.00    +0.000 NA
ATOM     25  C   UNL     1       6.795   5.220  14.904  0.00  0.00    +0.000 A 
ENDBRANCH  19  20
ENDBRANCH  18  19
ENDBRANCH   9  18
TORSDOF 4
ENDMDL
MODEL 3
REMARK VINA RESULT:      -7.9      2.104      4.632
REMARK  Name = 
REMARK  4 active torsions:
REMARK  status: ('A' for Active; 'I' for Inactive)
REMARK    1  A    between atoms: N_3  and  C_4
REMARK    2  A    between atoms: C_15  and  C_16
REMARK    3  A    between atoms: C_16  and  O_17
REMARK    4  A    between atoms: O_17  and  C_18
REMARK                            x       y       z     vdW  Elec       q    Type
REMARK                         _______ _______ _______ _____ _____    ______ ____
ROOT
ATOM      1  O   UNL     1       2.168   7.829  19.126  0.00  0.00    +0.000 OA
ATOM      2  C   UNL     1       2.003   7.038  20.042  0.00  0.00    +0.000 C 
ATOM      3  N   UNL     1       1.332   7.458  21.169  0.00  0.00    +0.000 N 
ATOM      4  N   UNL     1       2.553   5.771  19.915  0.00  0.00    +0.000 N 
ATOM      5  C   UNL     1       2.425   4.695  20.908  0.00  0.00    +0.000 C 
ATOM      6  C   UNL     1       1.865   3.437  20.224  0.00  0.00    +0.000 C 
ATOM      7  N   UNL     1       2.697   3.069  19.069  0.00  0.00    +0.000 NA
ATOM      8  C   UNL     1       2.705   4.154  18.081  0.00  0.00    +0.000 C 
ATOM      9  C   UNL     1       3.310   5.426  18.700  0.00  0.00    +0.000 C 
ATOM     10  H   UNL     1       1.281   6.847  21.989  0.00  0.00    +0.000 HD
ATOM     11  H   UNL     1       2.290   2.216  18.621  0.00  0.00    +0.000 HD
ENDROOT
BRANCH   3  12
ATOM     12  C   UNL     1       0.765   8.769  21.362  0.00  0.00    +0.000 A 
ATOM     13  C   UNL     1       0.816   9.801  20.392  0.00  0.00    +0.000 A 
ATOM     14  C   UNL     1       0.266  11.057  20.656  0.00  0.00    +0.000 A 
ATOM     15  C   UNL     1      -0.346  11.312  21.881  0.00  0.00    +0.000 A 
ATOM     16  C   UNL     1      -0.427  10.305  22.841  0.00  0.00    +0.000 A 
ATOM     17  C   UNL     1       0.117   9.042  22.583  0.00  0.00    +0.000 A 
ENDBRANCH   3  12
BRANCH   9  18
ATOM     18  C   UNL     1       4.800   5.247  19.024  0.00  0.00    +0.000 C 
BRANCH  18  19
ATOM     19  O   UNL     1       5.328   4.257  18.221  0.00  0.00    +0.000 OA
BRANCH  19  20
ATOM     20  C   UNL     1       5.892   4.450  17.006  0.00  0.00    +0.000 A 
ATOM     21  C   UNL     1       5.503   3.729  15.862  0.00  0.00    +0.000 A 
ATOM     22  C   UNL     1       6.121   3.981  14.639  0.00  0.00    +0.000 A 
ATOM     23  C   UNL     1       7.121   4.953  14.565  0.00  0.00    +0.000 A 
ATOM     24  N   UNL     1       7.487   5.641  15.679  0.00  0.00    +0.000 NA
ATOM     25  C   UNL     1       6.899   5.412  16.884  0.00  0.00    +0.000 A 
ENDBRANCH  19  20
ENDBRANCH  18  19
ENDBRANCH   9  18
TORSDOF 4
ENDMDL
MODEL 4
REMARK VINA RESULT:      -7.8      0.097      1.011
REMARK  Name = 
REMARK  4 active torsions:
REMARK  status: ('A' for Active; 'I' for Inactive)
REMARK    1  A    between atoms: N_3  and  C_4
REMARK    2  A    between atoms: C_15  and  C_16
REMARK    3  A    between atoms: C_16  and  O_17
REMARK    4  A    between atoms: O_17  and  C_18
REMARK                            x       y       z     vdW  Elec       q    Type
REMARK                         _______ _______ _______ _____ _____    ______ ____
ROOT
ATOM      1  O   UNL     1       2.692   6.413  19.574  0.00  0.00    +0.000 OA
ATOM      2  C   UNL     1       3.211   6.910  18.586  0.00  0.00    +0.000 C 
ATOM      3  N   UNL     1       2.695   8.083  18.084  0.00  0.00    +0.000 N 
ATOM      4  N   UNL     1       4.264   6.229  17.993  0.00  0.00    +0.000 N 
ATOM      5  C   UNL     1       5.015   6.699  16.821  0.00  0.00    +0.000 C 
ATOM      6  C   UNL     1       6.516   6.715  17.152  0.00  0.00    +0.000 C 
ATOM      7  N   UNL     1       6.948   5.394  17.630  0.00  0.00    +0.000 NA
ATOM      8  C   UNL     1       6.221   5.031  18.852  0.00  0.00    +0.000 C 
ATOM      9  C   UNL     1       4.712   4.947  18.561  0.00  0.00    +0.000 C 
ATOM     10  H   UNL     1       3.044   8.455  17.196  0.00  0.00    +0.000 HD
ATOM     11  H   UNL     1       7.969   5.436  17.853  0.00  0.00    +0.000 HD
ENDROOT
BRANCH   3  12
ATOM     12  C   UNL     1       1.588   8.816  18.646  0.00  0.00    +0.000 A 
ATOM     13  C   UNL     1       0.632   9.518  17.869  0.00  0.00    +0.000 A 
ATOM     14  C   UNL     1      -0.403  10.227  18.481  0.00  0.00    +0.000 A 
ATOM     15  C   UNL     1      -0.513  10.252  19.869  0.00  0.00    +0.000 A 
ATOM     16  C   UNL     1       0.403   9.551  20.652  0.00  0.00    +0.000 A 
ATOM     17  C   UNL     1       1.441   8.833  20.047  0.00  0.00    +0.000 A 
ENDBRANCH   3  12
BRANCH   9  18
ATOM     18  C   UNL     1       4.381   3.788  17.609  0.00  0.00    +0.000 C 
BRANCH  18  19
ATOM     19  O   UNL     1       3.946   2.704  18.341  0.00  0.00    +0.000 OA
BRANCH  19  20
ATOM     20  C   UNL     1       3.088   2.756  19.387  0.00  0.00    +0.000 A 
ATOM     21  C   UNL     1       1.717   3.033  19.235  0.00  0.00    +0.000 A 
ATOM     22  C   UNL     1       0.887   3.066  20.354  0.00  0.00    +0.000 A 
ATOM     23  C   UNL     1       1.431   2.822  21.617  0.00  0.00    +0.000 A 
ATOM     24  N   UNL     1       2.758   2.558  21.748  0.00  0.00    +0.000 NA
ATOM     25  C   UNL     1       3.588   2.520  20.671  0.00  0.00    +0.000 A 
ENDBRANCH  19  20
ENDBRANCH  18  19
ENDBRANCH   9  18
TORSDOF 4
ENDMDL
MODEL 5
REMARK VINA RESULT:      -7.8      1.914      4.477
REMARK  Name = 
REMARK  4 active torsions:
REMARK  status: ('A' for Active; 'I' for Inactive)
REMARK    1  A    between atoms: N_3  and  C_4
REMARK    2  A    between atoms: C_15  and  C_16
REMARK    3  A    between atoms: C_16  and  O_17
REMARK    4  A    between atoms: O_17  and  C_18
REMARK                            x       y       z     vdW  Elec       q    Type
REMARK                         _______ _______ _______ _____ _____    ______ ____
ROOT
ATOM      1  O   UNL     1       2.059   5.731  17.771  0.00  0.00    +0.000 OA
ATOM      2  C   UNL     1       2.729   5.460  18.756  0.00  0.00    +0.000 C 
ATOM      3  N   UNL     1       2.730   6.332  19.820  0.00  0.00    +0.000 N 
ATOM      4  N   UNL     1       3.499   4.306  18.721  0.00  0.00    +0.000 N 
ATOM      5  C   UNL     1       4.337   3.821  19.825  0.00  0.00    +0.000 C 
ATOM      6  C   UNL     1       3.957   2.367  20.151  0.00  0.00    +0.000 C 
ATOM      7  N   UNL     1       4.043   1.533  18.944  0.00  0.00    +0.000 NA
ATOM      8  C   UNL     1       3.114   2.023  17.919  0.00  0.00    +0.000 C 
ATOM      9  C   UNL     1       3.487   3.460  17.515  0.00  0.00    +0.000 C 
ATOM     10  H   UNL     1       3.369   6.179  20.605  0.00  0.00    +0.000 HD
ATOM     11  H   UNL     1       3.774   0.553  19.193  0.00  0.00    +0.000 HD
ENDROOT
BRANCH   3  12
ATOM     12  C   UNL     1       1.970   7.555  19.896  0.00  0.00    +0.000 A 
ATOM     13  C   UNL     1       1.937   8.528  18.865  0.00  0.00    +0.000 A 
ATOM     14  C   UNL     1       1.198   9.703  19.016  0.00  0.00    +0.000 A 
ATOM     15  C   UNL     1       0.478   9.935  20.186  0.00  0.00    +0.000 A 
ATOM     16  C   UNL     1       0.479   8.982  21.204  0.00  0.00    +0.000 A 
ATOM     17  C   UNL     1       1.213   7.800  21.059  0.00  0.00    +0.000 A 
ENDBRANCH   3  12
BRANCH   9  18
ATOM     18  C   UNL     1       4.845   3.517  16.802  0.00  0.00    +0.000 C 
BRANCH  18  19
ATOM     19  O   UNL     1       5.127   4.822  16.455  0.00  0.00    +0.000 OA
BRANCH  19  20
ATOM     20  C   UNL     1       6.058   5.607  17.046  0.00  0.00    +0.000 A 
ATOM     21  C   UNL     1       6.956   5.126  18.017  0.00  0.00    +0.000 A 
ATOM     22  C   UNL     1       7.895   5.987  18.581  0.00  0.00    +0.000 A 
ATOM     23  C   UNL     1       7.933   7.321  18.172  0.00  0.00    +0.000 A 
ATOM     24  N   UNL     1       7.059   7.771  17.234  0.00  0.00    +0.000 NA
ATOM     25  C   UNL     1       6.132   6.951  16.669  0.00  0.00    +0.000 A 
ENDBRANCH  19  20
ENDBRANCH  18  19
ENDBRANCH   9  18
TORSDOF 4
ENDMDL
MODEL 6
REMARK VINA RESULT:      -7.8      1.933      4.381
REMARK  Name = 
REMARK  4 active torsions:
REMARK  status: ('A' for Active; 'I' for Inactive)
REMARK    1  A    between atoms: N_3  and  C_4
REMARK    2  A    between atoms: C_15  and  C_16
REMARK    3  A    between atoms: C_16  and  O_17
REMARK    4  A    between atoms: O_17  and  C_18
REMARK                            x       y       z     vdW  Elec       q    Type
REMARK                         _______ _______ _______ _____ _____    ______ ____
ROOT
ATOM      1  O   UNL     1       2.041   5.714  17.790  0.00  0.00    +0.000 OA
ATOM      2  C   UNL     1       2.722   5.430  18.763  0.00  0.00    +0.000 C 
ATOM      3  N   UNL     1       2.732   6.287  19.840  0.00  0.00    +0.000 N 
ATOM      4  N   UNL     1       3.495   4.279  18.703  0.00  0.00    +0.000 N 
ATOM      5  C   UNL     1       4.346   3.780  19.791  0.00  0.00    +0.000 C 
ATOM      6  C   UNL     1       3.974   2.320  20.099  0.00  0.00    +0.000 C 
ATOM      7  N   UNL     1       4.049   1.505  18.878  0.00  0.00    +0.000 NA
ATOM      8  C   UNL     1       3.108   2.008  17.870  0.00  0.00    +0.000 C 
ATOM      9  C   UNL     1       3.473   3.452  17.485  0.00  0.00    +0.000 C 
ATOM     10  H   UNL     1       3.379   6.124  20.616  0.00  0.00    +0.000 HD
ATOM     11  H   UNL     1       3.786   0.521  19.116  0.00  0.00    +0.000 HD
ENDROOT
BRANCH   3  12
ATOM     12  C   UNL     1       1.970   7.506  19.943  0.00  0.00    +0.000 A 
ATOM     13  C   UNL     1       1.187   7.855  21.073  0.00  0.00    +0.000 A 
ATOM     14  C   UNL     1       0.455   9.043  21.095  0.00  0.00    +0.000 A 
ATOM     15  C   UNL     1       0.485   9.907  20.004  0.00  0.00    +0.000 A 
ATOM     16  C   UNL     1       1.265   9.595  18.891  0.00  0.00    +0.000 A 
ATOM     17  C   UNL     1       2.007   8.410  18.862  0.00  0.00    +0.000 A 
ENDBRANCH   3  12
BRANCH   9  18
ATOM     18  C   UNL     1       4.823   3.523  16.758  0.00  0.00    +0.000 C 
BRANCH  18  19
ATOM     19  O   UNL     1       5.105   4.836  16.442  0.00  0.00    +0.000 OA
BRANCH  19  20
ATOM     20  C   UNL     1       6.047   5.602  17.040  0.00  0.00    +0.000 A 
ATOM     21  C   UNL     1       6.954   5.093  17.988  0.00  0.00    +0.000 A 
ATOM     22  C   UNL     1       7.904   5.936  18.562  0.00  0.00    +0.000 A 
ATOM     23  C   UNL     1       7.944   7.280  18.184  0.00  0.00    +0.000 A 
ATOM     24  N   UNL     1       7.060   7.757  17.268  0.00  0.00    +0.000 NA
ATOM     25  C   UNL     1       6.123   6.955  16.694  0.00  0.00    +0.000 A 
ENDBRANCH  19  20
ENDBRANCH  18  19
ENDBRANCH   9  18
TORSDOF 4
ENDMDL
MODEL 7
REMARK VINA RESULT:      -7.7      0.728      1.070
REMARK  Name = 
REMARK  4 active torsions:
REMARK  status: ('A' for Active; 'I' for Inactive)
REMARK    1  A    between atoms: N_3  and  C_4
REMARK    2  A    between atoms: C_15  and  C_16
REMARK    3  A    between atoms: C_16  and  O_17
REMARK    4  A    between atoms: O_17  and  C_18
REMARK                            x       y       z     vdW  Elec       q    Type
REMARK                         _______ _______ _______ _____ _____    ______ ____
ROOT
ATOM      1  O   UNL     1       2.860   6.201  19.452  0.00  0.00    +0.000 OA
ATOM      2  C   UNL     1       3.333   6.737  18.461  0.00  0.00    +0.000 C 
ATOM      3  N   UNL     1       2.814   7.943  18.047  0.00  0.00    +0.000 N 
ATOM      4  N   UNL     1       4.336   6.067  17.776  0.00  0.00    +0.000 N 
ATOM      5  C   UNL     1       5.028   6.581  16.586  0.00  0.00    +0.000 C 
ATOM      6  C   UNL     1       6.546   6.553  16.831  0.00  0.00    +0.000 C 
ATOM      7  N   UNL     1       6.977   5.202  17.219  0.00  0.00    +0.000 NA
ATOM      8  C   UNL     1       6.312   4.792  18.461  0.00  0.00    +0.000 C 
ATOM      9  C   UNL     1       4.788   4.750  18.253  0.00  0.00    +0.000 C 
ATOM     10  H   UNL     1       3.120   8.352  17.160  0.00  0.00    +0.000 HD
ATOM     11  H   UNL     1       8.009   5.214  17.384  0.00  0.00    +0.000 HD
ENDROOT
BRANCH   3  12
ATOM     12  C   UNL     1       1.756   8.667  18.707  0.00  0.00    +0.000 A 
ATOM     13  C   UNL     1       1.505   8.600  20.101  0.00  0.00    +0.000 A 
ATOM     14  C   UNL     1       0.447   9.311  20.671  0.00  0.00    +0.000 A 
ATOM     15  C   UNL     1      -0.378  10.100  19.874  0.00  0.00    +0.000 A 
ATOM     16  C   UNL     1      -0.137  10.197  18.504  0.00  0.00    +0.000 A 
ATOM     17  C   UNL     1       0.925   9.493  17.926  0.00  0.00    +0.000 A 
ENDBRANCH   3  12
BRANCH   9  18
ATOM     18  C   UNL     1       4.379   3.647  17.267  0.00  0.00    +0.000 C 
BRANCH  18  19
ATOM     19  O   UNL     1       3.835   2.588  17.964  0.00  0.00    +0.000 OA
BRANCH  19  20
ATOM     20  C   UNL     1       2.997   2.693  19.022  0.00  0.00    +0.000 A 
ATOM     21  C   UNL     1       3.436   2.588  20.355  0.00  0.00    +0.000 A 
ATOM     22  C   UNL     1       2.521   2.711  21.399  0.00  0.00    +0.000 A 
ATOM     23  C   UNL     1       1.175   2.940  21.106  0.00  0.00    +0.000 A 
ATOM     24  N   UNL     1       0.766   3.037  19.813  0.00  0.00    +0.000 NA
ATOM     25  C   UNL     1       1.640   2.920  18.777  0.00  0.00    +0.000 A 
ENDBRANCH  19  20
ENDBRANCH  18  19
ENDBRANCH   9  18
TORSDOF 4
ENDMDL
MODEL 8
REMARK VINA RESULT:      -7.7      1.924      4.354
REMARK  Name = 
REMARK  4 active torsions:
REMARK  status: ('A' for Active; 'I' for Inactive)
REMARK    1  A    between atoms: N_3  and  C_4
REMARK    2  A    between atoms: C_15  and  C_16
REMARK    3  A    between atoms: C_16  and  O_17
REMARK    4  A    between atoms: O_17  and  C_18
REMARK                            x       y       z     vdW  Elec       q    Type
REMARK                         _______ _______ _______ _____ _____    ______ ____
ROOT
ATOM      1  O   UNL     1       1.915   5.472  17.841  0.00  0.00    +0.000 OA
ATOM      2  C   UNL     1       2.731   5.292  18.732  0.00  0.00    +0.000 C 
ATOM      3  N   UNL     1       2.860   6.243  19.718  0.00  0.00    +0.000 N 
ATOM      4  N   UNL     1       3.525   4.155  18.666  0.00  0.00    +0.000 N 
ATOM      5  C   UNL     1       4.532   3.774  19.665  0.00  0.00    +0.000 C 
ATOM      6  C   UNL     1       4.252   2.342  20.148  0.00  0.00    +0.000 C 
ATOM      7  N   UNL     1       4.187   1.420  19.004  0.00  0.00    +0.000 NA
ATOM      8  C   UNL     1       3.101   1.810  18.097  0.00  0.00    +0.000 C 
ATOM      9  C   UNL     1       3.363   3.221  17.539  0.00  0.00    +0.000 C 
ATOM     10  H   UNL     1       3.612   6.164  20.408  0.00  0.00    +0.000 HD
ATOM     11  H   UNL     1       3.990   0.457  19.361  0.00  0.00    +0.000 HD
ENDROOT
BRANCH   3  12
ATOM     12  C   UNL     1       2.081   7.451  19.819  0.00  0.00    +0.000 A 
ATOM     13  C   UNL     1       2.005   8.428  18.793  0.00  0.00    +0.000 A 
ATOM     14  C   UNL     1       1.248   9.588  18.968  0.00  0.00    +0.000 A 
ATOM     15  C   UNL     1       0.553   9.802  20.155  0.00  0.00    +0.000 A 
ATOM     16  C   UNL     1       0.596   8.844  21.168  0.00  0.00    +0.000 A 
ATOM     17  C   UNL     1       1.347   7.676  21.000  0.00  0.00    +0.000 A 
ENDBRANCH   3  12
BRANCH   9  18
ATOM     18  C   UNL     1       4.599   3.252  16.629  0.00  0.00    +0.000 C 
BRANCH  18  19
ATOM     19  O   UNL     1       4.805   4.539  16.180  0.00  0.00    +0.000 OA
BRANCH  19  20
ATOM     20  C   UNL     1       5.715   5.408  16.680  0.00  0.00    +0.000 A 
ATOM     21  C   UNL     1       5.481   6.794  16.763  0.00  0.00    +0.000 A 
ATOM     22  C   UNL     1       6.459   7.632  17.294  0.00  0.00    +0.000 A 
ATOM     23  C   UNL     1       7.663   7.083  17.739  0.00  0.00    +0.000 A 
ATOM     24  N   UNL     1       7.875   5.744  17.651  0.00  0.00    +0.000 NA
ATOM     25  C   UNL     1       6.936   4.904  17.136  0.00  0.00    +0.000 A 
ENDBRANCH  19  20
ENDBRANCH  18  19
ENDBRANCH   9  18
TORSDOF 4
ENDMDL
MODEL 9
REMARK VINA RESULT:      -7.7      2.674      5.104
REMARK  Name = 
REMARK  4 active torsions:
REMARK  status: ('A' for Active; 'I' for Inactive)
REMARK    1  A    between atoms: N_3  and  C_4
REMARK    2  A    between atoms: C_15  and  C_16
REMARK    3  A    between atoms: C_16  and  O_17
REMARK    4  A    between atoms: O_17  and  C_18
REMARK                            x       y       z     vdW  Elec       q    Type
REMARK                         _______ _______ _______ _____ _____    ______ ____
ROOT
ATOM      1  O   UNL     1       2.166   6.532  17.795  0.00  0.00    +0.000 OA
ATOM      2  C   UNL     1       2.733   6.123  18.797  0.00  0.00    +0.000 C 
ATOM      3  N   UNL     1       2.553   6.797  19.984  0.00  0.00    +0.000 N 
ATOM      4  N   UNL     1       3.574   5.028  18.667  0.00  0.00    +0.000 N 
ATOM      5  C   UNL     1       4.308   4.396  19.772  0.00  0.00    +0.000 C 
ATOM      6  C   UNL     1       3.988   2.892  19.800  0.00  0.00    +0.000 C 
ATOM      7  N   UNL     1       4.268   2.285  18.491  0.00  0.00    +0.000 NA
ATOM      8  C   UNL     1       3.435   2.904  17.453  0.00  0.00    +0.000 C 
ATOM      9  C   UNL     1       3.758   4.405  17.345  0.00  0.00    +0.000 C 
ATOM     10  H   UNL     1       3.104   6.538  20.806  0.00  0.00    +0.000 HD
ATOM     11  H   UNL     1       4.036   1.266  18.537  0.00  0.00    +0.000 HD
ENDROOT
BRANCH   3  12
ATOM     12  C   UNL     1       1.712   7.953  20.167  0.00  0.00    +0.000 A 
ATOM     13  C   UNL     1       1.569   8.985  19.204  0.00  0.00    +0.000 A 
ATOM     14  C   UNL     1       0.755  10.090  19.458  0.00  0.00    +0.000 A 
ATOM     15  C   UNL     1       0.067  10.194  20.665  0.00  0.00    +0.000 A 
ATOM     16  C   UNL     1       0.176   9.181  21.617  0.00  0.00    +0.000 A 
ATOM     17  C   UNL     1       0.985   8.067  21.369  0.00  0.00    +0.000 A 
ENDBRANCH   3  12
BRANCH   9  18
ATOM     18  C   UNL     1       5.184   4.644  16.828  0.00  0.00    +0.000 C 
BRANCH  18  19
ATOM     19  O   UNL     1       5.428   3.810  15.757  0.00  0.00    +0.000 OA
BRANCH  19  20
ATOM     20  C   UNL     1       6.135   4.140  14.651  0.00  0.00    +0.000 A 
ATOM     21  C   UNL     1       5.878   3.578  13.386  0.00  0.00    +0.000 A 
ATOM     22  C   UNL     1       6.639   3.967  12.286  0.00  0.00    +0.000 A 
ATOM     23  C   UNL     1       7.650   4.915  12.454  0.00  0.00    +0.000 A 
ATOM     24  N   UNL     1       7.887   5.449  13.681  0.00  0.00    +0.000 NA
ATOM     25  C   UNL     1       7.158   5.085  14.771  0.00  0.00    +0.000 A 
ENDBRANCH  19  20
ENDBRANCH  18  19
ENDBRANCH   9  18
TORSDOF 4
ENDMDL
