MODEL 1
REMARK VINA RESULT:      -6.6      0.000      0.000
REMARK  Name = 
REMARK  13 active torsions:
REMARK  status: ('A' for Active; 'I' for Inactive)
REMARK    1  A    between atoms: C_1  and  C_2
REMARK    2  A    between atoms: C_2  and  C_14
REMARK    3  A    between atoms: N_3  and  O_4
REMARK    4  A    between atoms: O_4  and  C_5
REMARK    5  A    between atoms: C_5  and  C_6
REMARK    6  A    between atoms: C_6  and  O_7
REMARK    7  A    between atoms: C_6  and  C_8
REMARK    8  A    between atoms: C_8  and  N_9
REMARK    9  A    between atoms: N_9  and  C_10
REMARK   10  A    between atoms: C_10  and  C_11
REMARK   11  A    between atoms: C_10  and  C_12
REMARK   12  A    between atoms: C_10  and  C_13
REMARK   13  A    between atoms: C_19  and  C_20
REMARK                            x       y       z     vdW  Elec       q    Type
REMARK                         _______ _______ _______ _____ _____    ______ ____
ROOT
ATOM      1  O   UNL     1       5.379   6.178  17.006  0.00  0.00    +0.000 OA
ENDROOT
BRANCH   1   4
ATOM      2  C   UNL     1       5.546   5.052  19.352  0.00  0.00    +0.000 C 
ATOM      3  C   UNL     1       4.265   4.989  18.515  0.00  0.00    +0.000 C 
ATOM      4  N   UNL     1       4.182   5.547  17.343  0.00  0.00    +0.000 NA
BRANCH   3   5
ATOM      5  C   UNL     1       3.080   4.260  19.121  0.00  0.00    +0.000 A 
ATOM      6  C   UNL     1       2.219   4.982  19.974  0.00  0.00    +0.000 A 
ATOM      7  C   UNL     1       1.102   4.391  20.566  0.00  0.00    +0.000 A 
ATOM      8  C   UNL     1       0.818   3.058  20.317  0.00  0.00    +0.000 A 
ATOM      9  C   UNL     1       1.652   2.320  19.480  0.00  0.00    +0.000 A 
ATOM     10  C   UNL     1       2.787   2.899  18.872  0.00  0.00    +0.000 A 
ATOM     11  C   UNL     1       3.614   2.007  17.985  0.00  0.00    +0.000 C 
ENDBRANCH   3   5
ENDBRANCH   1   4
BRANCH   1  12
ATOM     12  C   UNL     1       5.486   6.335  15.592  0.00  0.00    +0.000 C 
BRANCH  12  13
ATOM     13  C   UNL     1       6.314   5.152  15.071  0.00  0.00    +0.000 C 
BRANCH  13  14
ATOM     14  O   UNL     1       6.925   4.479  16.188  0.00  0.00    +0.000 OA
ATOM     15  H   UNL     1       7.730   4.986  16.398  0.00  0.00    +0.000 HD
ENDBRANCH  13  14
BRANCH  13  16
ATOM     16  C   UNL     1       5.474   4.119  14.289  0.00  0.00    +0.000 C 
BRANCH  16  17
ATOM     17  N   UNL     1       6.300   3.155  13.555  0.00  0.00    +0.000 NA
ATOM     18  H   UNL     1       6.140   2.223  13.939  0.00  0.00    +0.000 HD
BRANCH  17  19
ATOM     19  C   UNL     1       6.090   3.116  12.094  0.00  0.00    +0.000 C 
ATOM     20  C   UNL     1       4.658   3.528  11.708  0.00  0.00    +0.000 C 
ATOM     21  C   UNL     1       7.063   4.144  11.484  0.00  0.00    +0.000 C 
ATOM     22  C   UNL     1       6.418   1.732  11.509  0.00  0.00    +0.000 C 
ENDBRANCH  17  19
ENDBRANCH  16  17
ENDBRANCH  13  16
ENDBRANCH  12  13
ENDBRANCH   1  12
TORSDOF 8
ENDMDL
MODEL 2
REMARK VINA RESULT:      -6.4      0.187      1.024
REMARK  Name = 
REMARK  13 active torsions:
REMARK  status: ('A' for Active; 'I' for Inactive)
REMARK    1  A    between atoms: C_1  and  C_2
REMARK    2  A    between atoms: C_2  and  C_14
REMARK    3  A    between atoms: N_3  and  O_4
REMARK    4  A    between atoms: O_4  and  C_5
REMARK    5  A    between atoms: C_5  and  C_6
REMARK    6  A    between atoms: C_6  and  O_7
REMARK    7  A    between atoms: C_6  and  C_8
REMARK    8  A    between atoms: C_8  and  N_9
REMARK    9  A    between atoms: N_9  and  C_10
REMARK   10  A    between atoms: C_10  and  C_11
REMARK   11  A    between atoms: C_10  and  C_12
REMARK   12  A    between atoms: C_10  and  C_13
REMARK   13  A    between atoms: C_19  and  C_20
REMARK                            x       y       z     vdW  Elec       q    Type
REMARK                         _______ _______ _______ _____ _____    ______ ____
ROOT
ATOM      1  O   UNL     1       5.503   6.048  17.136  0.00  0.00    +0.000 OA
ENDROOT
BRANCH   1   4
ATOM      2  C   UNL     1       5.618   4.763  19.402  0.00  0.00    +0.000 C 
ATOM      3  C   UNL     1       4.323   4.854  18.590  0.00  0.00    +0.000 C 
ATOM      4  N   UNL     1       4.266   5.491  17.457  0.00  0.00    +0.000 NA
BRANCH   3   5
ATOM      5  C   UNL     1       3.094   4.181  19.173  0.00  0.00    +0.000 A 
ATOM      6  C   UNL     1       2.275   4.930  20.045  0.00  0.00    +0.000 A 
ATOM      7  C   UNL     1       1.123   4.390  20.618  0.00  0.00    +0.000 A 
ATOM      8  C   UNL     1       0.760   3.085  20.331  0.00  0.00    +0.000 A 
ATOM      9  C   UNL     1       1.550   2.322  19.474  0.00  0.00    +0.000 A 
ATOM     10  C   UNL     1       2.720   2.848  18.885  0.00  0.00    +0.000 A 
ATOM     11  C   UNL     1       3.495   1.933  17.974  0.00  0.00    +0.000 C 
ENDBRANCH   3   5
ENDBRANCH   1   4
BRANCH   1  12
ATOM     12  C   UNL     1       5.579   6.337  15.740  0.00  0.00    +0.000 C 
BRANCH  12  13
ATOM     13  C   UNL     1       6.391   5.207  15.093  0.00  0.00    +0.000 C 
BRANCH  13  14
ATOM     14  O   UNL     1       7.030   4.436  16.127  0.00  0.00    +0.000 OA
ATOM     15  H   UNL     1       6.754   3.513  15.981  0.00  0.00    +0.000 HD
ENDBRANCH  13  14
BRANCH  13  16
ATOM     16  C   UNL     1       5.529   4.250  14.241  0.00  0.00    +0.000 C 
BRANCH  16  17
ATOM     17  N   UNL     1       6.320   3.204  13.585  0.00  0.00    +0.000 NA
ATOM     18  H   UNL     1       6.001   2.293  13.914  0.00  0.00    +0.000 HD
BRANCH  17  19
ATOM     19  C   UNL     1       6.299   3.219  12.109  0.00  0.00    +0.000 C 
ATOM     20  C   UNL     1       6.815   1.897  11.514  0.00  0.00    +0.000 C 
ATOM     21  C   UNL     1       4.823   3.385  11.695  0.00  0.00    +0.000 C 
ATOM     22  C   UNL     1       7.097   4.403  11.540  0.00  0.00    +0.000 C 
ENDBRANCH  17  19
ENDBRANCH  16  17
ENDBRANCH  13  16
ENDBRANCH  12  13
ENDBRANCH   1  12
TORSDOF 8
ENDMDL
MODEL 3
REMARK VINA RESULT:      -6.3      1.312      1.853
REMARK  Name = 
REMARK  13 active torsions:
REMARK  status: ('A' for Active; 'I' for Inactive)
REMARK    1  A    between atoms: C_1  and  C_2
REMARK    2  A    between atoms: C_2  and  C_14
REMARK    3  A    between atoms: N_3  and  O_4
REMARK    4  A    between atoms: O_4  and  C_5
REMARK    5  A    between atoms: C_5  and  C_6
REMARK    6  A    between atoms: C_6  and  O_7
REMARK    7  A    between atoms: C_6  and  C_8
REMARK    8  A    between atoms: C_8  and  N_9
REMARK    9  A    between atoms: N_9  and  C_10
REMARK   10  A    between atoms: C_10  and  C_11
REMARK   11  A    between atoms: C_10  and  C_12
REMARK   12  A    between atoms: C_10  and  C_13
REMARK   13  A    between atoms: C_19  and  C_20
REMARK                            x       y       z     vdW  Elec       q    Type
REMARK                         _______ _______ _______ _____ _____    ______ ____
ROOT
ATOM      1  O   UNL     1       6.361   4.915  18.040  0.00  0.00    +0.000 OA
ENDROOT
BRANCH   1   4
ATOM      2  C   UNL     1       4.202   6.220  18.700  0.00  0.00    +0.000 C 
ATOM      3  C   UNL     1       4.351   4.719  18.966  0.00  0.00    +0.000 C 
ATOM      4  N   UNL     1       5.429   4.068  18.641  0.00  0.00    +0.000 NA
BRANCH   3   5
ATOM      5  C   UNL     1       3.174   4.012  19.611  0.00  0.00    +0.000 A 
ATOM      6  C   UNL     1       3.320   3.550  20.937  0.00  0.00    +0.000 A 
ATOM      7  C   UNL     1       2.285   2.897  21.608  0.00  0.00    +0.000 A 
ATOM      8  C   UNL     1       1.074   2.691  20.968  0.00  0.00    +0.000 A 
ATOM      9  C   UNL     1       0.902   3.135  19.658  0.00  0.00    +0.000 A 
ATOM     10  C   UNL     1       1.936   3.797  18.961  0.00  0.00    +0.000 A 
ATOM     11  C   UNL     1       1.637   4.234  17.552  0.00  0.00    +0.000 C 
ENDBRANCH   3   5
ENDBRANCH   1   4
BRANCH   1  12
ATOM     12  C   UNL     1       6.921   4.305  16.878  0.00  0.00    +0.000 C 
BRANCH  12  13
ATOM     13  C   UNL     1       6.147   4.849  15.670  0.00  0.00    +0.000 C 
BRANCH  13  14
ATOM     14  O   UNL     1       6.065   6.283  15.772  0.00  0.00    +0.000 OA
ATOM     15  H   UNL     1       6.984   6.606  15.752  0.00  0.00    +0.000 HD
ENDBRANCH  13  14
BRANCH  13  16
ATOM     16  C   UNL     1       6.807   4.501  14.318  0.00  0.00    +0.000 C 
BRANCH  16  17
ATOM     17  N   UNL     1       6.240   3.296  13.703  0.00  0.00    +0.000 NA
ATOM     18  H   UNL     1       5.298   3.152  14.066  0.00  0.00    +0.000 HD
BRANCH  17  19
ATOM     19  C   UNL     1       6.193   3.294  12.228  0.00  0.00    +0.000 C 
ATOM     20  C   UNL     1       6.559   1.918  11.643  0.00  0.00    +0.000 C 
ATOM     21  C   UNL     1       4.735   3.606  11.836  0.00  0.00    +0.000 C 
ATOM     22  C   UNL     1       7.099   4.382  11.627  0.00  0.00    +0.000 C 
ENDBRANCH  17  19
ENDBRANCH  16  17
ENDBRANCH  13  16
ENDBRANCH  12  13
ENDBRANCH   1  12
TORSDOF 8
ENDMDL
MODEL 4
REMARK VINA RESULT:      -6.3      1.024      1.141
REMARK  Name = 
REMARK  13 active torsions:
REMARK  status: ('A' for Active; 'I' for Inactive)
REMARK    1  A    between atoms: C_1  and  C_2
REMARK    2  A    between atoms: C_2  and  C_14
REMARK    3  A    between atoms: N_3  and  O_4
REMARK    4  A    between atoms: O_4  and  C_5
REMARK    5  A    between atoms: C_5  and  C_6
REMARK    6  A    between atoms: C_6  and  O_7
REMARK    7  A    between atoms: C_6  and  C_8
REMARK    8  A    between atoms: C_8  and  N_9
REMARK    9  A    between atoms: N_9  and  C_10
REMARK   10  A    between atoms: C_10  and  C_11
REMARK   11  A    between atoms: C_10  and  C_12
REMARK   12  A    between atoms: C_10  and  C_13
REMARK   13  A    between atoms: C_19  and  C_20
REMARK                            x       y       z     vdW  Elec       q    Type
REMARK                         _______ _______ _______ _____ _____    ______ ____
ROOT
ATOM      1  O   UNL     1       5.039   5.872  16.244  0.00  0.00    +0.000 OA
ENDROOT
BRANCH   1   4
ATOM      2  C   UNL     1       3.305   7.066  17.783  0.00  0.00    +0.000 C 
ATOM      3  C   UNL     1       3.542   5.555  17.854  0.00  0.00    +0.000 C 
ATOM      4  N   UNL     1       4.410   4.959  17.090  0.00  0.00    +0.000 NA
BRANCH   3   5
ATOM      5  C   UNL     1       2.704   4.771  18.847  0.00  0.00    +0.000 A 
ATOM      6  C   UNL     1       2.424   5.364  20.097  0.00  0.00    +0.000 A 
ATOM      7  C   UNL     1       1.655   4.715  21.064  0.00  0.00    +0.000 A 
ATOM      8  C   UNL     1       1.144   3.455  20.803  0.00  0.00    +0.000 A 
ATOM      9  C   UNL     1       1.405   2.845  19.578  0.00  0.00    +0.000 A 
ATOM     10  C   UNL     1       2.182   3.483  18.586  0.00  0.00    +0.000 A 
ATOM     11  C   UNL     1       2.397   2.729  17.301  0.00  0.00    +0.000 C 
ENDBRANCH   3   5
ENDBRANCH   1   4
BRANCH   1  12
ATOM     12  C   UNL     1       6.454   5.830  16.421  0.00  0.00    +0.000 C 
BRANCH  12  13
ATOM     13  C   UNL     1       6.961   4.580  15.689  0.00  0.00    +0.000 C 
BRANCH  13  14
ATOM     14  O   UNL     1       6.300   3.420  16.229  0.00  0.00    +0.000 OA
ATOM     15  H   UNL     1       6.940   3.005  16.835  0.00  0.00    +0.000 HD
ENDBRANCH  13  14
BRANCH  13  16
ATOM     16  C   UNL     1       6.698   4.617  14.168  0.00  0.00    +0.000 C 
BRANCH  16  17
ATOM     17  N   UNL     1       6.336   3.306  13.621  0.00  0.00    +0.000 NA
ATOM     18  H   UNL     1       5.475   2.989  14.067  0.00  0.00    +0.000 HD
BRANCH  17  19
ATOM     19  C   UNL     1       6.168   3.249  12.156  0.00  0.00    +0.000 C 
ATOM     20  C   UNL     1       4.712   3.508  11.733  0.00  0.00    +0.000 C 
ATOM     21  C   UNL     1       7.042   4.377  11.571  0.00  0.00    +0.000 C 
ATOM     22  C   UNL     1       6.657   1.910  11.579  0.00  0.00    +0.000 C 
ENDBRANCH  17  19
ENDBRANCH  16  17
ENDBRANCH  13  16
ENDBRANCH  12  13
ENDBRANCH   1  12
TORSDOF 8
ENDMDL
MODEL 5
REMARK VINA RESULT:      -6.2      1.033      1.898
REMARK  Name = 
REMARK  13 active torsions:
REMARK  status: ('A' for Active; 'I' for Inactive)
REMARK    1  A    between atoms: C_1  and  C_2
REMARK    2  A    between atoms: C_2  and  C_14
REMARK    3  A    between atoms: N_3  and  O_4
REMARK    4  A    between atoms: O_4  and  C_5
REMARK    5  A    between atoms: C_5  and  C_6
REMARK    6  A    between atoms: C_6  and  O_7
REMARK    7  A    between atoms: C_6  and  C_8
REMARK    8  A    between atoms: C_8  and  N_9
REMARK    9  A    between atoms: N_9  and  C_10
REMARK   10  A    between atoms: C_10  and  C_11
REMARK   11  A    between atoms: C_10  and  C_12
REMARK   12  A    between atoms: C_10  and  C_13
REMARK   13  A    between atoms: C_19  and  C_20
REMARK                            x       y       z     vdW  Elec       q    Type
REMARK                         _______ _______ _______ _____ _____    ______ ____
ROOT
ATOM      1  O   UNL     1       5.430   6.162  17.212  0.00  0.00    +0.000 OA
ENDROOT
BRANCH   1   4
ATOM      2  C   UNL     1       3.003   6.986  17.693  0.00  0.00    +0.000 C 
ATOM      3  C   UNL     1       3.464   5.571  18.058  0.00  0.00    +0.000 C 
ATOM      4  N   UNL     1       4.675   5.161  17.823  0.00  0.00    +0.000 NA
BRANCH   3   5
ATOM      5  C   UNL     1       2.436   4.654  18.694  0.00  0.00    +0.000 A 
ATOM      6  C   UNL     1       2.102   3.459  18.021  0.00  0.00    +0.000 A 
ATOM      7  C   UNL     1       1.174   2.556  18.540  0.00  0.00    +0.000 A 
ATOM      8  C   UNL     1       0.555   2.826  19.749  0.00  0.00    +0.000 A 
ATOM      9  C   UNL     1       0.864   3.998  20.435  0.00  0.00    +0.000 A 
ATOM     10  C   UNL     1       1.800   4.926  19.927  0.00  0.00    +0.000 A 
ATOM     11  C   UNL     1       2.056   6.157  20.755  0.00  0.00    +0.000 C 
ENDBRANCH   3   5
ENDBRANCH   1   4
BRANCH   1  12
ATOM     12  C   UNL     1       5.533   5.930  15.808  0.00  0.00    +0.000 C 
BRANCH  12  13
ATOM     13  C   UNL     1       6.656   4.904  15.604  0.00  0.00    +0.000 C 
BRANCH  13  14
ATOM     14  O   UNL     1       6.276   3.663  16.230  0.00  0.00    +0.000 OA
ATOM     15  H   UNL     1       5.318   3.727  16.392  0.00  0.00    +0.000 HD
ENDBRANCH  13  14
BRANCH  13  16
ATOM     16  C   UNL     1       6.958   4.620  14.117  0.00  0.00    +0.000 C 
BRANCH  16  17
ATOM     17  N   UNL     1       6.334   3.383  13.637  0.00  0.00    +0.000 NA
ATOM     18  H   UNL     1       5.426   3.274  14.089  0.00  0.00    +0.000 HD
BRANCH  17  19
ATOM     19  C   UNL     1       6.160   3.281  12.175  0.00  0.00    +0.000 C 
ATOM     20  C   UNL     1       4.701   3.528  11.751  0.00  0.00    +0.000 C 
ATOM     21  C   UNL     1       7.031   4.390  11.552  0.00  0.00    +0.000 C 
ATOM     22  C   UNL     1       6.644   1.925  11.636  0.00  0.00    +0.000 C 
ENDBRANCH  17  19
ENDBRANCH  16  17
ENDBRANCH  13  16
ENDBRANCH  12  13
ENDBRANCH   1  12
TORSDOF 8
ENDMDL
MODEL 6
REMARK VINA RESULT:      -6.2      2.036      3.199
REMARK  Name = 
REMARK  13 active torsions:
REMARK  status: ('A' for Active; 'I' for Inactive)
REMARK    1  A    between atoms: C_1  and  C_2
REMARK    2  A    between atoms: C_2  and  C_14
REMARK    3  A    between atoms: N_3  and  O_4
REMARK    4  A    between atoms: O_4  and  C_5
REMARK    5  A    between atoms: C_5  and  C_6
REMARK    6  A    between atoms: C_6  and  O_7
REMARK    7  A    between atoms: C_6  and  C_8
REMARK    8  A    between atoms: C_8  and  N_9
REMARK    9  A    between atoms: N_9  and  C_10
REMARK   10  A    between atoms: C_10  and  C_11
REMARK   11  A    between atoms: C_10  and  C_12
REMARK   12  A    between atoms: C_10  and  C_13
REMARK   13  A    between atoms: C_19  and  C_20
REMARK                            x       y       z     vdW  Elec       q    Type
REMARK                         _______ _______ _______ _____ _____    ______ ____
ROOT
ATOM      1  O   UNL     1       4.717   4.044  17.344  0.00  0.00    +0.000 OA
ENDROOT
BRANCH   1   4
ATOM      2  C   UNL     1       2.130   4.319  17.532  0.00  0.00    +0.000 C 
ATOM      3  C   UNL     1       3.096   5.389  18.049  0.00  0.00    +0.000 C 
ATOM      4  N   UNL     1       4.387   5.255  17.952  0.00  0.00    +0.000 NA
BRANCH   3   5
ATOM      5  C   UNL     1       2.483   6.614  18.702  0.00  0.00    +0.000 A 
ATOM      6  C   UNL     1       2.391   7.799  17.940  0.00  0.00    +0.000 A 
ATOM      7  C   UNL     1       1.835   8.968  18.461  0.00  0.00    +0.000 A 
ATOM      8  C   UNL     1       1.353   8.980  19.759  0.00  0.00    +0.000 A 
ATOM      9  C   UNL     1       1.432   7.825  20.535  0.00  0.00    +0.000 A 
ATOM     10  C   UNL     1       1.993   6.633  20.028  0.00  0.00    +0.000 A 
ATOM     11  C   UNL     1       2.023   5.447  20.955  0.00  0.00    +0.000 C 
ENDBRANCH   3   5
ENDBRANCH   1   4
BRANCH   1  12
ATOM     12  C   UNL     1       5.934   4.165  16.608  0.00  0.00    +0.000 C 
BRANCH  12  13
ATOM     13  C   UNL     1       5.593   4.873  15.290  0.00  0.00    +0.000 C 
BRANCH  13  14
ATOM     14  O   UNL     1       5.662   6.297  15.491  0.00  0.00    +0.000 OA
ATOM     15  H   UNL     1       6.449   6.599  15.003  0.00  0.00    +0.000 HD
ENDBRANCH  13  14
BRANCH  13  16
ATOM     16  C   UNL     1       6.549   4.504  14.136  0.00  0.00    +0.000 C 
BRANCH  16  17
ATOM     17  N   UNL     1       6.240   3.202  13.536  0.00  0.00    +0.000 NA
ATOM     18  H   UNL     1       5.382   2.841  13.954  0.00  0.00    +0.000 HD
BRANCH  17  19
ATOM     19  C   UNL     1       6.100   3.193  12.067  0.00  0.00    +0.000 C 
ATOM     20  C   UNL     1       7.037   4.212  11.394  0.00  0.00    +0.000 C 
ATOM     21  C   UNL     1       6.514   1.783  11.597  0.00  0.00    +0.000 C 
ATOM     22  C   UNL     1       4.647   3.441  11.631  0.00  0.00    +0.000 C 
ENDBRANCH  17  19
ENDBRANCH  16  17
ENDBRANCH  13  16
ENDBRANCH  12  13
ENDBRANCH   1  12
TORSDOF 8
ENDMDL
MODEL 7
REMARK VINA RESULT:      -6.2      1.003      1.521
REMARK  Name = 
REMARK  13 active torsions:
REMARK  status: ('A' for Active; 'I' for Inactive)
REMARK    1  A    between atoms: C_1  and  C_2
REMARK    2  A    between atoms: C_2  and  C_14
REMARK    3  A    between atoms: N_3  and  O_4
REMARK    4  A    between atoms: O_4  and  C_5
REMARK    5  A    between atoms: C_5  and  C_6
REMARK    6  A    between atoms: C_6  and  O_7
REMARK    7  A    between atoms: C_6  and  C_8
REMARK    8  A    between atoms: C_8  and  N_9
REMARK    9  A    between atoms: N_9  and  C_10
REMARK   10  A    between atoms: C_10  and  C_11
REMARK   11  A    between atoms: C_10  and  C_12
REMARK   12  A    between atoms: C_10  and  C_13
REMARK   13  A    between atoms: C_19  and  C_20
REMARK                            x       y       z     vdW  Elec       q    Type
REMARK                         _______ _______ _______ _____ _____    ______ ____
ROOT
ATOM      1  O   UNL     1       5.019   5.788  16.722  0.00  0.00    +0.000 OA
ENDROOT
BRANCH   1   4
ATOM      2  C   UNL     1       2.836   6.588  17.901  0.00  0.00    +0.000 C 
ATOM      3  C   UNL     1       3.475   5.233  18.219  0.00  0.00    +0.000 C 
ATOM      4  N   UNL     1       4.567   4.834  17.634  0.00  0.00    +0.000 NA
BRANCH   3   5
ATOM      5  C   UNL     1       2.769   4.358  19.238  0.00  0.00    +0.000 A 
ATOM      6  C   UNL     1       2.615   4.855  20.550  0.00  0.00    +0.000 A 
ATOM      7  C   UNL     1       1.971   4.119  21.545  0.00  0.00    +0.000 A 
ATOM      8  C   UNL     1       1.462   2.865  21.252  0.00  0.00    +0.000 A 
ATOM      9  C   UNL     1       1.601   2.348  19.965  0.00  0.00    +0.000 A 
ATOM     10  C   UNL     1       2.250   3.076  18.944  0.00  0.00    +0.000 A 
ATOM     11  C   UNL     1       2.339   2.419  17.592  0.00  0.00    +0.000 C 
ENDBRANCH   3   5
ENDBRANCH   1   4
BRANCH   1  12
ATOM     12  C   UNL     1       6.439   5.727  16.592  0.00  0.00    +0.000 C 
BRANCH  12  13
ATOM     13  C   UNL     1       6.762   4.468  15.777  0.00  0.00    +0.000 C 
BRANCH  13  14
ATOM     14  O   UNL     1       6.112   3.336  16.385  0.00  0.00    +0.000 OA
ATOM     15  H   UNL     1       5.553   2.943  15.691  0.00  0.00    +0.000 HD
ENDBRANCH  13  14
BRANCH  13  16
ATOM     16  C   UNL     1       6.294   4.558  14.308  0.00  0.00    +0.000 C 
BRANCH  16  17
ATOM     17  N   UNL     1       6.334   3.264  13.619  0.00  0.00    +0.000 NA
ATOM     18  H   UNL     1       5.570   2.682  13.964  0.00  0.00    +0.000 HD
BRANCH  17  19
ATOM     19  C   UNL     1       6.266   3.323  12.146  0.00  0.00    +0.000 C 
ATOM     20  C   UNL     1       6.662   1.984  11.498  0.00  0.00    +0.000 C 
ATOM     21  C   UNL     1       4.794   3.609  11.786  0.00  0.00    +0.000 C 
ATOM     22  C   UNL     1       7.133   4.461  11.581  0.00  0.00    +0.000 C 
ENDBRANCH  17  19
ENDBRANCH  16  17
ENDBRANCH  13  16
ENDBRANCH  12  13
ENDBRANCH   1  12
TORSDOF 8
ENDMDL
MODEL 8
REMARK VINA RESULT:      -6.2      1.435      2.256
REMARK  Name = 
REMARK  13 active torsions:
REMARK  status: ('A' for Active; 'I' for Inactive)
REMARK    1  A    between atoms: C_1  and  C_2
REMARK    2  A    between atoms: C_2  and  C_14
REMARK    3  A    between atoms: N_3  and  O_4
REMARK    4  A    between atoms: O_4  and  C_5
REMARK    5  A    between atoms: C_5  and  C_6
REMARK    6  A    between atoms: C_6  and  O_7
REMARK    7  A    between atoms: C_6  and  C_8
REMARK    8  A    between atoms: C_8  and  N_9
REMARK    9  A    between atoms: N_9  and  C_10
REMARK   10  A    between atoms: C_10  and  C_11
REMARK   11  A    between atoms: C_10  and  C_12
REMARK   12  A    between atoms: C_10  and  C_13
REMARK   13  A    between atoms: C_19  and  C_20
REMARK                            x       y       z     vdW  Elec       q    Type
REMARK                         _______ _______ _______ _____ _____    ______ ____
ROOT
ATOM      1  O   UNL     1       5.741   3.837  16.932  0.00  0.00    +0.000 OA
ENDROOT
BRANCH   1   4
ATOM      2  C   UNL     1       3.145   3.608  17.036  0.00  0.00    +0.000 C 
ATOM      3  C   UNL     1       3.903   4.615  17.906  0.00  0.00    +0.000 C 
ATOM      4  N   UNL     1       5.197   4.733  17.852  0.00  0.00    +0.000 NA
BRANCH   3   5
ATOM      5  C   UNL     1       3.078   5.465  18.856  0.00  0.00    +0.000 A 
ATOM      6  C   UNL     1       2.867   6.820  18.524  0.00  0.00    +0.000 A 
ATOM      7  C   UNL     1       2.114   7.669  19.337  0.00  0.00    +0.000 A 
ATOM      8  C   UNL     1       1.551   7.180  20.504  0.00  0.00    +0.000 A 
ATOM      9  C   UNL     1       1.745   5.847  20.857  0.00  0.00    +0.000 A 
ATOM     10  C   UNL     1       2.503   4.972  20.050  0.00  0.00    +0.000 A 
ATOM     11  C   UNL     1       2.643   3.551  20.530  0.00  0.00    +0.000 C 
ENDBRANCH   3   5
ENDBRANCH   1   4
BRANCH   1  12
ATOM     12  C   UNL     1       6.980   4.327  16.423  0.00  0.00    +0.000 C 
BRANCH  12  13
ATOM     13  C   UNL     1       6.651   5.196  15.202  0.00  0.00    +0.000 C 
BRANCH  13  14
ATOM     14  O   UNL     1       7.868   5.484  14.489  0.00  0.00    +0.000 OA
ATOM     15  H   UNL     1       7.595   5.878  13.640  0.00  0.00    +0.000 HD
ENDBRANCH  13  14
BRANCH  13  16
ATOM     16  C   UNL     1       5.668   4.521  14.221  0.00  0.00    +0.000 C 
BRANCH  16  17
ATOM     17  N   UNL     1       6.214   3.299  13.621  0.00  0.00    +0.000 NA
ATOM     18  H   UNL     1       5.791   2.490  14.076  0.00  0.00    +0.000 HD
BRANCH  17  19
ATOM     19  C   UNL     1       6.044   3.175  12.160  0.00  0.00    +0.000 C 
ATOM     20  C   UNL     1       4.610   3.515  11.717  0.00  0.00    +0.000 C 
ATOM     21  C   UNL     1       6.997   4.204  11.519  0.00  0.00    +0.000 C 
ATOM     22  C   UNL     1       6.435   1.775  11.658  0.00  0.00    +0.000 C 
ENDBRANCH  17  19
ENDBRANCH  16  17
ENDBRANCH  13  16
ENDBRANCH  12  13
ENDBRANCH   1  12
TORSDOF 8
ENDMDL
MODEL 9
REMARK VINA RESULT:      -6.2      1.219      1.776
REMARK  Name = 
REMARK  13 active torsions:
REMARK  status: ('A' for Active; 'I' for Inactive)
REMARK    1  A    between atoms: C_1  and  C_2
REMARK    2  A    between atoms: C_2  and  C_14
REMARK    3  A    between atoms: N_3  and  O_4
REMARK    4  A    between atoms: O_4  and  C_5
REMARK    5  A    between atoms: C_5  and  C_6
REMARK    6  A    between atoms: C_6  and  O_7
REMARK    7  A    between atoms: C_6  and  C_8
REMARK    8  A    between atoms: C_8  and  N_9
REMARK    9  A    between atoms: N_9  and  C_10
REMARK   10  A    between atoms: C_10  and  C_11
REMARK   11  A    between atoms: C_10  and  C_12
REMARK   12  A    between atoms: C_10  and  C_13
REMARK   13  A    between atoms: C_19  and  C_20
REMARK                            x       y       z     vdW  Elec       q    Type
REMARK                         _______ _______ _______ _____ _____    ______ ____
ROOT
ATOM      1  O   UNL     1       4.576   5.142  16.317  0.00  0.00    +0.000 OA
ENDROOT
BRANCH   1   4
ATOM      2  C   UNL     1       3.029   3.065  16.619  0.00  0.00    +0.000 C 
ATOM      3  C   UNL     1       3.333   4.020  17.776  0.00  0.00    +0.000 C 
ATOM      4  N   UNL     1       4.101   5.059  17.626  0.00  0.00    +0.000 NA
BRANCH   3   5
ATOM      5  C   UNL     1       2.712   3.694  19.122  0.00  0.00    +0.000 A 
ATOM      6  C   UNL     1       1.459   4.265  19.434  0.00  0.00    +0.000 A 
ATOM      7  C   UNL     1       0.815   4.011  20.645  0.00  0.00    +0.000 A 
ATOM      8  C   UNL     1       1.409   3.175  21.576  0.00  0.00    +0.000 A 
ATOM      9  C   UNL     1       2.645   2.598  21.296  0.00  0.00    +0.000 A 
ATOM     10  C   UNL     1       3.315   2.843  20.078  0.00  0.00    +0.000 A 
ATOM     11  C   UNL     1       4.645   2.165  19.883  0.00  0.00    +0.000 C 
ENDBRANCH   3   5
ENDBRANCH   1   4
BRANCH   1  12
ATOM     12  C   UNL     1       5.835   5.812  16.279  0.00  0.00    +0.000 C 
BRANCH  12  13
ATOM     13  C   UNL     1       6.876   4.785  15.814  0.00  0.00    +0.000 C 
BRANCH  13  14
ATOM     14  O   UNL     1       6.528   3.492  16.344  0.00  0.00    +0.000 OA
ATOM     15  H   UNL     1       7.175   2.867  15.970  0.00  0.00    +0.000 HD
ENDBRANCH  13  14
BRANCH  13  16
ATOM     16  C   UNL     1       6.969   4.666  14.277  0.00  0.00    +0.000 C 
BRANCH  16  17
ATOM     17  N   UNL     1       6.256   3.497  13.754  0.00  0.00    +0.000 NA
ATOM     18  H   UNL     1       5.304   3.499  14.120  0.00  0.00    +0.000 HD
BRANCH  17  19
ATOM     19  C   UNL     1       6.207   3.384  12.283  0.00  0.00    +0.000 C 
ATOM     20  C   UNL     1       6.597   1.976  11.801  0.00  0.00    +0.000 C 
ATOM     21  C   UNL     1       4.742   3.639  11.874  0.00  0.00    +0.000 C 
ATOM     22  C   UNL     1       7.091   4.441  11.601  0.00  0.00    +0.000 C 
ENDBRANCH  17  19
ENDBRANCH  16  17
ENDBRANCH  13  16
ENDBRANCH  12  13
ENDBRANCH   1  12
TORSDOF 8
ENDMDL
