MODEL 1
REMARK VINA RESULT:      -7.9      0.000      0.000
REMARK  Name = 
REMARK  10 active torsions:
REMARK  status: ('A' for Active; 'I' for Inactive)
REMARK    1  A    between atoms: C_1  and  O_2
REMARK    2  A    between atoms: O_2  and  C_3
REMARK    3  A    between atoms: N_5  and  C_6
REMARK    4  A    between atoms: N_5  and  C_12
REMARK    5  A    between atoms: C_6  and  C_7
REMARK    6  A    between atoms: N_15  and  C_16
REMARK    7  A    between atoms: C_16  and  C_17
REMARK    8  A    between atoms: N_19  and  C_20
REMARK    9  A    between atoms: C_20  and  C_21
REMARK   10  A    between atoms: C_28  and  C_29
REMARK                            x       y       z     vdW  Elec       q    Type
REMARK                         _______ _______ _______ _____ _____    ______ ____
ROOT
ATOM      1  C   UNL     1       1.493   9.665  19.903  0.00  0.00    +0.000 C 
ENDROOT
BRANCH   1   5
ATOM      2  C   UNL     1       2.690   5.716  18.501  0.00  0.00    +0.000 C 
ATOM      3  C   UNL     1       2.062   6.708  17.540  0.00  0.00    +0.000 C 
ATOM      4  C   UNL     1       1.958   8.113  18.101  0.00  0.00    +0.000 C 
ATOM      5  N   UNL     1       1.441   8.250  19.456  0.00  0.00    +0.000 NA
ATOM      6  C   UNL     1       2.190   7.385  20.381  0.00  0.00    +0.000 C 
ATOM      7  C   UNL     1       2.146   5.927  19.925  0.00  0.00    +0.000 C 
BRANCH   2  10
ATOM      8  C   UNL     1       4.820   4.839  19.407  0.00  0.00    +0.000 C 
ATOM      9  O   UNL     1       6.005   4.935  19.699  0.00  0.00    +0.000 OA
ATOM     10  N   UNL     1       4.171   5.603  18.435  0.00  0.00    +0.000 N 
BRANCH   8  12
ATOM     11  C   UNL     1       4.271   2.552  19.697  0.00  0.00    +0.000 C 
ATOM     12  O   UNL     1       3.987   3.923  19.968  0.00  0.00    +0.000 OA
ENDBRANCH   8  12
BRANCH  10  13
ATOM     13  C   UNL     1       4.960   6.540  17.620  0.00  0.00    +0.000 C 
BRANCH  13  14
ATOM     14  C   UNL     1       5.487   6.008  16.284  0.00  0.00    +0.000 C 
ATOM     15  C   UNL     1       6.978   5.673  16.255  0.00  0.00    +0.000 C 
ATOM     16  C   UNL     1       7.132   4.841  14.982  0.00  0.00    +0.000 C 
ATOM     17  C   UNL     1       5.745   4.257  14.694  0.00  0.00    +0.000 C 
ATOM     18  C   UNL     1       4.886   4.656  15.889  0.00  0.00    +0.000 C 
ENDBRANCH  13  14
ENDBRANCH  10  13
ENDBRANCH   2  10
ENDBRANCH   1   5
BRANCH   1  19
ATOM     19  C   UNL     1       0.145  10.442  19.916  0.00  0.00    +0.000 C 
ATOM     20  C   UNL     1       0.232  11.674  20.826  0.00  0.00    +0.000 C 
ATOM     21  N   UNL     1       0.676  12.812  20.006  0.00  0.00    +0.000 NA
ATOM     22  C   UNL     1       0.271  12.510  18.620  0.00  0.00    +0.000 C 
ATOM     23  C   UNL     1      -0.327  11.093  18.594  0.00  0.00    +0.000 C 
BRANCH  23  24
ATOM     24  C   UNL     1      -1.843  10.964  18.455  0.00  0.00    +0.000 A 
ATOM     25  C   UNL     1      -2.683  11.949  19.010  0.00  0.00    +0.000 A 
ATOM     26  C   UNL     1      -4.063  11.932  18.809  0.00  0.00    +0.000 A 
ATOM     27  C   UNL     1      -4.633  10.917  18.053  0.00  0.00    +0.000 A 
ATOM     28  C   UNL     1      -3.825   9.920  17.513  0.00  0.00    +0.000 A 
ATOM     29  C   UNL     1      -2.441   9.943  17.709  0.00  0.00    +0.000 A 
ENDBRANCH  23  24
BRANCH  21  30
ATOM     30  C   UNL     1       2.115  13.106  20.077  0.00  0.00    +0.000 C 
BRANCH  30  31
ATOM     31  C   UNL     1       2.547  14.330  19.303  0.00  0.00    +0.000 A 
ATOM     32  C   UNL     1       3.479  14.222  18.264  0.00  0.00    +0.000 A 
ATOM     33  C   UNL     1       3.853  15.349  17.533  0.00  0.00    +0.000 A 
ATOM     34  C   UNL     1       3.297  16.591  17.838  0.00  0.00    +0.000 A 
ATOM     35  C   UNL     1       2.378  16.710  18.875  0.00  0.00    +0.000 A 
ATOM     36  C   UNL     1       2.002  15.582  19.609  0.00  0.00    +0.000 A 
ENDBRANCH  30  31
ENDBRANCH  21  30
ENDBRANCH   1  19
TORSDOF 9
ENDMDL
MODEL 2
REMARK VINA RESULT:      -7.3      0.807      1.097
REMARK  Name = 
REMARK  10 active torsions:
REMARK  status: ('A' for Active; 'I' for Inactive)
REMARK    1  A    between atoms: C_1  and  O_2
REMARK    2  A    between atoms: O_2  and  C_3
REMARK    3  A    between atoms: N_5  and  C_6
REMARK    4  A    between atoms: N_5  and  C_12
REMARK    5  A    between atoms: C_6  and  C_7
REMARK    6  A    between atoms: N_15  and  C_16
REMARK    7  A    between atoms: C_16  and  C_17
REMARK    8  A    between atoms: N_19  and  C_20
REMARK    9  A    between atoms: C_20  and  C_21
REMARK   10  A    between atoms: C_28  and  C_29
REMARK                            x       y       z     vdW  Elec       q    Type
REMARK                         _______ _______ _______ _____ _____    ______ ____
ROOT
ATOM      1  C   UNL     1       1.498   9.573  20.012  0.00  0.00    +0.000 C 
ENDROOT
BRANCH   1   5
ATOM      2  C   UNL     1       2.726   5.681  18.484  0.00  0.00    +0.000 C 
ATOM      3  C   UNL     1       2.106   6.705  17.552  0.00  0.00    +0.000 C 
ATOM      4  C   UNL     1       1.990   8.088  18.161  0.00  0.00    +0.000 C 
ATOM      5  N   UNL     1       1.456   8.175  19.513  0.00  0.00    +0.000 NA
ATOM      6  C   UNL     1       2.197   7.280  20.417  0.00  0.00    +0.000 C 
ATOM      7  C   UNL     1       2.164   5.838  19.908  0.00  0.00    +0.000 C 
BRANCH   2  10
ATOM      8  C   UNL     1       4.850   4.793  19.395  0.00  0.00    +0.000 C 
ATOM      9  O   UNL     1       6.032   4.888  19.702  0.00  0.00    +0.000 OA
ATOM     10  N   UNL     1       4.208   5.575  18.432  0.00  0.00    +0.000 N 
BRANCH   8  12
ATOM     11  C   UNL     1       4.356   2.496  19.702  0.00  0.00    +0.000 C 
ATOM     12  O   UNL     1       4.014   3.862  19.927  0.00  0.00    +0.000 OA
ENDBRANCH   8  12
BRANCH  10  13
ATOM     13  C   UNL     1       5.002   6.532  17.646  0.00  0.00    +0.000 C 
BRANCH  13  14
ATOM     14  C   UNL     1       5.548   6.030  16.305  0.00  0.00    +0.000 C 
ATOM     15  C   UNL     1       7.012   5.588  16.320  0.00  0.00    +0.000 C 
ATOM     16  C   UNL     1       7.162   4.811  15.011  0.00  0.00    +0.000 C 
ATOM     17  C   UNL     1       5.751   4.345  14.638  0.00  0.00    +0.000 C 
ATOM     18  C   UNL     1       4.871   4.747  15.817  0.00  0.00    +0.000 C 
ENDBRANCH  13  14
ENDBRANCH  10  13
ENDBRANCH   2  10
ENDBRANCH   1   5
BRANCH   1  19
ATOM     19  C   UNL     1       0.166  10.374  19.950  0.00  0.00    +0.000 C 
ATOM     20  C   UNL     1       0.224  11.606  20.865  0.00  0.00    +0.000 C 
ATOM     21  N   UNL     1       0.734  12.735  20.072  0.00  0.00    +0.000 NA
ATOM     22  C   UNL     1       0.401  12.439  18.665  0.00  0.00    +0.000 C 
ATOM     23  C   UNL     1      -0.221  11.034  18.605  0.00  0.00    +0.000 C 
BRANCH  23  24
ATOM     24  C   UNL     1      -1.728  10.932  18.381  0.00  0.00    +0.000 A 
ATOM     25  C   UNL     1      -2.592  11.855  19.004  0.00  0.00    +0.000 A 
ATOM     26  C   UNL     1      -3.960  11.872  18.738  0.00  0.00    +0.000 A 
ATOM     27  C   UNL     1      -4.496  10.952  17.847  0.00  0.00    +0.000 A 
ATOM     28  C   UNL     1      -3.666  10.016  17.236  0.00  0.00    +0.000 A 
ATOM     29  C   UNL     1      -2.292  10.006  17.498  0.00  0.00    +0.000 A 
ENDBRANCH  23  24
BRANCH  21  30
ATOM     30  C   UNL     1       2.172  13.002  20.223  0.00  0.00    +0.000 C 
BRANCH  30  31
ATOM     31  C   UNL     1       2.538  14.467  20.275  0.00  0.00    +0.000 A 
ATOM     32  C   UNL     1       1.550  15.441  20.459  0.00  0.00    +0.000 A 
ATOM     33  C   UNL     1       1.895  16.790  20.536  0.00  0.00    +0.000 A 
ATOM     34  C   UNL     1       3.232  17.172  20.429  0.00  0.00    +0.000 A 
ATOM     35  C   UNL     1       4.220  16.213  20.235  0.00  0.00    +0.000 A 
ATOM     36  C   UNL     1       3.876  14.861  20.157  0.00  0.00    +0.000 A 
ENDBRANCH  30  31
ENDBRANCH  21  30
ENDBRANCH   1  19
TORSDOF 9
ENDMDL
MODEL 3
REMARK VINA RESULT:      -7.2      4.845     10.073
REMARK  Name = 
REMARK  10 active torsions:
REMARK  status: ('A' for Active; 'I' for Inactive)
REMARK    1  A    between atoms: C_1  and  O_2
REMARK    2  A    between atoms: O_2  and  C_3
REMARK    3  A    between atoms: N_5  and  C_6
REMARK    4  A    between atoms: N_5  and  C_12
REMARK    5  A    between atoms: C_6  and  C_7
REMARK    6  A    between atoms: N_15  and  C_16
REMARK    7  A    between atoms: C_16  and  C_17
REMARK    8  A    between atoms: N_19  and  C_20
REMARK    9  A    between atoms: C_20  and  C_21
REMARK   10  A    between atoms: C_28  and  C_29
REMARK                            x       y       z     vdW  Elec       q    Type
REMARK                         _______ _______ _______ _____ _____    ______ ____
ROOT
ATOM      1  C   UNL     1      -0.763  11.531  20.896  0.00  0.00    +0.000 C 
ENDROOT
BRANCH   1   5
ATOM      2  C   UNL     1      -2.984  14.845  22.652  0.00  0.00    +0.000 C 
ATOM      3  C   UNL     1      -2.409  14.968  21.253  0.00  0.00    +0.000 C 
ATOM      4  C   UNL     1      -1.912  13.654  20.683  0.00  0.00    +0.000 C 
ATOM      5  N   UNL     1      -1.087  12.824  21.550  0.00  0.00    +0.000 NA
ATOM      6  C   UNL     1      -1.761  12.599  22.839  0.00  0.00    +0.000 C 
ATOM      7  C   UNL     1      -2.104  13.926  23.517  0.00  0.00    +0.000 C 
BRANCH   2  10
ATOM      8  C   UNL     1      -5.248  15.339  23.523  0.00  0.00    +0.000 C 
ATOM      9  O   UNL     1      -6.344  15.017  23.963  0.00  0.00    +0.000 OA
ATOM     10  N   UNL     1      -4.435  14.530  22.726  0.00  0.00    +0.000 N 
BRANCH   8  12
ATOM     11  C   UNL     1      -4.613  17.022  25.067  0.00  0.00    +0.000 C 
ATOM     12  O   UNL     1      -4.699  16.568  23.718  0.00  0.00    +0.000 OA
ENDBRANCH   8  12
BRANCH  10  13
ATOM     13  C   UNL     1      -4.943  13.220  22.290  0.00  0.00    +0.000 C 
BRANCH  13  14
ATOM     14  C   UNL     1      -6.073  13.234  21.256  0.00  0.00    +0.000 C 
ATOM     15  C   UNL     1      -5.788  14.036  19.985  0.00  0.00    +0.000 C 
ATOM     16  C   UNL     1      -6.879  13.573  19.019  0.00  0.00    +0.000 C 
ATOM     17  C   UNL     1      -7.319  12.192  19.517  0.00  0.00    +0.000 C 
ATOM     18  C   UNL     1      -6.366  11.855  20.659  0.00  0.00    +0.000 C 
ENDBRANCH  13  14
ENDBRANCH  10  13
ENDBRANCH   2  10
ENDBRANCH   1   5
BRANCH   1  19
ATOM     19  C   UNL     1      -1.006  11.447  19.361  0.00  0.00    +0.000 C 
ATOM     20  C   UNL     1       0.325  11.442  18.596  0.00  0.00    +0.000 C 
ATOM     21  N   UNL     1       0.745  10.042  18.427  0.00  0.00    +0.000 NA
ATOM     22  C   UNL     1      -0.486   9.229  18.476  0.00  0.00    +0.000 C 
ATOM     23  C   UNL     1      -1.664  10.162  18.802  0.00  0.00    +0.000 C 
BRANCH  23  24
ATOM     24  C   UNL     1      -2.628  10.514  17.671  0.00  0.00    +0.000 A 
ATOM     25  C   UNL     1      -3.777  11.282  17.943  0.00  0.00    +0.000 A 
ATOM     26  C   UNL     1      -4.621  11.723  16.925  0.00  0.00    +0.000 A 
ATOM     27  C   UNL     1      -4.337  11.390  15.608  0.00  0.00    +0.000 A 
ATOM     28  C   UNL     1      -3.220  10.613  15.316  0.00  0.00    +0.000 A 
ATOM     29  C   UNL     1      -2.369  10.179  16.338  0.00  0.00    +0.000 A 
ENDBRANCH  23  24
BRANCH  21  30
ATOM     30  C   UNL     1       1.725   9.565  19.414  0.00  0.00    +0.000 C 
BRANCH  30  31
ATOM     31  C   UNL     1       2.015   8.083  19.346  0.00  0.00    +0.000 A 
ATOM     32  C   UNL     1       1.753   7.255  20.444  0.00  0.00    +0.000 A 
ATOM     33  C   UNL     1       1.995   5.884  20.367  0.00  0.00    +0.000 A 
ATOM     34  C   UNL     1       2.502   5.333  19.191  0.00  0.00    +0.000 A 
ATOM     35  C   UNL     1       2.776   6.148  18.098  0.00  0.00    +0.000 A 
ATOM     36  C   UNL     1       2.534   7.522  18.173  0.00  0.00    +0.000 A 
ENDBRANCH  30  31
ENDBRANCH  21  30
ENDBRANCH   1  19
TORSDOF 9
ENDMDL
MODEL 4
REMARK VINA RESULT:      -7.0      4.527      9.988
REMARK  Name = 
REMARK  10 active torsions:
REMARK  status: ('A' for Active; 'I' for Inactive)
REMARK    1  A    between atoms: C_1  and  O_2
REMARK    2  A    between atoms: O_2  and  C_3
REMARK    3  A    between atoms: N_5  and  C_6
REMARK    4  A    between atoms: N_5  and  C_12
REMARK    5  A    between atoms: C_6  and  C_7
REMARK    6  A    between atoms: N_15  and  C_16
REMARK    7  A    between atoms: C_16  and  C_17
REMARK    8  A    between atoms: N_19  and  C_20
REMARK    9  A    between atoms: C_20  and  C_21
REMARK   10  A    between atoms: C_28  and  C_29
REMARK                            x       y       z     vdW  Elec       q    Type
REMARK                         _______ _______ _______ _____ _____    ______ ____
ROOT
ATOM      1  C   UNL     1       0.158  13.080  18.490  0.00  0.00    +0.000 C 
ENDROOT
BRANCH   1   5
ATOM      2  C   UNL     1       0.248  15.627  22.025  0.00  0.00    +0.000 C 
ATOM      3  C   UNL     1      -0.504  16.071  20.785  0.00  0.00    +0.000 C 
ATOM      4  C   UNL     1      -0.675  14.973  19.754  0.00  0.00    +0.000 C 
ATOM      5  N   UNL     1       0.501  14.175  19.433  0.00  0.00    +0.000 NA
ATOM      6  C   UNL     1       1.103  13.633  20.661  0.00  0.00    +0.000 C 
ATOM      7  C   UNL     1       1.454  14.753  21.640  0.00  0.00    +0.000 C 
BRANCH   2  10
ATOM      8  C   UNL     1      -0.578  15.686  24.359  0.00  0.00    +0.000 C 
ATOM      9  O   UNL     1      -0.907  15.162  25.415  0.00  0.00    +0.000 OA
ATOM     10  N   UNL     1      -0.587  15.053  23.114  0.00  0.00    +0.000 N 
BRANCH   8  12
ATOM     11  C   UNL     1      -1.060  17.946  24.883  0.00  0.00    +0.000 C 
ATOM     12  O   UNL     1      -0.207  16.990  24.258  0.00  0.00    +0.000 OA
ENDBRANCH   8  12
BRANCH  10  13
ATOM     13  C   UNL     1      -1.109  13.681  23.016  0.00  0.00    +0.000 C 
BRANCH  13  14
ATOM     14  C   UNL     1      -2.615  13.537  22.779  0.00  0.00    +0.000 C 
ATOM     15  C   UNL     1      -3.353  12.650  23.782  0.00  0.00    +0.000 C 
ATOM     16  C   UNL     1      -4.825  12.988  23.542  0.00  0.00    +0.000 C 
ATOM     17  C   UNL     1      -4.835  14.384  22.911  0.00  0.00    +0.000 C 
ATOM     18  C   UNL     1      -3.384  14.852  22.947  0.00  0.00    +0.000 C 
ENDBRANCH  13  14
ENDBRANCH  10  13
ENDBRANCH   2  10
ENDBRANCH   1   5
BRANCH   1  19
ATOM     19  C   UNL     1       0.067  11.648  19.091  0.00  0.00    +0.000 C 
ATOM     20  C   UNL     1      -1.272  11.441  19.812  0.00  0.00    +0.000 C 
ATOM     21  N   UNL     1      -2.233  10.902  18.837  0.00  0.00    +0.000 NA
ATOM     22  C   UNL     1      -1.435  10.213  17.804  0.00  0.00    +0.000 C 
ATOM     23  C   UNL     1       0.053  10.451  18.109  0.00  0.00    +0.000 C 
BRANCH  23  24
ATOM     24  C   UNL     1       0.856   9.287  18.686  0.00  0.00    +0.000 A 
ATOM     25  C   UNL     1       1.733   8.562  17.855  0.00  0.00    +0.000 A 
ATOM     26  C   UNL     1       2.569   7.569  18.364  0.00  0.00    +0.000 A 
ATOM     27  C   UNL     1       2.534   7.271  19.718  0.00  0.00    +0.000 A 
ATOM     28  C   UNL     1       1.659   7.958  20.555  0.00  0.00    +0.000 A 
ATOM     29  C   UNL     1       0.828   8.960  20.045  0.00  0.00    +0.000 A 
ENDBRANCH  23  24
BRANCH  21  30
ATOM     30  C   UNL     1      -3.126  11.898  18.228  0.00  0.00    +0.000 C 
BRANCH  30  31
ATOM     31  C   UNL     1      -4.570  11.798  18.663  0.00  0.00    +0.000 A 
ATOM     32  C   UNL     1      -5.480  11.023  17.934  0.00  0.00    +0.000 A 
ATOM     33  C   UNL     1      -6.804  10.909  18.354  0.00  0.00    +0.000 A 
ATOM     34  C   UNL     1      -7.227  11.571  19.506  0.00  0.00    +0.000 A 
ATOM     35  C   UNL     1      -6.333  12.352  20.231  0.00  0.00    +0.000 A 
ATOM     36  C   UNL     1      -5.006  12.467  19.812  0.00  0.00    +0.000 A 
ENDBRANCH  30  31
ENDBRANCH  21  30
ENDBRANCH   1  19
TORSDOF 9
ENDMDL
MODEL 5
REMARK VINA RESULT:      -7.0      1.426      2.989
REMARK  Name = 
REMARK  10 active torsions:
REMARK  status: ('A' for Active; 'I' for Inactive)
REMARK    1  A    between atoms: C_1  and  O_2
REMARK    2  A    between atoms: O_2  and  C_3
REMARK    3  A    between atoms: N_5  and  C_6
REMARK    4  A    between atoms: N_5  and  C_12
REMARK    5  A    between atoms: C_6  and  C_7
REMARK    6  A    between atoms: N_15  and  C_16
REMARK    7  A    between atoms: C_16  and  C_17
REMARK    8  A    between atoms: N_19  and  C_20
REMARK    9  A    between atoms: C_20  and  C_21
REMARK   10  A    between atoms: C_28  and  C_29
REMARK                            x       y       z     vdW  Elec       q    Type
REMARK                         _______ _______ _______ _____ _____    ______ ____
ROOT
ATOM      1  C   UNL     1       2.189  10.082  18.178  0.00  0.00    +0.000 C 
ENDROOT
BRANCH   1   5
ATOM      2  C   UNL     1       3.425   5.943  17.599  0.00  0.00    +0.000 C 
ATOM      3  C   UNL     1       4.215   7.071  16.962  0.00  0.00    +0.000 C 
ATOM      4  C   UNL     1       3.832   8.445  17.475  0.00  0.00    +0.000 C 
ATOM      5  N   UNL     1       2.410   8.747  17.566  0.00  0.00    +0.000 NA
ATOM      6  C   UNL     1       1.712   7.703  18.333  0.00  0.00    +0.000 C 
ATOM      7  C   UNL     1       1.939   6.324  17.714  0.00  0.00    +0.000 C 
BRANCH   2  10
ATOM      8  C   UNL     1       5.018   4.432  18.743  0.00  0.00    +0.000 C 
ATOM      9  O   UNL     1       5.333   3.639  19.621  0.00  0.00    +0.000 OA
ATOM     10  N   UNL     1       3.999   5.382  18.851  0.00  0.00    +0.000 N 
BRANCH   8  12
ATOM     11  C   UNL     1       7.087   4.632  17.607  0.00  0.00    +0.000 C 
ATOM     12  O   UNL     1       5.667   4.521  17.552  0.00  0.00    +0.000 OA
ENDBRANCH   8  12
BRANCH  10  13
ATOM     13  C   UNL     1       3.293   5.527  20.132  0.00  0.00    +0.000 C 
BRANCH  13  14
ATOM     14  C   UNL     1       2.159   4.534  20.406  0.00  0.00    +0.000 C 
ATOM     15  C   UNL     1       1.958   3.459  19.338  0.00  0.00    +0.000 C 
ATOM     16  C   UNL     1       1.064   2.431  20.030  0.00  0.00    +0.000 C 
ATOM     17  C   UNL     1       1.284   2.630  21.533  0.00  0.00    +0.000 C 
ATOM     18  C   UNL     1       2.402   3.662  21.641  0.00  0.00    +0.000 C 
ENDBRANCH  13  14
ENDBRANCH  10  13
ENDBRANCH   2  10
ENDBRANCH   1   5
BRANCH   1  19
ATOM     19  C   UNL     1       0.769  10.359  18.750  0.00  0.00    +0.000 C 
ATOM     20  C   UNL     1       0.852  10.889  20.188  0.00  0.00    +0.000 C 
ATOM     21  N   UNL     1       0.921  12.357  20.127  0.00  0.00    +0.000 NA
ATOM     22  C   UNL     1       0.280  12.751  18.857  0.00  0.00    +0.000 C 
ATOM     23  C   UNL     1      -0.076  11.471  18.082  0.00  0.00    +0.000 C 
BRANCH  23  24
ATOM     24  C   UNL     1      -1.545  11.056  18.029  0.00  0.00    +0.000 A 
ATOM     25  C   UNL     1      -2.524  11.873  18.629  0.00  0.00    +0.000 A 
ATOM     26  C   UNL     1      -3.885  11.594  18.505  0.00  0.00    +0.000 A 
ATOM     27  C   UNL     1      -4.293  10.480  17.786  0.00  0.00    +0.000 A 
ATOM     28  C   UNL     1      -3.343   9.646  17.204  0.00  0.00    +0.000 A 
ATOM     29  C   UNL     1      -1.979   9.931  17.321  0.00  0.00    +0.000 A 
ENDBRANCH  23  24
BRANCH  21  30
ATOM     30  C   UNL     1       2.275  12.921  20.224  0.00  0.00    +0.000 C 
BRANCH  30  31
ATOM     31  C   UNL     1       2.490  14.185  19.424  0.00  0.00    +0.000 A 
ATOM     32  C   UNL     1       3.292  14.174  18.277  0.00  0.00    +0.000 A 
ATOM     33  C   UNL     1       3.464  15.335  17.525  0.00  0.00    +0.000 A 
ATOM     34  C   UNL     1       2.834  16.516  17.918  0.00  0.00    +0.000 A 
ATOM     35  C   UNL     1       2.044  16.540  19.062  0.00  0.00    +0.000 A 
ATOM     36  C   UNL     1       1.871  15.378  19.816  0.00  0.00    +0.000 A 
ENDBRANCH  30  31
ENDBRANCH  21  30
ENDBRANCH   1  19
TORSDOF 9
ENDMDL
MODEL 6
REMARK VINA RESULT:      -7.0      1.618      2.334
REMARK  Name = 
REMARK  10 active torsions:
REMARK  status: ('A' for Active; 'I' for Inactive)
REMARK    1  A    between atoms: C_1  and  O_2
REMARK    2  A    between atoms: O_2  and  C_3
REMARK    3  A    between atoms: N_5  and  C_6
REMARK    4  A    between atoms: N_5  and  C_12
REMARK    5  A    between atoms: C_6  and  C_7
REMARK    6  A    between atoms: N_15  and  C_16
REMARK    7  A    between atoms: C_16  and  C_17
REMARK    8  A    between atoms: N_19  and  C_20
REMARK    9  A    between atoms: C_20  and  C_21
REMARK   10  A    between atoms: C_28  and  C_29
REMARK                            x       y       z     vdW  Elec       q    Type
REMARK                         _______ _______ _______ _____ _____    ______ ____
ROOT
ATOM      1  C   UNL     1       1.600  10.602  18.806  0.00  0.00    +0.000 C 
ENDROOT
BRANCH   1   5
ATOM      2  C   UNL     1       2.397   6.318  18.680  0.00  0.00    +0.000 C 
ATOM      3  C   UNL     1       1.739   7.007  17.498  0.00  0.00    +0.000 C 
ATOM      4  C   UNL     1       1.782   8.520  17.578  0.00  0.00    +0.000 C 
ATOM      5  N   UNL     1       1.413   9.129  18.848  0.00  0.00    +0.000 NA
ATOM      6  C   UNL     1       2.196   8.538  19.946  0.00  0.00    +0.000 C 
ATOM      7  C   UNL     1       2.014   7.021  19.994  0.00  0.00    +0.000 C 
BRANCH   2  10
ATOM      8  C   UNL     1       4.469   5.233  19.491  0.00  0.00    +0.000 C 
ATOM      9  O   UNL     1       5.671   5.209  19.723  0.00  0.00    +0.000 OA
ATOM     10  N   UNL     1       3.853   6.054  18.543  0.00  0.00    +0.000 N 
BRANCH   8  12
ATOM     11  C   UNL     1       3.747   3.012  19.889  0.00  0.00    +0.000 C 
ATOM     12  O   UNL     1       3.575   4.411  20.103  0.00  0.00    +0.000 OA
ENDBRANCH   8  12
BRANCH  10  13
ATOM     13  C   UNL     1       4.692   6.899  17.680  0.00  0.00    +0.000 C 
BRANCH  13  14
ATOM     14  C   UNL     1       5.276   6.235  16.429  0.00  0.00    +0.000 C 
ATOM     15  C   UNL     1       6.776   5.945  16.482  0.00  0.00    +0.000 C 
ATOM     16  C   UNL     1       6.994   4.977  15.318  0.00  0.00    +0.000 C 
ATOM     17  C   UNL     1       5.634   4.321  15.061  0.00  0.00    +0.000 C 
ATOM     18  C   UNL     1       4.726   4.828  16.178  0.00  0.00    +0.000 C 
ENDBRANCH  13  14
ENDBRANCH  10  13
ENDBRANCH   2  10
ENDBRANCH   1   5
BRANCH   1  19
ATOM     19  C   UNL     1       0.953  11.419  19.961  0.00  0.00    +0.000 C 
ATOM     20  C   UNL     1       1.820  12.632  20.325  0.00  0.00    +0.000 C 
ATOM     21  N   UNL     1       1.373  13.770  19.507  0.00  0.00    +0.000 NA
ATOM     22  C   UNL     1      -0.037  13.505  19.159  0.00  0.00    +0.000 C 
ATOM     23  C   UNL     1      -0.405  12.108  19.687  0.00  0.00    +0.000 C 
BRANCH  23  24
ATOM     24  C   UNL     1      -1.296  12.028  20.925  0.00  0.00    +0.000 A 
ATOM     25  C   UNL     1      -0.886  11.261  22.034  0.00  0.00    +0.000 A 
ATOM     26  C   UNL     1      -1.610  11.253  23.225  0.00  0.00    +0.000 A 
ATOM     27  C   UNL     1      -2.771  12.005  23.327  0.00  0.00    +0.000 A 
ATOM     28  C   UNL     1      -3.208  12.753  22.237  0.00  0.00    +0.000 A 
ATOM     29  C   UNL     1      -2.477  12.767  21.046  0.00  0.00    +0.000 A 
ENDBRANCH  23  24
BRANCH  21  30
ATOM     30  C   UNL     1       2.171  14.017  18.297  0.00  0.00    +0.000 C 
BRANCH  30  31
ATOM     31  C   UNL     1       3.371  14.912  18.506  0.00  0.00    +0.000 A 
ATOM     32  C   UNL     1       3.248  16.113  19.215  0.00  0.00    +0.000 A 
ATOM     33  C   UNL     1       4.363  16.921  19.432  0.00  0.00    +0.000 A 
ATOM     34  C   UNL     1       5.609  16.533  18.939  0.00  0.00    +0.000 A 
ATOM     35  C   UNL     1       5.739  15.348  18.224  0.00  0.00    +0.000 A 
ATOM     36  C   UNL     1       4.623  14.536  18.006  0.00  0.00    +0.000 A 
ENDBRANCH  30  31
ENDBRANCH  21  30
ENDBRANCH   1  19
TORSDOF 9
ENDMDL
MODEL 7
REMARK VINA RESULT:      -7.0      1.916      4.808
REMARK  Name = 
REMARK  10 active torsions:
REMARK  status: ('A' for Active; 'I' for Inactive)
REMARK    1  A    between atoms: C_1  and  O_2
REMARK    2  A    between atoms: O_2  and  C_3
REMARK    3  A    between atoms: N_5  and  C_6
REMARK    4  A    between atoms: N_5  and  C_12
REMARK    5  A    between atoms: C_6  and  C_7
REMARK    6  A    between atoms: N_15  and  C_16
REMARK    7  A    between atoms: C_16  and  C_17
REMARK    8  A    between atoms: N_19  and  C_20
REMARK    9  A    between atoms: C_20  and  C_21
REMARK   10  A    between atoms: C_28  and  C_29
REMARK                            x       y       z     vdW  Elec       q    Type
REMARK                         _______ _______ _______ _____ _____    ______ ____
ROOT
ATOM      1  C   UNL     1       1.486  10.266  20.506  0.00  0.00    +0.000 C 
ENDROOT
BRANCH   1   5
ATOM      2  C   UNL     1       2.302   6.555  18.371  0.00  0.00    +0.000 C 
ATOM      3  C   UNL     1       1.914   7.806  17.605  0.00  0.00    +0.000 C 
ATOM      4  C   UNL     1       1.935   9.064  18.449  0.00  0.00    +0.000 C 
ATOM      5  N   UNL     1       1.298   8.997  19.758  0.00  0.00    +0.000 NA
ATOM      6  C   UNL     1       1.825   7.858  20.527  0.00  0.00    +0.000 C 
ATOM      7  C   UNL     1       1.642   6.548  19.761  0.00  0.00    +0.000 C 
BRANCH   2  10
ATOM      8  C   UNL     1       4.233   5.403  19.409  0.00  0.00    +0.000 C 
ATOM      9  O   UNL     1       5.400   5.338  19.771  0.00  0.00    +0.000 OA
ATOM     10  N   UNL     1       3.754   6.238  18.396  0.00  0.00    +0.000 N 
BRANCH   8  12
ATOM     11  C   UNL     1       3.430   3.209  19.804  0.00  0.00    +0.000 C 
ATOM     12  O   UNL     1       3.248   4.618  19.922  0.00  0.00    +0.000 OA
ENDBRANCH   8  12
BRANCH  10  13
ATOM     13  C   UNL     1       4.712   7.046  17.627  0.00  0.00    +0.000 C 
BRANCH  13  14
ATOM     14  C   UNL     1       5.362   6.370  16.416  0.00  0.00    +0.000 C 
ATOM     15  C   UNL     1       6.837   6.001  16.585  0.00  0.00    +0.000 C 
ATOM     16  C   UNL     1       7.100   5.040  15.425  0.00  0.00    +0.000 C 
ATOM     17  C   UNL     1       5.733   4.460  15.046  0.00  0.00    +0.000 C 
ATOM     18  C   UNL     1       4.764   4.997  16.094  0.00  0.00    +0.000 C 
ENDBRANCH  13  14
ENDBRANCH  10  13
ENDBRANCH   2  10
ENDBRANCH   1   5
BRANCH   1  19
ATOM     19  C   UNL     1       1.165  11.580  19.738  0.00  0.00    +0.000 C 
ATOM     20  C   UNL     1      -0.349  11.749  19.550  0.00  0.00    +0.000 C 
ATOM     21  N   UNL     1      -0.868  12.503  20.701  0.00  0.00    +0.000 NA
ATOM     22  C   UNL     1       0.260  13.302  21.218  0.00  0.00    +0.000 C 
ATOM     23  C   UNL     1       1.520  12.923  20.423  0.00  0.00    +0.000 C 
BRANCH  23  24
ATOM     24  C   UNL     1       2.036  13.921  19.388  0.00  0.00    +0.000 A 
ATOM     25  C   UNL     1       1.490  15.219  19.336  0.00  0.00    +0.000 A 
ATOM     26  C   UNL     1       2.009  16.197  18.488  0.00  0.00    +0.000 A 
ATOM     27  C   UNL     1       3.081  15.890  17.662  0.00  0.00    +0.000 A 
ATOM     28  C   UNL     1       3.623  14.607  17.681  0.00  0.00    +0.000 A 
ATOM     29  C   UNL     1       3.107  13.630  18.538  0.00  0.00    +0.000 A 
ENDBRANCH  23  24
BRANCH  21  30
ATOM     30  C   UNL     1      -1.457  11.680  21.769  0.00  0.00    +0.000 C 
BRANCH  30  31
ATOM     31  C   UNL     1      -2.743  12.225  22.346  0.00  0.00    +0.000 A 
ATOM     32  C   UNL     1      -3.006  12.124  23.717  0.00  0.00    +0.000 A 
ATOM     33  C   UNL     1      -4.180  12.654  24.250  0.00  0.00    +0.000 A 
ATOM     34  C   UNL     1      -5.099  13.287  23.414  0.00  0.00    +0.000 A 
ATOM     35  C   UNL     1      -4.852  13.382  22.049  0.00  0.00    +0.000 A 
ATOM     36  C   UNL     1      -3.676  12.852  21.512  0.00  0.00    +0.000 A 
ENDBRANCH  30  31
ENDBRANCH  21  30
ENDBRANCH   1  19
TORSDOF 9
ENDMDL
MODEL 8
REMARK VINA RESULT:      -6.9      1.106      1.543
REMARK  Name = 
REMARK  10 active torsions:
REMARK  status: ('A' for Active; 'I' for Inactive)
REMARK    1  A    between atoms: C_1  and  O_2
REMARK    2  A    between atoms: O_2  and  C_3
REMARK    3  A    between atoms: N_5  and  C_6
REMARK    4  A    between atoms: N_5  and  C_12
REMARK    5  A    between atoms: C_6  and  C_7
REMARK    6  A    between atoms: N_15  and  C_16
REMARK    7  A    between atoms: C_16  and  C_17
REMARK    8  A    between atoms: N_19  and  C_20
REMARK    9  A    between atoms: C_20  and  C_21
REMARK   10  A    between atoms: C_28  and  C_29
REMARK                            x       y       z     vdW  Elec       q    Type
REMARK                         _______ _______ _______ _____ _____    ______ ____
ROOT
ATOM      1  C   UNL     1       1.460   9.265  20.029  0.00  0.00    +0.000 C 
ENDROOT
BRANCH   1   5
ATOM      2  C   UNL     1       2.237   5.079  19.097  0.00  0.00    +0.000 C 
ATOM      3  C   UNL     1       1.795   6.034  18.004  0.00  0.00    +0.000 C 
ATOM      4  C   UNL     1       1.834   7.491  18.420  0.00  0.00    +0.000 C 
ATOM      5  N   UNL     1       1.258   7.827  19.715  0.00  0.00    +0.000 NA
ATOM      6  C   UNL     1       1.837   6.980  20.770  0.00  0.00    +0.000 C 
ATOM      7  C   UNL     1       1.640   5.497  20.452  0.00  0.00    +0.000 C 
BRANCH   2  10
ATOM      8  C   UNL     1       4.099   3.515  19.562  0.00  0.00    +0.000 C 
ATOM      9  O   UNL     1       5.212   3.238  19.989  0.00  0.00    +0.000 OA
ATOM     10  N   UNL     1       3.693   4.786  19.148  0.00  0.00    +0.000 N 
BRANCH   8  12
ATOM     11  C   UNL     1       3.329   1.622  18.363  0.00  0.00    +0.000 C 
ATOM     12  O   UNL     1       3.117   2.591  19.387  0.00  0.00    +0.000 OA
ENDBRANCH   8  12
BRANCH  10  13
ATOM     13  C   UNL     1       4.680   5.876  19.126  0.00  0.00    +0.000 C 
BRANCH  13  14
ATOM     14  C   UNL     1       5.417   6.105  17.803  0.00  0.00    +0.000 C 
ATOM     15  C   UNL     1       6.875   5.645  17.778  0.00  0.00    +0.000 C 
ATOM     16  C   UNL     1       7.223   5.642  16.289  0.00  0.00    +0.000 C 
ATOM     17  C   UNL     1       5.889   5.506  15.549  0.00  0.00    +0.000 C 
ATOM     18  C   UNL     1       4.844   5.290  16.640  0.00  0.00    +0.000 C 
ENDBRANCH  13  14
ENDBRANCH  10  13
ENDBRANCH   2  10
ENDBRANCH   1   5
BRANCH   1  19
ATOM     19  C   UNL     1       0.212  10.186  19.902  0.00  0.00    +0.000 C 
ATOM     20  C   UNL     1       0.315  11.382  20.860  0.00  0.00    +0.000 C 
ATOM     21  N   UNL     1       0.980  12.480  20.142  0.00  0.00    +0.000 NA
ATOM     22  C   UNL     1       0.725  12.255  18.706  0.00  0.00    +0.000 C 
ATOM     23  C   UNL     1      -0.015  10.915  18.556  0.00  0.00    +0.000 C 
BRANCH  23  24
ATOM     24  C   UNL     1      -1.505  10.959  18.225  0.00  0.00    +0.000 A 
ATOM     25  C   UNL     1      -2.055  10.003  17.347  0.00  0.00    +0.000 A 
ATOM     26  C   UNL     1      -3.427   9.935  17.108  0.00  0.00    +0.000 A 
ATOM     27  C   UNL     1      -4.278  10.833  17.735  0.00  0.00    +0.000 A 
ATOM     28  C   UNL     1      -3.755  11.800  18.589  0.00  0.00    +0.000 A 
ATOM     29  C   UNL     1      -2.380  11.863  18.835  0.00  0.00    +0.000 A 
ENDBRANCH  23  24
BRANCH  21  30
ATOM     30  C   UNL     1       2.422  12.609  20.402  0.00  0.00    +0.000 C 
BRANCH  30  31
ATOM     31  C   UNL     1       2.940  14.029  20.386  0.00  0.00    +0.000 A 
ATOM     32  C   UNL     1       2.972  14.762  19.193  0.00  0.00    +0.000 A 
ATOM     33  C   UNL     1       3.423  16.081  19.188  0.00  0.00    +0.000 A 
ATOM     34  C   UNL     1       3.845  16.675  20.376  0.00  0.00    +0.000 A 
ATOM     35  C   UNL     1       3.828  15.953  21.564  0.00  0.00    +0.000 A 
ATOM     36  C   UNL     1       3.376  14.631  21.572  0.00  0.00    +0.000 A 
ENDBRANCH  30  31
ENDBRANCH  21  30
ENDBRANCH   1  19
TORSDOF 9
ENDMDL
MODEL 9
REMARK VINA RESULT:      -6.9      4.368      9.732
REMARK  Name = 
REMARK  10 active torsions:
REMARK  status: ('A' for Active; 'I' for Inactive)
REMARK    1  A    between atoms: C_1  and  O_2
REMARK    2  A    between atoms: O_2  and  C_3
REMARK    3  A    between atoms: N_5  and  C_6
REMARK    4  A    between atoms: N_5  and  C_12
REMARK    5  A    between atoms: C_6  and  C_7
REMARK    6  A    between atoms: N_15  and  C_16
REMARK    7  A    between atoms: C_16  and  C_17
REMARK    8  A    between atoms: N_19  and  C_20
REMARK    9  A    between atoms: C_20  and  C_21
REMARK   10  A    between atoms: C_28  and  C_29
REMARK                            x       y       z     vdW  Elec       q    Type
REMARK                         _______ _______ _______ _____ _____    ______ ____
ROOT
ATOM      1  C   UNL     1       0.979  10.912  20.580  0.00  0.00    +0.000 C 
ENDROOT
BRANCH   1   5
ATOM      2  C   UNL     1      -1.344  13.922  22.709  0.00  0.00    +0.000 C 
ATOM      3  C   UNL     1       0.027  14.267  22.156  0.00  0.00    +0.000 C 
ATOM      4  C   UNL     1       0.582  13.217  21.215  0.00  0.00    +0.000 C 
ATOM      5  N   UNL     1       0.491  11.827  21.642  0.00  0.00    +0.000 NA
ATOM      6  C   UNL     1      -0.893  11.496  22.017  0.00  0.00    +0.000 C 
ATOM      7  C   UNL     1      -1.406  12.437  23.107  0.00  0.00    +0.000 C 
BRANCH   2  10
ATOM      8  C   UNL     1      -2.795  15.740  21.861  0.00  0.00    +0.000 C 
ATOM      9  O   UNL     1      -3.878  16.217  21.547  0.00  0.00    +0.000 OA
ATOM     10  N   UNL     1      -2.501  14.375  21.893  0.00  0.00    +0.000 N 
BRANCH   8  12
ATOM     11  C   UNL     1      -1.951  17.670  22.946  0.00  0.00    +0.000 C 
ATOM     12  O   UNL     1      -1.710  16.497  22.173  0.00  0.00    +0.000 OA
ENDBRANCH   8  12
BRANCH  10  13
ATOM     13  C   UNL     1      -3.518  13.416  21.435  0.00  0.00    +0.000 C 
BRANCH  13  14
ATOM     14  C   UNL     1      -4.882  13.481  22.128  0.00  0.00    +0.000 C 
ATOM     15  C   UNL     1      -5.961  12.574  21.536  0.00  0.00    +0.000 C 
ATOM     16  C   UNL     1      -7.045  12.559  22.615  0.00  0.00    +0.000 C 
ATOM     17  C   UNL     1      -6.336  12.915  23.925  0.00  0.00    +0.000 C 
ATOM     18  C   UNL     1      -4.852  12.978  23.574  0.00  0.00    +0.000 C 
ENDBRANCH  13  14
ENDBRANCH  10  13
ENDBRANCH   2  10
ENDBRANCH   1   5
BRANCH   1  19
ATOM     19  C   UNL     1       0.303  11.041  19.185  0.00  0.00    +0.000 C 
ATOM     20  C   UNL     1       1.351  11.022  18.064  0.00  0.00    +0.000 C 
ATOM     21  N   UNL     1       1.541   9.624  17.645  0.00  0.00    +0.000 NA
ATOM     22  C   UNL     1       0.289   8.916  17.977  0.00  0.00    +0.000 C 
ATOM     23  C   UNL     1      -0.631   9.896  18.724  0.00  0.00    +0.000 C 
BRANCH  23  24
ATOM     24  C   UNL     1      -1.829  10.465  17.967  0.00  0.00    +0.000 A 
ATOM     25  C   UNL     1      -2.102  10.024  16.656  0.00  0.00    +0.000 A 
ATOM     26  C   UNL     1      -3.248  10.429  15.972  0.00  0.00    +0.000 A 
ATOM     27  C   UNL     1      -4.140  11.297  16.584  0.00  0.00    +0.000 A 
ATOM     28  C   UNL     1      -3.880  11.764  17.869  0.00  0.00    +0.000 A 
ATOM     29  C   UNL     1      -2.736  11.351  18.558  0.00  0.00    +0.000 A 
ENDBRANCH  23  24
BRANCH  21  30
ATOM     30  C   UNL     1       2.699   8.946  18.248  0.00  0.00    +0.000 C 
BRANCH  30  31
ATOM     31  C   UNL     1       2.419   7.548  18.748  0.00  0.00    +0.000 A 
ATOM     32  C   UNL     1       2.544   6.448  17.891  0.00  0.00    +0.000 A 
ATOM     33  C   UNL     1       2.314   5.157  18.363  0.00  0.00    +0.000 A 
ATOM     34  C   UNL     1       1.955   4.958  19.696  0.00  0.00    +0.000 A 
ATOM     35  C   UNL     1       1.817   6.044  20.552  0.00  0.00    +0.000 A 
ATOM     36  C   UNL     1       2.048   7.339  20.081  0.00  0.00    +0.000 A 
ENDBRANCH  30  31
ENDBRANCH  21  30
ENDBRANCH   1  19
TORSDOF 9
ENDMDL
