MODEL 1
REMARK VINA RESULT:      -7.3      0.000      0.000
REMARK  Name = 
REMARK  8 active torsions:
REMARK  status: ('A' for Active; 'I' for Inactive)
REMARK    1  A    between atoms: C_5  and  C_6
REMARK    2  A    between atoms: C_6  and  N_7
REMARK    3  A    between atoms: N_7  and  C_8
REMARK    4  A    between atoms: N_7  and  C_15
REMARK    5  A    between atoms: C_8  and  C_9
REMARK    6  A    between atoms: C_9  and  N_10
REMARK    7  A    between atoms: C_15  and  C_16
REMARK    8  A    between atoms: C_16  and  N_17
REMARK                            x       y       z     vdW  Elec       q    Type
REMARK                         _______ _______ _______ _____ _____    ______ ____
ROOT
ATOM      1  N   UNL     1       3.856   4.101  17.807  0.00  0.00    +0.000 NA
ENDROOT
BRANCH   1   2
ATOM      2  C   UNL     1       4.873   4.285  16.727  0.00  0.00    +0.000 C 
BRANCH   2   7
ATOM      3  F   UNL     1       8.625   7.832  18.839  0.00  0.00    +0.000 F 
ATOM      4  C   UNL     1       7.815   6.967  18.216  0.00  0.00    +0.000 A 
ATOM      5  C   UNL     1       7.891   5.617  18.548  0.00  0.00    +0.000 A 
ATOM      6  C   UNL     1       7.052   4.706  17.929  0.00  0.00    +0.000 A 
ATOM      7  C   UNL     1       6.027   5.176  17.103  0.00  0.00    +0.000 A 
ATOM      8  C   UNL     1       6.033   6.518  16.703  0.00  0.00    +0.000 A 
ATOM      9  F   UNL     1       5.126   6.955  15.817  0.00  0.00    +0.000 F 
ATOM     10  C   UNL     1       6.927   7.422  17.252  0.00  0.00    +0.000 A 
ENDBRANCH   2   7
ENDBRANCH   1   2
BRANCH   1  11
ATOM     11  C   UNL     1       2.873   5.230  17.859  0.00  0.00    +0.000 C 
BRANCH  11  12
ATOM     12  C   UNL     1       3.048   6.147  19.084  0.00  0.00    +0.000 C 
BRANCH  12  13
ATOM     13  N   UNL     1       2.490   7.472  18.880  0.00  0.00    +0.000 N 
ATOM     14  C   UNL     1       2.518   8.180  17.712  0.00  0.00    +0.000 A 
ATOM     15  C   UNL     1       1.792   9.319  17.969  0.00  0.00    +0.000 A 
ATOM     16  N   UNL     1       1.332   9.316  19.260  0.00  0.00    +0.000 NA
ATOM     17  C   UNL     1       1.755   8.185  19.780  0.00  0.00    +0.000 A 
ENDBRANCH  12  13
ENDBRANCH  11  12
ENDBRANCH   1  11
BRANCH   1  18
ATOM     18  C   UNL     1       3.138   2.822  17.588  0.00  0.00    +0.000 C 
BRANCH  18  19
ATOM     19  C   UNL     1       1.781   2.714  18.298  0.00  0.00    +0.000 C 
BRANCH  19  20
ATOM     20  N   UNL     1       1.948   2.738  19.737  0.00  0.00    +0.000 N 
ATOM     21  C   UNL     1       1.013   3.149  20.644  0.00  0.00    +0.000 A 
ATOM     22  C   UNL     1       1.621   2.991  21.866  0.00  0.00    +0.000 A 
ATOM     23  N   UNL     1       2.894   2.506  21.717  0.00  0.00    +0.000 NA
ATOM     24  C   UNL     1       3.065   2.355  20.427  0.00  0.00    +0.000 A 
ENDBRANCH  19  20
ENDBRANCH  18  19
ENDBRANCH   1  18
TORSDOF 8
ENDMDL
MODEL 2
REMARK VINA RESULT:      -7.2      2.428      4.771
REMARK  Name = 
REMARK  8 active torsions:
REMARK  status: ('A' for Active; 'I' for Inactive)
REMARK    1  A    between atoms: C_5  and  C_6
REMARK    2  A    between atoms: C_6  and  N_7
REMARK    3  A    between atoms: N_7  and  C_8
REMARK    4  A    between atoms: N_7  and  C_15
REMARK    5  A    between atoms: C_8  and  C_9
REMARK    6  A    between atoms: C_9  and  N_10
REMARK    7  A    between atoms: C_15  and  C_16
REMARK    8  A    between atoms: C_16  and  N_17
REMARK                            x       y       z     vdW  Elec       q    Type
REMARK                         _______ _______ _______ _____ _____    ______ ____
ROOT
ATOM      1  N   UNL     1       3.275   5.267  17.577  0.00  0.00    +0.000 NA
ENDROOT
BRANCH   1   2
ATOM      2  C   UNL     1       3.381   6.043  18.850  0.00  0.00    +0.000 C 
BRANCH   2   7
ATOM      3  F   UNL     1       0.663  10.865  19.545  0.00  0.00    +0.000 F 
ATOM      4  C   UNL     1       1.186   9.650  19.339  0.00  0.00    +0.000 A 
ATOM      5  C   UNL     1       1.783   9.375  18.111  0.00  0.00    +0.000 A 
ATOM      6  C   UNL     1       2.345   8.130  17.881  0.00  0.00    +0.000 A 
ATOM      7  C   UNL     1       2.452   7.224  18.940  0.00  0.00    +0.000 A 
ATOM      8  C   UNL     1       1.758   7.478  20.129  0.00  0.00    +0.000 A 
ATOM      9  F   UNL     1       1.755   6.563  21.109  0.00  0.00    +0.000 F 
ATOM     10  C   UNL     1       1.117   8.689  20.337  0.00  0.00    +0.000 A 
ENDBRANCH   2   7
ENDBRANCH   1   2
BRANCH   1  11
ATOM     11  C   UNL     1       4.546   4.548  17.243  0.00  0.00    +0.000 C 
BRANCH  11  12
ATOM     12  C   UNL     1       5.593   4.587  18.373  0.00  0.00    +0.000 C 
BRANCH  12  13
ATOM     13  N   UNL     1       6.573   5.642  18.198  0.00  0.00    +0.000 N 
ATOM     14  C   UNL     1       6.592   6.555  17.181  0.00  0.00    +0.000 A 
ATOM     15  C   UNL     1       7.630   7.404  17.484  0.00  0.00    +0.000 A 
ATOM     16  N   UNL     1       8.238   7.025  18.652  0.00  0.00    +0.000 NA
ATOM     17  C   UNL     1       7.572   5.971  19.068  0.00  0.00    +0.000 A 
ENDBRANCH  12  13
ENDBRANCH  11  12
ENDBRANCH   1  11
BRANCH   1  18
ATOM     18  C   UNL     1       2.165   4.291  17.691  0.00  0.00    +0.000 C 
BRANCH  18  19
ATOM     19  C   UNL     1       2.568   2.914  18.236  0.00  0.00    +0.000 C 
BRANCH  19  20
ATOM     20  N   UNL     1       2.331   2.835  19.664  0.00  0.00    +0.000 N 
ATOM     21  C   UNL     1       1.121   2.972  20.281  0.00  0.00    +0.000 A 
ATOM     22  C   UNL     1       1.394   2.820  21.619  0.00  0.00    +0.000 A 
ATOM     23  N   UNL     1       2.733   2.604  21.820  0.00  0.00    +0.000 NA
ATOM     24  C   UNL     1       3.274   2.610  20.628  0.00  0.00    +0.000 A 
ENDBRANCH  19  20
ENDBRANCH  18  19
ENDBRANCH   1  18
TORSDOF 8
ENDMDL
MODEL 3
REMARK VINA RESULT:      -7.2      0.625      4.471
REMARK  Name = 
REMARK  8 active torsions:
REMARK  status: ('A' for Active; 'I' for Inactive)
REMARK    1  A    between atoms: C_5  and  C_6
REMARK    2  A    between atoms: C_6  and  N_7
REMARK    3  A    between atoms: N_7  and  C_8
REMARK    4  A    between atoms: N_7  and  C_15
REMARK    5  A    between atoms: C_8  and  C_9
REMARK    6  A    between atoms: C_9  and  N_10
REMARK    7  A    between atoms: C_15  and  C_16
REMARK    8  A    between atoms: C_16  and  N_17
REMARK                            x       y       z     vdW  Elec       q    Type
REMARK                         _______ _______ _______ _____ _____    ______ ____
ROOT
ATOM      1  N   UNL     1       3.548   5.209  17.698  0.00  0.00    +0.000 NA
ENDROOT
BRANCH   1   2
ATOM      2  C   UNL     1       4.846   4.511  17.447  0.00  0.00    +0.000 C 
BRANCH   2   7
ATOM      3  F   UNL     1       8.830   8.177  18.796  0.00  0.00    +0.000 F 
ATOM      4  C   UNL     1       7.968   7.244  18.372  0.00  0.00    +0.000 A 
ATOM      5  C   UNL     1       7.888   6.039  19.065  0.00  0.00    +0.000 A 
ATOM      6  C   UNL     1       6.992   5.066  18.654  0.00  0.00    +0.000 A 
ATOM      7  C   UNL     1       6.065   5.370  17.654  0.00  0.00    +0.000 A 
ATOM      8  C   UNL     1       6.229   6.542  16.905  0.00  0.00    +0.000 A 
ATOM      9  F   UNL     1       5.419   6.789  15.865  0.00  0.00    +0.000 F 
ATOM     10  C   UNL     1       7.182   7.485  17.254  0.00  0.00    +0.000 A 
ENDBRANCH   2   7
ENDBRANCH   1   2
BRANCH   1  11
ATOM     11  C   UNL     1       2.390   4.259  17.726  0.00  0.00    +0.000 C 
BRANCH  11  12
ATOM     12  C   UNL     1       2.726   2.893  18.354  0.00  0.00    +0.000 C 
BRANCH  12  13
ATOM     13  N   UNL     1       2.427   2.836  19.773  0.00  0.00    +0.000 N 
ATOM     14  C   UNL     1       1.190   2.983  20.335  0.00  0.00    +0.000 A 
ATOM     15  C   UNL     1       1.381   2.757  21.678  0.00  0.00    +0.000 A 
ATOM     16  N   UNL     1       2.698   2.483  21.939  0.00  0.00    +0.000 NA
ATOM     17  C   UNL     1       3.301   2.522  20.771  0.00  0.00    +0.000 A 
ENDBRANCH  12  13
ENDBRANCH  11  12
ENDBRANCH   1  11
BRANCH   1  18
ATOM     18  C   UNL     1       3.627   5.937  18.987  0.00  0.00    +0.000 C 
BRANCH  18  19
ATOM     19  C   UNL     1       2.281   6.441  19.529  0.00  0.00    +0.000 C 
BRANCH  19  20
ATOM     20  N   UNL     1       2.023   7.797  19.088  0.00  0.00    +0.000 N 
ATOM     21  C   UNL     1       2.345   8.315  17.866  0.00  0.00    +0.000 A 
ATOM     22  C   UNL     1       1.908   9.616  17.914  0.00  0.00    +0.000 A 
ATOM     23  N   UNL     1       1.342   9.895  19.131  0.00  0.00    +0.000 NA
ATOM     24  C   UNL     1       1.417   8.782  19.817  0.00  0.00    +0.000 A 
ENDBRANCH  19  20
ENDBRANCH  18  19
ENDBRANCH   1  18
TORSDOF 8
ENDMDL
MODEL 4
REMARK VINA RESULT:      -7.2      0.615      1.167
REMARK  Name = 
REMARK  8 active torsions:
REMARK  status: ('A' for Active; 'I' for Inactive)
REMARK    1  A    between atoms: C_5  and  C_6
REMARK    2  A    between atoms: C_6  and  N_7
REMARK    3  A    between atoms: N_7  and  C_8
REMARK    4  A    between atoms: N_7  and  C_15
REMARK    5  A    between atoms: C_8  and  C_9
REMARK    6  A    between atoms: C_9  and  N_10
REMARK    7  A    between atoms: C_15  and  C_16
REMARK    8  A    between atoms: C_16  and  N_17
REMARK                            x       y       z     vdW  Elec       q    Type
REMARK                         _______ _______ _______ _____ _____    ______ ____
ROOT
ATOM      1  N   UNL     1       3.487   4.411  17.742  0.00  0.00    +0.000 NA
ENDROOT
BRANCH   1   2
ATOM      2  C   UNL     1       4.557   4.428  16.699  0.00  0.00    +0.000 C 
BRANCH   2   7
ATOM      3  F   UNL     1       8.626   7.589  18.838  0.00  0.00    +0.000 F 
ATOM      4  C   UNL     1       7.740   6.805  18.211  0.00  0.00    +0.000 A 
ATOM      5  C   UNL     1       7.666   5.460  18.562  0.00  0.00    +0.000 A 
ATOM      6  C   UNL     1       6.746   4.634  17.939  0.00  0.00    +0.000 A 
ATOM      7  C   UNL     1       5.793   5.197  17.086  0.00  0.00    +0.000 A 
ATOM      8  C   UNL     1       5.949   6.524  16.668  0.00  0.00    +0.000 A 
ATOM      9  F   UNL     1       5.111   7.041  15.758  0.00  0.00    +0.000 F 
ATOM     10  C   UNL     1       6.924   7.337  17.223  0.00  0.00    +0.000 A 
ENDBRANCH   2   7
ENDBRANCH   1   2
BRANCH   1  11
ATOM     11  C   UNL     1       2.787   5.730  17.857  0.00  0.00    +0.000 C 
BRANCH  11  12
ATOM     12  C   UNL     1       2.958   6.403  19.233  0.00  0.00    +0.000 C 
BRANCH  12  13
ATOM     13  N   UNL     1       2.162   7.609  19.373  0.00  0.00    +0.000 N 
ATOM     14  C   UNL     1       1.554   8.036  20.520  0.00  0.00    +0.000 A 
ATOM     15  C   UNL     1       1.007   9.256  20.199  0.00  0.00    +0.000 A 
ATOM     16  N   UNL     1       1.267   9.572  18.890  0.00  0.00    +0.000 NA
ATOM     17  C   UNL     1       1.976   8.569  18.423  0.00  0.00    +0.000 A 
ENDBRANCH  12  13
ENDBRANCH  11  12
ENDBRANCH   1  11
BRANCH   1  18
ATOM     18  C   UNL     1       2.503   3.351  17.414  0.00  0.00    +0.000 C 
BRANCH  18  19
ATOM     19  C   UNL     1       1.329   3.233  18.397  0.00  0.00    +0.000 C 
BRANCH  19  20
ATOM     20  N   UNL     1       1.807   3.028  19.749  0.00  0.00    +0.000 N 
ATOM     21  C   UNL     1       2.942   2.354  20.102  0.00  0.00    +0.000 A 
ATOM     22  C   UNL     1       2.976   2.424  21.474  0.00  0.00    +0.000 A 
ATOM     23  N   UNL     1       1.891   3.112  21.952  0.00  0.00    +0.000 NA
ATOM     24  C   UNL     1       1.207   3.471  20.895  0.00  0.00    +0.000 A 
ENDBRANCH  19  20
ENDBRANCH  18  19
ENDBRANCH   1  18
TORSDOF 8
ENDMDL
MODEL 5
REMARK VINA RESULT:      -7.1      2.546      6.093
REMARK  Name = 
REMARK  8 active torsions:
REMARK  status: ('A' for Active; 'I' for Inactive)
REMARK    1  A    between atoms: C_5  and  C_6
REMARK    2  A    between atoms: C_6  and  N_7
REMARK    3  A    between atoms: N_7  and  C_8
REMARK    4  A    between atoms: N_7  and  C_15
REMARK    5  A    between atoms: C_8  and  C_9
REMARK    6  A    between atoms: C_9  and  N_10
REMARK    7  A    between atoms: C_15  and  C_16
REMARK    8  A    between atoms: C_16  and  N_17
REMARK                            x       y       z     vdW  Elec       q    Type
REMARK                         _______ _______ _______ _____ _____    ______ ____
ROOT
ATOM      1  N   UNL     1       3.229   5.674  18.405  0.00  0.00    +0.000 NA
ENDROOT
BRANCH   1   2
ATOM      2  C   UNL     1       2.810   7.019  17.907  0.00  0.00    +0.000 C 
BRANCH   2   7
ATOM      3  F   UNL     1      -0.394   9.860  21.483  0.00  0.00    +0.000 F 
ATOM      4  C   UNL     1       0.486   9.264  20.669  0.00  0.00    +0.000 A 
ATOM      5  C   UNL     1       1.106   8.091  21.093  0.00  0.00    +0.000 A 
ATOM      6  C   UNL     1       2.008   7.449  20.261  0.00  0.00    +0.000 A 
ATOM      7  C   UNL     1       2.158   7.893  18.945  0.00  0.00    +0.000 A 
ATOM      8  C   UNL     1       1.608   9.127  18.573  0.00  0.00    +0.000 A 
ATOM      9  F   UNL     1       1.844   9.622  17.350  0.00  0.00    +0.000 F 
ATOM     10  C   UNL     1       0.772   9.823  19.432  0.00  0.00    +0.000 A 
ENDBRANCH   2   7
ENDBRANCH   1   2
BRANCH   1  11
ATOM     11  C   UNL     1       2.630   4.560  17.603  0.00  0.00    +0.000 C 
BRANCH  11  12
ATOM     12  C   UNL     1       1.591   3.728  18.379  0.00  0.00    +0.000 C 
BRANCH  12  13
ATOM     13  N   UNL     1       2.002   3.442  19.741  0.00  0.00    +0.000 N 
ATOM     14  C   UNL     1       1.356   3.850  20.873  0.00  0.00    +0.000 A 
ATOM     15  C   UNL     1       2.048   3.267  21.909  0.00  0.00    +0.000 A 
ATOM     16  N   UNL     1       3.094   2.522  21.430  0.00  0.00    +0.000 NA
ATOM     17  C   UNL     1       3.033   2.633  20.121  0.00  0.00    +0.000 A 
ENDBRANCH  12  13
ENDBRANCH  11  12
ENDBRANCH   1  11
BRANCH   1  18
ATOM     18  C   UNL     1       4.708   5.578  18.367  0.00  0.00    +0.000 C 
BRANCH  18  19
ATOM     19  C   UNL     1       5.256   4.280  17.755  0.00  0.00    +0.000 C 
BRANCH  19  20
ATOM     20  N   UNL     1       5.949   4.549  16.512  0.00  0.00    +0.000 N 
ATOM     21  C   UNL     1       5.483   4.267  15.259  0.00  0.00    +0.000 A 
ATOM     22  C   UNL     1       6.476   4.700  14.413  0.00  0.00    +0.000 A 
ATOM     23  N   UNL     1       7.525   5.224  15.122  0.00  0.00    +0.000 NA
ATOM     24  C   UNL     1       7.181   5.128  16.383  0.00  0.00    +0.000 A 
ENDBRANCH  19  20
ENDBRANCH  18  19
ENDBRANCH   1  18
TORSDOF 8
ENDMDL
MODEL 6
REMARK VINA RESULT:      -7.1      2.109      4.845
REMARK  Name = 
REMARK  8 active torsions:
REMARK  status: ('A' for Active; 'I' for Inactive)
REMARK    1  A    between atoms: C_5  and  C_6
REMARK    2  A    between atoms: C_6  and  N_7
REMARK    3  A    between atoms: N_7  and  C_8
REMARK    4  A    between atoms: N_7  and  C_15
REMARK    5  A    between atoms: C_8  and  C_9
REMARK    6  A    between atoms: C_9  and  N_10
REMARK    7  A    between atoms: C_15  and  C_16
REMARK    8  A    between atoms: C_16  and  N_17
REMARK                            x       y       z     vdW  Elec       q    Type
REMARK                         _______ _______ _______ _____ _____    ______ ____
ROOT
ATOM      1  N   UNL     1       2.829   4.991  17.577  0.00  0.00    +0.000 NA
ENDROOT
BRANCH   1   2
ATOM      2  C   UNL     1       3.381   5.778  18.722  0.00  0.00    +0.000 C 
BRANCH   2   7
ATOM      3  F   UNL     1       0.362  10.464  18.959  0.00  0.00    +0.000 F 
ATOM      4  C   UNL     1       1.200   9.419  18.950  0.00  0.00    +0.000 A 
ATOM      5  C   UNL     1       1.220   8.566  20.050  0.00  0.00    +0.000 A 
ATOM      6  C   UNL     1       2.067   7.470  20.057  0.00  0.00    +0.000 A 
ATOM      7  C   UNL     1       2.768   7.143  18.893  0.00  0.00    +0.000 A 
ATOM      8  C   UNL     1       2.814   8.066  17.841  0.00  0.00    +0.000 A 
ATOM      9  F   UNL     1       3.578   7.818  16.767  0.00  0.00    +0.000 F 
ATOM     10  C   UNL     1       2.035   9.211  17.862  0.00  0.00    +0.000 A 
ENDBRANCH   2   7
ENDBRANCH   1   2
BRANCH   1  11
ATOM     11  C   UNL     1       3.760   3.903  17.136  0.00  0.00    +0.000 C 
BRANCH  11  12
ATOM     12  C   UNL     1       5.227   4.143  17.543  0.00  0.00    +0.000 C 
BRANCH  12  13
ATOM     13  N   UNL     1       6.070   4.510  16.419  0.00  0.00    +0.000 N 
ATOM     14  C   UNL     1       6.047   3.932  15.181  0.00  0.00    +0.000 A 
ATOM     15  C   UNL     1       6.938   4.664  14.431  0.00  0.00    +0.000 A 
ATOM     16  N   UNL     1       7.497   5.663  15.185  0.00  0.00    +0.000 NA
ATOM     17  C   UNL     1       6.945   5.555  16.374  0.00  0.00    +0.000 A 
ENDBRANCH  12  13
ENDBRANCH  11  12
ENDBRANCH   1  11
BRANCH   1  18
ATOM     18  C   UNL     1       1.526   4.404  17.973  0.00  0.00    +0.000 C 
BRANCH  18  19
ATOM     19  C   UNL     1       1.579   2.922  18.371  0.00  0.00    +0.000 C 
BRANCH  19  20
ATOM     20  N   UNL     1       1.871   2.778  19.783  0.00  0.00    +0.000 N 
ATOM     21  C   UNL     1       3.088   2.464  20.319  0.00  0.00    +0.000 A 
ATOM     22  C   UNL     1       2.874   2.443  21.676  0.00  0.00    +0.000 A 
ATOM     23  N   UNL     1       1.565   2.727  21.967  0.00  0.00    +0.000 NA
ATOM     24  C   UNL     1       0.983   2.931  20.811  0.00  0.00    +0.000 A 
ENDBRANCH  19  20
ENDBRANCH  18  19
ENDBRANCH   1  18
TORSDOF 8
ENDMDL
MODEL 7
REMARK VINA RESULT:      -7.0      2.611      5.962
REMARK  Name = 
REMARK  8 active torsions:
REMARK  status: ('A' for Active; 'I' for Inactive)
REMARK    1  A    between atoms: C_5  and  C_6
REMARK    2  A    between atoms: C_6  and  N_7
REMARK    3  A    between atoms: N_7  and  C_8
REMARK    4  A    between atoms: N_7  and  C_15
REMARK    5  A    between atoms: C_8  and  C_9
REMARK    6  A    between atoms: C_9  and  N_10
REMARK    7  A    between atoms: C_15  and  C_16
REMARK    8  A    between atoms: C_16  and  N_17
REMARK                            x       y       z     vdW  Elec       q    Type
REMARK                         _______ _______ _______ _____ _____    ______ ____
ROOT
ATOM      1  N   UNL     1       4.322   4.271  17.374  0.00  0.00    +0.000 NA
ENDROOT
BRANCH   1   2
ATOM      2  C   UNL     1       3.680   2.922  17.417  0.00  0.00    +0.000 C 
BRANCH   2   7
ATOM      3  F   UNL     1       0.852   2.773  22.224  0.00  0.00    +0.000 F 
ATOM      4  C   UNL     1       1.537   2.662  21.078  0.00  0.00    +0.000 A 
ATOM      5  C   UNL     1       0.836   2.656  19.875  0.00  0.00    +0.000 A 
ATOM      6  C   UNL     1       1.524   2.558  18.677  0.00  0.00    +0.000 A 
ATOM      7  C   UNL     1       2.919   2.634  18.684  0.00  0.00    +0.000 A 
ATOM      8  C   UNL     1       3.603   2.536  19.902  0.00  0.00    +0.000 A 
ATOM      9  F   UNL     1       4.943   2.487  19.914  0.00  0.00    +0.000 F 
ATOM     10  C   UNL     1       2.919   2.545  21.107  0.00  0.00    +0.000 A 
ENDBRANCH   2   7
ENDBRANCH   1   2
BRANCH   1  11
ATOM     11  C   UNL     1       5.009   4.531  16.068  0.00  0.00    +0.000 C 
BRANCH  11  12
ATOM     12  C   UNL     1       6.546   4.499  16.161  0.00  0.00    +0.000 C 
BRANCH  12  13
ATOM     13  N   UNL     1       7.066   5.367  17.202  0.00  0.00    +0.000 N 
ATOM     14  C   UNL     1       7.549   4.961  18.414  0.00  0.00    +0.000 A 
ATOM     15  C   UNL     1       8.012   6.108  19.015  0.00  0.00    +0.000 A 
ATOM     16  N   UNL     1       7.817   7.193  18.199  0.00  0.00    +0.000 NA
ATOM     17  C   UNL     1       7.259   6.714  17.109  0.00  0.00    +0.000 A 
ENDBRANCH  12  13
ENDBRANCH  11  12
ENDBRANCH   1  11
BRANCH   1  18
ATOM     18  C   UNL     1       3.290   5.310  17.611  0.00  0.00    +0.000 C 
BRANCH  18  19
ATOM     19  C   UNL     1       3.544   6.206  18.831  0.00  0.00    +0.000 C 
BRANCH  19  20
ATOM     20  N   UNL     1       2.710   7.391  18.783  0.00  0.00    +0.000 N 
ATOM     21  C   UNL     1       1.937   7.866  19.804  0.00  0.00    +0.000 A 
ATOM     22  C   UNL     1       1.342   8.994  19.293  0.00  0.00    +0.000 A 
ATOM     23  N   UNL     1       1.729   9.202  17.995  0.00  0.00    +0.000 NA
ATOM     24  C   UNL     1       2.558   8.228  17.713  0.00  0.00    +0.000 A 
ENDBRANCH  19  20
ENDBRANCH  18  19
ENDBRANCH   1  18
TORSDOF 8
ENDMDL
MODEL 8
REMARK VINA RESULT:      -7.0      2.679      6.318
REMARK  Name = 
REMARK  8 active torsions:
REMARK  status: ('A' for Active; 'I' for Inactive)
REMARK    1  A    between atoms: C_5  and  C_6
REMARK    2  A    between atoms: C_6  and  N_7
REMARK    3  A    between atoms: N_7  and  C_8
REMARK    4  A    between atoms: N_7  and  C_15
REMARK    5  A    between atoms: C_8  and  C_9
REMARK    6  A    between atoms: C_9  and  N_10
REMARK    7  A    between atoms: C_15  and  C_16
REMARK    8  A    between atoms: C_16  and  N_17
REMARK                            x       y       z     vdW  Elec       q    Type
REMARK                         _______ _______ _______ _____ _____    ______ ____
ROOT
ATOM      1  N   UNL     1       2.898   6.019  18.579  0.00  0.00    +0.000 NA
ENDROOT
BRANCH   1   2
ATOM      2  C   UNL     1       2.531   7.391  18.112  0.00  0.00    +0.000 C 
BRANCH   2   7
ATOM      3  F   UNL     1      -0.733  10.147  21.700  0.00  0.00    +0.000 F 
ATOM      4  C   UNL     1       0.160   9.573  20.884  0.00  0.00    +0.000 A 
ATOM      5  C   UNL     1       0.797   8.407  21.301  0.00  0.00    +0.000 A 
ATOM      6  C   UNL     1       1.713   7.787  20.467  0.00  0.00    +0.000 A 
ATOM      7  C   UNL     1       1.861   8.246  19.155  0.00  0.00    +0.000 A 
ATOM      8  C   UNL     1       1.293   9.473  18.793  0.00  0.00    +0.000 A 
ATOM      9  F   UNL     1       1.525   9.983  17.575  0.00  0.00    +0.000 F 
ATOM     10  C   UNL     1       0.442  10.148  19.654  0.00  0.00    +0.000 A 
ENDBRANCH   2   7
ENDBRANCH   1   2
BRANCH   1  11
ATOM     11  C   UNL     1       2.113   4.954  17.876  0.00  0.00    +0.000 C 
BRANCH  11  12
ATOM     12  C   UNL     1       2.596   3.524  18.188  0.00  0.00    +0.000 C 
BRANCH  12  13
ATOM     13  N   UNL     1       2.312   3.119  19.552  0.00  0.00    +0.000 N 
ATOM     14  C   UNL     1       3.239   2.741  20.482  0.00  0.00    +0.000 A 
ATOM     15  C   UNL     1       2.522   2.544  21.640  0.00  0.00    +0.000 A 
ATOM     16  N   UNL     1       1.190   2.791  21.430  0.00  0.00    +0.000 NA
ATOM     17  C   UNL     1       1.095   3.149  20.168  0.00  0.00    +0.000 A 
ENDBRANCH  12  13
ENDBRANCH  11  12
ENDBRANCH   1  11
BRANCH   1  18
ATOM     18  C   UNL     1       4.348   5.800  18.358  0.00  0.00    +0.000 C 
BRANCH  18  19
ATOM     19  C   UNL     1       4.948   6.584  17.183  0.00  0.00    +0.000 C 
BRANCH  19  20
ATOM     20  N   UNL     1       5.900   5.771  16.453  0.00  0.00    +0.000 N 
ATOM     21  C   UNL     1       5.752   5.326  15.170  0.00  0.00    +0.000 A 
ATOM     22  C   UNL     1       6.896   4.606  14.918  0.00  0.00    +0.000 A 
ATOM     23  N   UNL     1       7.718   4.600  16.015  0.00  0.00    +0.000 NA
ATOM     24  C   UNL     1       7.100   5.314  16.923  0.00  0.00    +0.000 A 
ENDBRANCH  19  20
ENDBRANCH  18  19
ENDBRANCH   1  18
TORSDOF 8
ENDMDL
MODEL 9
REMARK VINA RESULT:      -7.0      0.942      4.516
REMARK  Name = 
REMARK  8 active torsions:
REMARK  status: ('A' for Active; 'I' for Inactive)
REMARK    1  A    between atoms: C_5  and  C_6
REMARK    2  A    between atoms: C_6  and  N_7
REMARK    3  A    between atoms: N_7  and  C_8
REMARK    4  A    between atoms: N_7  and  C_15
REMARK    5  A    between atoms: C_8  and  C_9
REMARK    6  A    between atoms: C_9  and  N_10
REMARK    7  A    between atoms: C_15  and  C_16
REMARK    8  A    between atoms: C_16  and  N_17
REMARK                            x       y       z     vdW  Elec       q    Type
REMARK                         _______ _______ _______ _____ _____    ______ ____
ROOT
ATOM      1  N   UNL     1       3.122   5.526  17.660  0.00  0.00    +0.000 NA
ENDROOT
BRANCH   1   2
ATOM      2  C   UNL     1       4.289   4.642  17.359  0.00  0.00    +0.000 C 
BRANCH   2   7
ATOM      3  F   UNL     1       8.787   7.590  18.845  0.00  0.00    +0.000 F 
ATOM      4  C   UNL     1       7.797   6.805  18.401  0.00  0.00    +0.000 A 
ATOM      5  C   UNL     1       7.429   5.696  19.158  0.00  0.00    +0.000 A 
ATOM      6  C   UNL     1       6.397   4.879  18.727  0.00  0.00    +0.000 A 
ATOM      7  C   UNL     1       5.631   5.271  17.626  0.00  0.00    +0.000 A 
ATOM      8  C   UNL     1       6.080   6.327  16.823  0.00  0.00    +0.000 A 
ATOM      9  F   UNL     1       5.420   6.637  15.698  0.00  0.00    +0.000 F 
ATOM     10  C   UNL     1       7.167   7.098  17.201  0.00  0.00    +0.000 A 
ENDBRANCH   2   7
ENDBRANCH   1   2
BRANCH   1  11
ATOM     11  C   UNL     1       1.870   4.744  17.916  0.00  0.00    +0.000 C 
BRANCH  11  12
ATOM     12  C   UNL     1       2.122   3.251  18.202  0.00  0.00    +0.000 C 
BRANCH  12  13
ATOM     13  N   UNL     1       2.149   2.945  19.620  0.00  0.00    +0.000 N 
ATOM     14  C   UNL     1       3.266   2.664  20.356  0.00  0.00    +0.000 A 
ATOM     15  C   UNL     1       2.817   2.539  21.650  0.00  0.00    +0.000 A 
ATOM     16  N   UNL     1       1.462   2.734  21.711  0.00  0.00    +0.000 NA
ATOM     17  C   UNL     1       1.089   2.991  20.477  0.00  0.00    +0.000 A 
ENDBRANCH  12  13
ENDBRANCH  11  12
ENDBRANCH   1  11
BRANCH   1  18
ATOM     18  C   UNL     1       3.436   6.366  18.841  0.00  0.00    +0.000 C 
BRANCH  18  19
ATOM     19  C   UNL     1       2.216   6.819  19.655  0.00  0.00    +0.000 C 
BRANCH  19  20
ATOM     20  N   UNL     1       1.827   8.167  19.294  0.00  0.00    +0.000 N 
ATOM     21  C   UNL     1       1.126   9.035  20.082  0.00  0.00    +0.000 A 
ATOM     22  C   UNL     1       1.001  10.172  19.320  0.00  0.00    +0.000 A 
ATOM     23  N   UNL     1       1.599  10.007  18.098  0.00  0.00    +0.000 NA
ATOM     24  C   UNL     1       2.094   8.794  18.109  0.00  0.00    +0.000 A 
ENDBRANCH  19  20
ENDBRANCH  18  19
ENDBRANCH   1  18
TORSDOF 8
ENDMDL
