MODEL 1
REMARK VINA RESULT:      -8.9      0.000      0.000
REMARK  Name = 
REMARK  8 active torsions:
REMARK  status: ('A' for Active; 'I' for Inactive)
REMARK    1  A    between atoms: N_1  and  C_2
REMARK    2  A    between atoms: N_5  and  N_6
REMARK    3  A    between atoms: C_7  and  C_8
REMARK    4  A    between atoms: N_20  and  C1*_21
REMARK    5  A    between atoms: C4*_23  and  C5*_24
REMARK    6  A    between atoms: C5*_24  and  O5*_25
REMARK    7  A    between atoms: C3*_26  and  O3*_27
REMARK    8  A    between atoms: C2*_28  and  O2*_29
REMARK                            x       y       z     vdW  Elec       q    Type
REMARK                         _______ _______ _______ _____ _____    ______ ____
ROOT
ATOM      1  C   UNL     1       7.092   5.620  15.795  0.00  0.00    +0.000 A 
ATOM      2  N   UNL     1       7.688   6.548  16.571  0.00  0.00    +0.000 NA
ATOM      3  C   UNL     1       7.331   6.685  17.870  0.00  0.00    +0.000 A 
ATOM      4  N   UNL     1       8.015   7.617  18.677  0.00  0.00    +0.000 N 
ATOM      5  N   UNL     1       6.376   5.962  18.499  0.00  0.00    +0.000 NA
ATOM      6  C   UNL     1       5.761   5.090  17.680  0.00  0.00    +0.000 A 
ATOM      7  C   UNL     1       6.053   4.862  16.346  0.00  0.00    +0.000 A 
ATOM      8  N   UNL     1       5.239   3.884  15.818  0.00  0.00    +0.000 NA
ATOM      9  C   UNL     1       4.477   3.510  16.819  0.00  0.00    +0.000 A 
ATOM     10  N   UNL     1       4.746   4.218  17.968  0.00  0.00    +0.000 N 
ATOM     11  H   UNL     1       7.606   7.649  19.605  0.00  0.00    +0.000 HD
ENDROOT
BRANCH  10  12
ATOM     12  C1* UNL     1       4.096   3.960  19.236  0.00  0.00    +0.000 C 
ATOM     13  O4* UNL     1       3.578   2.617  19.296  0.00  0.00    +0.000 OA
ATOM     14  C4* UNL     1       2.230   2.660  19.826  0.00  0.00    +0.000 C 
ATOM     15  C3* UNL     1       2.026   4.069  20.381  0.00  0.00    +0.000 C 
ATOM     16  C2* UNL     1       2.937   4.921  19.513  0.00  0.00    +0.000 C 
BRANCH  15  17
ATOM     17  O3* UNL     1       2.484   4.183  21.742  0.00  0.00    +0.000 OA
ATOM     18  H3* UNL     1       2.800   3.313  22.048  0.00  0.00    +0.000 HD
ENDBRANCH  15  17
BRANCH  16  19
ATOM     19  O2* UNL     1       3.364   6.097  20.206  0.00  0.00    +0.000 OA
ATOM     20  H2* UNL     1       3.355   5.871  21.161  0.00  0.00    +0.000 HD
ENDBRANCH  16  19
BRANCH  14  21
ATOM     21  C5* UNL     1       1.234   2.311  18.717  0.00  0.00    +0.000 C 
BRANCH  21  22
ATOM     22  O5* UNL     1       1.905   1.671  17.632  0.00  0.00    +0.000 OA
ATOM     23  H5* UNL     1       1.720   0.715  17.736  0.00  0.00    +0.000 HD
ENDBRANCH  21  22
ENDBRANCH  14  21
ENDBRANCH  10  12
BRANCH   1  24
ATOM     24  N   UNL     1       7.550   5.448  14.496  0.00  0.00    +0.000 N 
ATOM     25  H   UNL     1       8.559   5.416  14.443  0.00  0.00    +0.000 HD
ATOM     26  H   UNL     1       7.037   5.971  13.798  0.00  0.00    +0.000 HD
ENDBRANCH   1  24
BRANCH   4  27
ATOM     27  N   UNL     1       8.527   8.732  18.086  0.00  0.00    +0.000 NA
ATOM     28  C   UNL     1       8.848   9.695  18.889  0.00  0.00    +0.000 C 
BRANCH  28  29
ATOM     29  C   UNL     1       9.422  10.958  18.378  0.00  0.00    +0.000 A 
ATOM     30  C   UNL     1      10.754  11.009  17.948  0.00  0.00    +0.000 A 
ATOM     31  C   UNL     1      11.291  12.207  17.474  0.00  0.00    +0.000 A 
ATOM     32  C   UNL     1      10.499  13.354  17.429  0.00  0.00    +0.000 A 
ATOM     33  C   UNL     1       9.173  13.298  17.860  0.00  0.00    +0.000 A 
ATOM     34 CL   UNL     1       8.204  14.720  17.805  0.00  0.00    +0.000 Cl
ATOM     35  C   UNL     1       8.625  12.105  18.334  0.00  0.00    +0.000 A 
ENDBRANCH  28  29
ENDBRANCH   4  27
TORSDOF 8
ENDMDL
MODEL 2
REMARK VINA RESULT:      -8.4      1.061      1.075
REMARK  Name = 
REMARK  8 active torsions:
REMARK  status: ('A' for Active; 'I' for Inactive)
REMARK    1  A    between atoms: N_1  and  C_2
REMARK    2  A    between atoms: N_5  and  N_6
REMARK    3  A    between atoms: C_7  and  C_8
REMARK    4  A    between atoms: N_20  and  C1*_21
REMARK    5  A    between atoms: C4*_23  and  C5*_24
REMARK    6  A    between atoms: C5*_24  and  O5*_25
REMARK    7  A    between atoms: C3*_26  and  O3*_27
REMARK    8  A    between atoms: C2*_28  and  O2*_29
REMARK                            x       y       z     vdW  Elec       q    Type
REMARK                         _______ _______ _______ _____ _____    ______ ____
ROOT
ATOM      1  C   UNL     1       7.147   5.647  16.030  0.00  0.00    +0.000 A 
ATOM      2  N   UNL     1       7.782   6.485  16.877  0.00  0.00    +0.000 NA
ATOM      3  C   UNL     1       7.427   6.535  18.183  0.00  0.00    +0.000 A 
ATOM      4  N   UNL     1       8.149   7.368  19.060  0.00  0.00    +0.000 N 
ATOM      5  N   UNL     1       6.439   5.809  18.753  0.00  0.00    +0.000 NA
ATOM      6  C   UNL     1       5.787   5.032  17.868  0.00  0.00    +0.000 A 
ATOM      7  C   UNL     1       6.074   4.896  16.520  0.00  0.00    +0.000 A 
ATOM      8  N   UNL     1       5.218   4.000  15.917  0.00  0.00    +0.000 NA
ATOM      9  C   UNL     1       4.437   3.583  16.886  0.00  0.00    +0.000 A 
ATOM     10  N   UNL     1       4.734   4.186  18.087  0.00  0.00    +0.000 N 
ATOM     11  H   UNL     1       7.740   7.346  19.988  0.00  0.00    +0.000 HD
ENDROOT
BRANCH  10  12
ATOM     12  C1* UNL     1       4.069   3.859  19.331  0.00  0.00    +0.000 C 
ATOM     13  O4* UNL     1       3.628   2.487  19.345  0.00  0.00    +0.000 OA
ATOM     14  C4* UNL     1       2.266   2.440  19.841  0.00  0.00    +0.000 C 
ATOM     15  C3* UNL     1       1.968   3.820  20.424  0.00  0.00    +0.000 C 
ATOM     16  C2* UNL     1       2.850   4.745  19.602  0.00  0.00    +0.000 C 
BRANCH  15  17
ATOM     17  O3* UNL     1       2.385   3.925  21.800  0.00  0.00    +0.000 OA
ATOM     18  H3* UNL     1       1.635   3.703  22.380  0.00  0.00    +0.000 HD
ENDBRANCH  15  17
BRANCH  16  19
ATOM     19  O2* UNL     1       3.192   5.926  20.334  0.00  0.00    +0.000 OA
ATOM     20  H2* UNL     1       3.972   5.691  20.881  0.00  0.00    +0.000 HD
ENDBRANCH  16  19
BRANCH  14  21
ATOM     21  C5* UNL     1       1.320   2.064  18.697  0.00  0.00    +0.000 C 
BRANCH  21  22
ATOM     22  O5* UNL     1      -0.033   2.322  19.069  0.00  0.00    +0.000 OA
ATOM     23  H5* UNL     1      -0.578   1.983  18.329  0.00  0.00    +0.000 HD
ENDBRANCH  21  22
ENDBRANCH  14  21
ENDBRANCH  10  12
BRANCH   1  24
ATOM     24  N   UNL     1       7.601   5.557  14.722  0.00  0.00    +0.000 N 
ATOM     25  H   UNL     1       7.879   6.454  14.346  0.00  0.00    +0.000 HD
ATOM     26  H   UNL     1       7.072   4.923  14.138  0.00  0.00    +0.000 HD
ENDBRANCH   1  24
BRANCH   4  27
ATOM     27  N   UNL     1       8.712   8.503  18.558  0.00  0.00    +0.000 NA
ATOM     28  C   UNL     1       8.963   9.434  19.421  0.00  0.00    +0.000 C 
BRANCH  28  29
ATOM     29  C   UNL     1       9.581  10.713  19.011  0.00  0.00    +0.000 A 
ATOM     30  C   UNL     1       9.994  10.907  17.687  0.00  0.00    +0.000 A 
ATOM     31  C   UNL     1      10.583  12.115  17.308  0.00  0.00    +0.000 A 
ATOM     32  C   UNL     1      10.759  13.128  18.250  0.00  0.00    +0.000 A 
ATOM     33  C   UNL     1      10.347  12.928  19.568  0.00  0.00    +0.000 A 
ATOM     34 CL   UNL     1      10.572  14.182  20.725  0.00  0.00    +0.000 Cl
ATOM     35  C   UNL     1       9.755  11.725  19.957  0.00  0.00    +0.000 A 
ENDBRANCH  28  29
ENDBRANCH   4  27
TORSDOF 8
ENDMDL
MODEL 3
REMARK VINA RESULT:      -8.3      4.955      7.705
REMARK  Name = 
REMARK  8 active torsions:
REMARK  status: ('A' for Active; 'I' for Inactive)
REMARK    1  A    between atoms: N_1  and  C_2
REMARK    2  A    between atoms: N_5  and  N_6
REMARK    3  A    between atoms: C_7  and  C_8
REMARK    4  A    between atoms: N_20  and  C1*_21
REMARK    5  A    between atoms: C4*_23  and  C5*_24
REMARK    6  A    between atoms: C5*_24  and  O5*_25
REMARK    7  A    between atoms: C3*_26  and  O3*_27
REMARK    8  A    between atoms: C2*_28  and  O2*_29
REMARK                            x       y       z     vdW  Elec       q    Type
REMARK                         _______ _______ _______ _____ _____    ______ ____
ROOT
ATOM      1  C   UNL     1       1.846   4.223  20.463  0.00  0.00    +0.000 A 
ATOM      2  N   UNL     1       1.580   5.540  20.345  0.00  0.00    +0.000 NA
ATOM      3  C   UNL     1       2.385   6.336  19.602  0.00  0.00    +0.000 A 
ATOM      4  N   UNL     1       2.049   7.695  19.440  0.00  0.00    +0.000 N 
ATOM      5  N   UNL     1       3.496   5.931  18.945  0.00  0.00    +0.000 NA
ATOM      6  C   UNL     1       3.765   4.626  19.136  0.00  0.00    +0.000 A 
ATOM      7  C   UNL     1       3.007   3.723  19.863  0.00  0.00    +0.000 A 
ATOM      8  N   UNL     1       3.566   2.464  19.830  0.00  0.00    +0.000 NA
ATOM      9  C   UNL     1       4.635   2.594  19.080  0.00  0.00    +0.000 A 
ATOM     10  N   UNL     1       4.807   3.888  18.643  0.00  0.00    +0.000 N 
ATOM     11  H   UNL     1       2.766   8.177  18.908  0.00  0.00    +0.000 HD
ENDROOT
BRANCH  10  12
ATOM     12  C1* UNL     1       5.870   4.293  17.747  0.00  0.00    +0.000 C 
ATOM     13  O4* UNL     1       7.158   4.196  18.384  0.00  0.00    +0.000 OA
ATOM     14  C4* UNL     1       7.909   5.405  18.105  0.00  0.00    +0.000 C 
ATOM     15  C3* UNL     1       7.146   6.146  17.009  0.00  0.00    +0.000 C 
ATOM     16  C2* UNL     1       5.704   5.730  17.244  0.00  0.00    +0.000 C 
BRANCH  15  17
ATOM     17  O3* UNL     1       7.523   5.698  15.692  0.00  0.00    +0.000 OA
ATOM     18  H3* UNL     1       8.492   5.596  15.654  0.00  0.00    +0.000 HD
ENDBRANCH  15  17
BRANCH  16  19
ATOM     19  O2* UNL     1       4.940   5.794  16.036  0.00  0.00    +0.000 OA
ATOM     20  H2* UNL     1       5.577   6.011  15.321  0.00  0.00    +0.000 HD
ENDBRANCH  16  19
BRANCH  14  21
ATOM     21  C5* UNL     1       8.048   6.227  19.389  0.00  0.00    +0.000 C 
BRANCH  21  22
ATOM     22  O5* UNL     1       7.978   5.375  20.532  0.00  0.00    +0.000 OA
ATOM     23  H5* UNL     1       8.528   5.808  21.217  0.00  0.00    +0.000 HD
ENDBRANCH  21  22
ENDBRANCH  14  21
ENDBRANCH  10  12
BRANCH   1  24
ATOM     24  N   UNL     1       0.947   3.424  21.156  0.00  0.00    +0.000 N 
ATOM     25  H   UNL     1       0.862   3.691  22.127  0.00  0.00    +0.000 HD
ATOM     26  H   UNL     1       0.990   2.442  20.918  0.00  0.00    +0.000 HD
ENDBRANCH   1  24
BRANCH   4  27
ATOM     27  N   UNL     1       1.368   8.317  20.443  0.00  0.00    +0.000 NA
ATOM     28  C   UNL     1       0.724   9.387  20.103  0.00  0.00    +0.000 C 
BRANCH  28  29
ATOM     29  C   UNL     1      -0.062  10.154  21.092  0.00  0.00    +0.000 A 
ATOM     30  C   UNL     1      -0.201   9.685  22.405  0.00  0.00    +0.000 A 
ATOM     31  C   UNL     1      -0.950  10.411  23.332  0.00  0.00    +0.000 A 
ATOM     32  C   UNL     1      -1.562  11.605  22.950  0.00  0.00    +0.000 A 
ATOM     33  C   UNL     1      -1.422  12.067  21.641  0.00  0.00    +0.000 A 
ATOM     34 CL   UNL     1      -2.183  13.539  21.175  0.00  0.00    +0.000 Cl
ATOM     35  C   UNL     1      -0.672  11.350  20.705  0.00  0.00    +0.000 A 
ENDBRANCH  28  29
ENDBRANCH   4  27
TORSDOF 8
ENDMDL
MODEL 4
REMARK VINA RESULT:      -8.0      1.116      1.638
REMARK  Name = 
REMARK  8 active torsions:
REMARK  status: ('A' for Active; 'I' for Inactive)
REMARK    1  A    between atoms: N_1  and  C_2
REMARK    2  A    between atoms: N_5  and  N_6
REMARK    3  A    between atoms: C_7  and  C_8
REMARK    4  A    between atoms: N_20  and  C1*_21
REMARK    5  A    between atoms: C4*_23  and  C5*_24
REMARK    6  A    between atoms: C5*_24  and  O5*_25
REMARK    7  A    between atoms: C3*_26  and  O3*_27
REMARK    8  A    between atoms: C2*_28  and  O2*_29
REMARK                            x       y       z     vdW  Elec       q    Type
REMARK                         _______ _______ _______ _____ _____    ______ ____
ROOT
ATOM      1  C   UNL     1       7.209   5.727  15.533  0.00  0.00    +0.000 A 
ATOM      2  N   UNL     1       7.691   6.675  16.362  0.00  0.00    +0.000 NA
ATOM      3  C   UNL     1       7.126   6.872  17.578  0.00  0.00    +0.000 A 
ATOM      4  N   UNL     1       7.690   7.824  18.451  0.00  0.00    +0.000 N 
ATOM      5  N   UNL     1       6.063   6.194  18.065  0.00  0.00    +0.000 NA
ATOM      6  C   UNL     1       5.571   5.300  17.188  0.00  0.00    +0.000 A 
ATOM      7  C   UNL     1       6.075   5.011  15.931  0.00  0.00    +0.000 A 
ATOM      8  N   UNL     1       5.335   4.027  15.312  0.00  0.00    +0.000 NA
ATOM      9  C   UNL     1       4.409   3.709  16.185  0.00  0.00    +0.000 A 
ATOM     10  N   UNL     1       4.500   4.459  17.335  0.00  0.00    +0.000 N 
ATOM     11  H   UNL     1       7.134   7.902  19.297  0.00  0.00    +0.000 HD
ENDROOT
BRANCH  10  12
ATOM     12  C1* UNL     1       3.643   4.266  18.485  0.00  0.00    +0.000 C 
ATOM     13  O4* UNL     1       4.409   3.945  19.663  0.00  0.00    +0.000 OA
ATOM     14  C4* UNL     1       3.777   2.830  20.341  0.00  0.00    +0.000 C 
ATOM     15  C3* UNL     1       2.404   2.652  19.697  0.00  0.00    +0.000 C 
ATOM     16  C2* UNL     1       2.616   3.149  18.278  0.00  0.00    +0.000 C 
BRANCH  15  17
ATOM     17  O3* UNL     1       1.408   3.492  20.313  0.00  0.00    +0.000 OA
ATOM     18  H3* UNL     1       0.663   3.611  19.696  0.00  0.00    +0.000 HD
ENDBRANCH  15  17
BRANCH  16  19
ATOM     19  O2* UNL     1       1.397   3.635  17.709  0.00  0.00    +0.000 OA
ATOM     20  H2* UNL     1       1.540   3.662  16.738  0.00  0.00    +0.000 HD
ENDBRANCH  16  19
BRANCH  14  21
ATOM     21  C5* UNL     1       4.660   1.586  20.207  0.00  0.00    +0.000 C 
BRANCH  21  22
ATOM     22  O5* UNL     1       5.460   1.418  21.377  0.00  0.00    +0.000 OA
ATOM     23  H5* UNL     1       5.352   0.480  21.636  0.00  0.00    +0.000 HD
ENDBRANCH  21  22
ENDBRANCH  14  21
ENDBRANCH  10  12
BRANCH   1  24
ATOM     24  N   UNL     1       7.872   5.493  14.337  0.00  0.00    +0.000 N 
ATOM     25  H   UNL     1       7.503   6.047  13.575  0.00  0.00    +0.000 HD
ATOM     26  H   UNL     1       8.105   4.522  14.170  0.00  0.00    +0.000 HD
ENDBRANCH   1  24
BRANCH   4  27
ATOM     27  N   UNL     1       8.321   8.904  17.912  0.00  0.00    +0.000 NA
ATOM     28  C   UNL     1       8.709   9.805  18.756  0.00  0.00    +0.000 C 
BRANCH  28  29
ATOM     29  C   UNL     1       9.413  11.025  18.305  0.00  0.00    +0.000 A 
ATOM     30  C   UNL     1      10.761  10.966  17.928  0.00  0.00    +0.000 A 
ATOM     31  C   UNL     1      11.421  12.122  17.509  0.00  0.00    +0.000 A 
ATOM     32  C   UNL     1      10.737  13.337  17.466  0.00  0.00    +0.000 A 
ATOM     33  C   UNL     1       9.394  13.390  17.844  0.00  0.00    +0.000 A 
ATOM     34 CL   UNL     1       8.558  14.893  17.792  0.00  0.00    +0.000 Cl
ATOM     35  C   UNL     1       8.723  12.239  18.262  0.00  0.00    +0.000 A 
ENDBRANCH  28  29
ENDBRANCH   4  27
TORSDOF 8
ENDMDL
MODEL 5
REMARK VINA RESULT:      -7.9      4.878      7.659
REMARK  Name = 
REMARK  8 active torsions:
REMARK  status: ('A' for Active; 'I' for Inactive)
REMARK    1  A    between atoms: N_1  and  C_2
REMARK    2  A    between atoms: N_5  and  N_6
REMARK    3  A    between atoms: C_7  and  C_8
REMARK    4  A    between atoms: N_20  and  C1*_21
REMARK    5  A    between atoms: C4*_23  and  C5*_24
REMARK    6  A    between atoms: C5*_24  and  O5*_25
REMARK    7  A    between atoms: C3*_26  and  O3*_27
REMARK    8  A    between atoms: C2*_28  and  O2*_29
REMARK                            x       y       z     vdW  Elec       q    Type
REMARK                         _______ _______ _______ _____ _____    ______ ____
ROOT
ATOM      1  C   UNL     1       1.809   4.135  20.542  0.00  0.00    +0.000 A 
ATOM      2  N   UNL     1       1.579   5.458  20.410  0.00  0.00    +0.000 NA
ATOM      3  C   UNL     1       2.445   6.237  19.719  0.00  0.00    +0.000 A 
ATOM      4  N   UNL     1       2.148   7.603  19.538  0.00  0.00    +0.000 N 
ATOM      5  N   UNL     1       3.587   5.809  19.133  0.00  0.00    +0.000 NA
ATOM      6  C   UNL     1       3.816   4.499  19.339  0.00  0.00    +0.000 A 
ATOM      7  C   UNL     1       2.995   3.612  20.016  0.00  0.00    +0.000 A 
ATOM      8  N   UNL     1       3.529   2.342  20.017  0.00  0.00    +0.000 NA
ATOM      9  C   UNL     1       4.645   2.450  19.336  0.00  0.00    +0.000 A 
ATOM     10  N   UNL     1       4.871   3.739  18.912  0.00  0.00    +0.000 N 
ATOM     11  H   UNL     1       2.906   8.070  19.053  0.00  0.00    +0.000 HD
ENDROOT
BRANCH  10  12
ATOM     12  C1* UNL     1       5.996   4.122  18.085  0.00  0.00    +0.000 C 
ATOM     13  O4* UNL     1       6.550   5.385  18.505  0.00  0.00    +0.000 OA
ATOM     14  C4* UNL     1       6.775   6.208  17.333  0.00  0.00    +0.000 C 
ATOM     15  C3* UNL     1       6.615   5.293  16.121  0.00  0.00    +0.000 C 
ATOM     16  C2* UNL     1       5.628   4.244  16.604  0.00  0.00    +0.000 C 
BRANCH  15  17
ATOM     17  O3* UNL     1       7.845   4.619  15.790  0.00  0.00    +0.000 OA
ATOM     18  H3* UNL     1       8.431   4.621  16.568  0.00  0.00    +0.000 HD
ENDBRANCH  15  17
BRANCH  16  19
ATOM     19  O2* UNL     1       5.797   3.008  15.902  0.00  0.00    +0.000 OA
ATOM     20  H2* UNL     1       6.556   2.554  16.327  0.00  0.00    +0.000 HD
ENDBRANCH  16  19
BRANCH  14  21
ATOM     21  C5* UNL     1       5.781   7.373  17.331  0.00  0.00    +0.000 C 
BRANCH  21  22
ATOM     22  O5* UNL     1       4.617   7.030  16.580  0.00  0.00    +0.000 OA
ATOM     23  H5* UNL     1       4.888   6.287  16.001  0.00  0.00    +0.000 HD
ENDBRANCH  21  22
ENDBRANCH  14  21
ENDBRANCH  10  12
BRANCH   1  24
ATOM     24  N   UNL     1       0.853   3.356  21.176  0.00  0.00    +0.000 N 
ATOM     25  H   UNL     1       1.206   2.914  22.014  0.00  0.00    +0.000 HD
ATOM     26  H   UNL     1       0.265   2.820  20.550  0.00  0.00    +0.000 HD
ENDBRANCH   1  24
BRANCH   4  27
ATOM     27  N   UNL     1       1.418   8.238  20.497  0.00  0.00    +0.000 NA
ATOM     28  C   UNL     1       0.819   9.322  20.118  0.00  0.00    +0.000 C 
BRANCH  28  29
ATOM     29  C   UNL     1      -0.013  10.105  21.057  0.00  0.00    +0.000 A 
ATOM     30  C   UNL     1      -0.170   9.685  22.384  0.00  0.00    +0.000 A 
ATOM     31  C   UNL     1      -0.961  10.426  23.264  0.00  0.00    +0.000 A 
ATOM     32  C   UNL     1      -1.597  11.585  22.819  0.00  0.00    +0.000 A 
ATOM     33  C   UNL     1      -1.438  11.998  21.496  0.00  0.00    +0.000 A 
ATOM     34 CL   UNL     1      -2.229  13.427  20.953  0.00  0.00    +0.000 Cl
ATOM     35  C   UNL     1      -0.646  11.266  20.608  0.00  0.00    +0.000 A 
ENDBRANCH  28  29
ENDBRANCH   4  27
TORSDOF 8
ENDMDL
MODEL 6
REMARK VINA RESULT:      -7.8      6.546      8.253
REMARK  Name = 
REMARK  8 active torsions:
REMARK  status: ('A' for Active; 'I' for Inactive)
REMARK    1  A    between atoms: N_1  and  C_2
REMARK    2  A    between atoms: N_5  and  N_6
REMARK    3  A    between atoms: C_7  and  C_8
REMARK    4  A    between atoms: N_20  and  C1*_21
REMARK    5  A    between atoms: C4*_23  and  C5*_24
REMARK    6  A    between atoms: C5*_24  and  O5*_25
REMARK    7  A    between atoms: C3*_26  and  O3*_27
REMARK    8  A    between atoms: C2*_28  and  O2*_29
REMARK                            x       y       z     vdW  Elec       q    Type
REMARK                         _______ _______ _______ _____ _____    ______ ____
ROOT
ATOM      1  C   UNL     1       1.727   9.339  18.671  0.00  0.00    +0.000 A 
ATOM      2  N   UNL     1       1.077   9.557  19.833  0.00  0.00    +0.000 NA
ATOM      3  C   UNL     1       1.115   8.631  20.821  0.00  0.00    +0.000 A 
ATOM      4  N   UNL     1       0.484   8.911  22.050  0.00  0.00    +0.000 N 
ATOM      5  N   UNL     1       1.755   7.441  20.754  0.00  0.00    +0.000 NA
ATOM      6  C   UNL     1       2.338   7.232  19.560  0.00  0.00    +0.000 A 
ATOM      7  C   UNL     1       2.371   8.110  18.490  0.00  0.00    +0.000 A 
ATOM      8  N   UNL     1       3.074   7.579  17.431  0.00  0.00    +0.000 NA
ATOM      9  C   UNL     1       3.478   6.405  17.856  0.00  0.00    +0.000 A 
ATOM     10  N   UNL     1       3.050   6.141  19.137  0.00  0.00    +0.000 N 
ATOM     11  H   UNL     1       0.546   8.111  22.671  0.00  0.00    +0.000 HD
ENDROOT
BRANCH  10  12
ATOM     12  C1* UNL     1       3.410   4.946  19.870  0.00  0.00    +0.000 C 
ATOM     13  O4* UNL     1       4.444   4.206  19.190  0.00  0.00    +0.000 OA
ATOM     14  C4* UNL     1       4.080   2.802  19.178  0.00  0.00    +0.000 C 
ATOM     15  C3* UNL     1       2.909   2.648  20.146  0.00  0.00    +0.000 C 
ATOM     16  C2* UNL     1       2.224   4.002  20.084  0.00  0.00    +0.000 C 
BRANCH  15  17
ATOM     17  O3* UNL     1       3.354   2.442  21.501  0.00  0.00    +0.000 OA
ATOM     18  H3* UNL     1       3.085   3.204  22.045  0.00  0.00    +0.000 HD
ENDBRANCH  15  17
BRANCH  16  19
ATOM     19  O2* UNL     1       1.521   4.285  21.297  0.00  0.00    +0.000 OA
ATOM     20  H2* UNL     1       1.659   3.508  21.881  0.00  0.00    +0.000 HD
ENDBRANCH  16  19
BRANCH  14  21
ATOM     21  C5* UNL     1       3.727   2.380  17.749  0.00  0.00    +0.000 C 
BRANCH  21  22
ATOM     22  O5* UNL     1       2.549   1.576  17.746  0.00  0.00    +0.000 OA
ATOM     23  H5* UNL     1       2.235   1.573  16.819  0.00  0.00    +0.000 HD
ENDBRANCH  21  22
ENDBRANCH  14  21
ENDBRANCH  10  12
BRANCH   1  24
ATOM     24  N   UNL     1       1.742  10.349  17.720  0.00  0.00    +0.000 N 
ATOM     25  H   UNL     1       1.198  10.117  16.899  0.00  0.00    +0.000 HD
ATOM     26  H   UNL     1       2.640  10.801  17.602  0.00  0.00    +0.000 HD
ENDBRANCH   1  24
BRANCH   4  27
ATOM     27  N   UNL     1      -0.608   9.725  22.045  0.00  0.00    +0.000 NA
ATOM     28  C   UNL     1      -0.430  10.904  22.549  0.00  0.00    +0.000 C 
BRANCH  28  29
ATOM     29  C   UNL     1      -1.531  11.890  22.599  0.00  0.00    +0.000 A 
ATOM     30  C   UNL     1      -1.529  12.999  21.744  0.00  0.00    +0.000 A 
ATOM     31  C   UNL     1      -2.568  13.929  21.801  0.00  0.00    +0.000 A 
ATOM     32  C   UNL     1      -3.609  13.752  22.712  0.00  0.00    +0.000 A 
ATOM     33  C   UNL     1      -3.606  12.646  23.563  0.00  0.00    +0.000 A 
ATOM     34 CL   UNL     1      -4.892  12.437  24.687  0.00  0.00    +0.000 Cl
ATOM     35  C   UNL     1      -2.572  11.708  23.512  0.00  0.00    +0.000 A 
ENDBRANCH  28  29
ENDBRANCH   4  27
TORSDOF 8
ENDMDL
MODEL 7
REMARK VINA RESULT:      -7.7      5.389      7.722
REMARK  Name = 
REMARK  8 active torsions:
REMARK  status: ('A' for Active; 'I' for Inactive)
REMARK    1  A    between atoms: N_1  and  C_2
REMARK    2  A    between atoms: N_5  and  N_6
REMARK    3  A    between atoms: C_7  and  C_8
REMARK    4  A    between atoms: N_20  and  C1*_21
REMARK    5  A    between atoms: C4*_23  and  C5*_24
REMARK    6  A    between atoms: C5*_24  and  O5*_25
REMARK    7  A    between atoms: C3*_26  and  O3*_27
REMARK    8  A    between atoms: C2*_28  and  O2*_29
REMARK                            x       y       z     vdW  Elec       q    Type
REMARK                         _______ _______ _______ _____ _____    ______ ____
ROOT
ATOM      1  C   UNL     1       2.099   4.694  19.571  0.00  0.00    +0.000 A 
ATOM      2  N   UNL     1       1.760   6.000  19.595  0.00  0.00    +0.000 NA
ATOM      3  C   UNL     1       2.428   6.894  18.828  0.00  0.00    +0.000 A 
ATOM      4  N   UNL     1       2.011   8.240  18.820  0.00  0.00    +0.000 N 
ATOM      5  N   UNL     1       3.466   6.603  18.011  0.00  0.00    +0.000 NA
ATOM      6  C   UNL     1       3.817   5.304  18.060  0.00  0.00    +0.000 A 
ATOM      7  C   UNL     1       3.198   4.308  18.796  0.00  0.00    +0.000 A 
ATOM      8  N   UNL     1       3.807   3.088  18.593  0.00  0.00    +0.000 NA
ATOM      9  C   UNL     1       4.767   3.335  17.734  0.00  0.00    +0.000 A 
ATOM     10  N   UNL     1       4.823   4.666  17.387  0.00  0.00    +0.000 N 
ATOM     11  H   UNL     1       2.633   8.801  18.247  0.00  0.00    +0.000 HD
ENDROOT
BRANCH  10  12
ATOM     12  C1* UNL     1       5.746   5.197  16.406  0.00  0.00    +0.000 C 
ATOM     13  O4* UNL     1       5.080   5.484  15.160  0.00  0.00    +0.000 OA
ATOM     14  C4* UNL     1       5.885   4.968  14.071  0.00  0.00    +0.000 C 
ATOM     15  C3* UNL     1       7.242   4.603  14.669  0.00  0.00    +0.000 C 
ATOM     16  C2* UNL     1       6.906   4.244  16.107  0.00  0.00    +0.000 C 
BRANCH  15  17
ATOM     17  O3* UNL     1       8.139   5.731  14.697  0.00  0.00    +0.000 OA
ATOM     18  H3* UNL     1       8.150   6.109  15.595  0.00  0.00    +0.000 HD
ENDBRANCH  15  17
BRANCH  16  19
ATOM     19  O2* UNL     1       8.023   4.463  16.973  0.00  0.00    +0.000 OA
ATOM     20  H2* UNL     1       8.596   3.671  16.885  0.00  0.00    +0.000 HD
ENDBRANCH  16  19
BRANCH  14  21
ATOM     21  C5* UNL     1       5.176   3.768  13.437  0.00  0.00    +0.000 C 
BRANCH  21  22
ATOM     22  O5* UNL     1       6.127   2.891  12.834  0.00  0.00    +0.000 OA
ATOM     23  H5* UNL     1       6.625   3.443  12.196  0.00  0.00    +0.000 HD
ENDBRANCH  21  22
ENDBRANCH  14  21
ENDBRANCH  10  12
BRANCH   1  24
ATOM     24  N   UNL     1       1.332   3.796  20.299  0.00  0.00    +0.000 N 
ATOM     25  H   UNL     1       0.511   3.490  19.794  0.00  0.00    +0.000 HD
ATOM     26  H   UNL     1       1.249   4.016  21.283  0.00  0.00    +0.000 HD
ENDBRANCH   1  24
BRANCH   4  27
ATOM     27  N   UNL     1       1.432   8.744  19.945  0.00  0.00    +0.000 NA
ATOM     28  C   UNL     1       0.538   9.661  19.752  0.00  0.00    +0.000 C 
BRANCH  28  29
ATOM     29  C   UNL     1      -0.173  10.287  20.887  0.00  0.00    +0.000 A 
ATOM     30  C   UNL     1      -0.100   9.724  22.168  0.00  0.00    +0.000 A 
ATOM     31  C   UNL     1      -0.779  10.317  23.233  0.00  0.00    +0.000 A 
ATOM     32  C   UNL     1      -1.533  11.471  23.021  0.00  0.00    +0.000 A 
ATOM     33  C   UNL     1      -1.604  12.027  21.743  0.00  0.00    +0.000 A 
ATOM     34 CL   UNL     1      -2.539  13.449  21.489  0.00  0.00    +0.000 Cl
ATOM     35  C   UNL     1      -0.926  11.444  20.671  0.00  0.00    +0.000 A 
ENDBRANCH  28  29
ENDBRANCH   4  27
TORSDOF 8
ENDMDL
MODEL 8
REMARK VINA RESULT:      -7.6      1.238      1.853
REMARK  Name = 
REMARK  8 active torsions:
REMARK  status: ('A' for Active; 'I' for Inactive)
REMARK    1  A    between atoms: N_1  and  C_2
REMARK    2  A    between atoms: N_5  and  N_6
REMARK    3  A    between atoms: C_7  and  C_8
REMARK    4  A    between atoms: N_20  and  C1*_21
REMARK    5  A    between atoms: C4*_23  and  C5*_24
REMARK    6  A    between atoms: C5*_24  and  O5*_25
REMARK    7  A    between atoms: C3*_26  and  O3*_27
REMARK    8  A    between atoms: C2*_28  and  O2*_29
REMARK                            x       y       z     vdW  Elec       q    Type
REMARK                         _______ _______ _______ _____ _____    ______ ____
ROOT
ATOM      1  C   UNL     1       7.398   5.658  15.195  0.00  0.00    +0.000 A 
ATOM      2  N   UNL     1       7.750   6.615  16.078  0.00  0.00    +0.000 NA
ATOM      3  C   UNL     1       7.120   6.707  17.274  0.00  0.00    +0.000 A 
ATOM      4  N   UNL     1       7.551   7.672  18.206  0.00  0.00    +0.000 N 
ATOM      5  N   UNL     1       6.110   5.909  17.689  0.00  0.00    +0.000 NA
ATOM      6  C   UNL     1       5.744   5.008  16.759  0.00  0.00    +0.000 A 
ATOM      7  C   UNL     1       6.324   4.821  15.516  0.00  0.00    +0.000 A 
ATOM      8  N   UNL     1       5.710   3.796  14.829  0.00  0.00    +0.000 NA
ATOM      9  C   UNL     1       4.785   3.354  15.648  0.00  0.00    +0.000 A 
ATOM     10  N   UNL     1       4.757   4.063  16.828  0.00  0.00    +0.000 N 
ATOM     11  H   UNL     1       6.957   7.662  19.028  0.00  0.00    +0.000 HD
ENDROOT
BRANCH  10  12
ATOM     12  C1* UNL     1       3.877   3.740  17.932  0.00  0.00    +0.000 C 
ATOM     13  O4* UNL     1       2.719   4.599  17.948  0.00  0.00    +0.000 OA
ATOM     14  C4* UNL     1       2.502   5.064  19.304  0.00  0.00    +0.000 C 
ATOM     15  C3* UNL     1       3.403   4.219  20.202  0.00  0.00    +0.000 C 
ATOM     16  C2* UNL     1       4.566   3.860  19.293  0.00  0.00    +0.000 C 
BRANCH  15  17
ATOM     17  O3* UNL     1       2.764   2.991  20.603  0.00  0.00    +0.000 OA
ATOM     18  H3* UNL     1       2.278   3.139  21.434  0.00  0.00    +0.000 HD
ENDBRANCH  15  17
BRANCH  16  19
ATOM     19  O2* UNL     1       5.183   2.634  19.697  0.00  0.00    +0.000 OA
ATOM     20  H2* UNL     1       6.095   2.655  19.334  0.00  0.00    +0.000 HD
ENDBRANCH  16  19
BRANCH  14  21
ATOM     21  C5* UNL     1       2.820   6.560  19.386  0.00  0.00    +0.000 C 
BRANCH  21  22
ATOM     22  O5* UNL     1       3.252   7.045  18.116  0.00  0.00    +0.000 OA
ATOM     23  H5* UNL     1       4.222   7.155  18.192  0.00  0.00    +0.000 HD
ENDBRANCH  21  22
ENDBRANCH  14  21
ENDBRANCH  10  12
BRANCH   1  24
ATOM     24  N   UNL     1       8.128   5.539  14.021  0.00  0.00    +0.000 N 
ATOM     25  H   UNL     1       8.831   6.259  13.927  0.00  0.00    +0.000 HD
ATOM     26  H   UNL     1       7.579   5.280  13.211  0.00  0.00    +0.000 HD
ENDBRANCH   1  24
BRANCH   4  27
ATOM     27  N   UNL     1       8.094   8.829  17.735  0.00  0.00    +0.000 NA
ATOM     28  C   UNL     1       8.658   9.585  18.621  0.00  0.00    +0.000 C 
BRANCH  28  29
ATOM     29  C   UNL     1       9.293  10.866  18.243  0.00  0.00    +0.000 A 
ATOM     30  C   UNL     1      10.663  10.921  17.956  0.00  0.00    +0.000 A 
ATOM     31  C   UNL     1      11.257  12.134  17.606  0.00  0.00    +0.000 A 
ATOM     32  C   UNL     1      10.484  13.294  17.543  0.00  0.00    +0.000 A 
ATOM     33  C   UNL     1       9.120  13.234  17.830  0.00  0.00    +0.000 A 
ATOM     34 CL   UNL     1       8.173  14.669  17.754  0.00  0.00    +0.000 Cl
ATOM     35  C   UNL     1       8.515  12.024  18.179  0.00  0.00    +0.000 A 
ENDBRANCH  28  29
ENDBRANCH   4  27
TORSDOF 8
ENDMDL
MODEL 9
REMARK VINA RESULT:      -7.5      6.585      8.338
REMARK  Name = 
REMARK  8 active torsions:
REMARK  status: ('A' for Active; 'I' for Inactive)
REMARK    1  A    between atoms: N_1  and  C_2
REMARK    2  A    between atoms: N_5  and  N_6
REMARK    3  A    between atoms: C_7  and  C_8
REMARK    4  A    between atoms: N_20  and  C1*_21
REMARK    5  A    between atoms: C4*_23  and  C5*_24
REMARK    6  A    between atoms: C5*_24  and  O5*_25
REMARK    7  A    between atoms: C3*_26  and  O3*_27
REMARK    8  A    between atoms: C2*_28  and  O2*_29
REMARK                            x       y       z     vdW  Elec       q    Type
REMARK                         _______ _______ _______ _____ _____    ______ ____
ROOT
ATOM      1  C   UNL     1       1.724   9.604  18.640  0.00  0.00    +0.000 A 
ATOM      2  N   UNL     1       1.014   9.907  19.747  0.00  0.00    +0.000 NA
ATOM      3  C   UNL     1       0.880   8.999  20.743  0.00  0.00    +0.000 A 
ATOM      4  N   UNL     1       0.189   9.362  21.916  0.00  0.00    +0.000 N 
ATOM      5  N   UNL     1       1.394   7.748  20.736  0.00  0.00    +0.000 NA
ATOM      6  C   UNL     1       2.042   7.460  19.592  0.00  0.00    +0.000 A 
ATOM      7  C   UNL     1       2.248   8.312  18.521  0.00  0.00    +0.000 A 
ATOM      8  N   UNL     1       2.971   7.694  17.523  0.00  0.00    +0.000 NA
ATOM      9  C   UNL     1       3.216   6.492  17.988  0.00  0.00    +0.000 A 
ATOM     10  N   UNL     1       2.666   6.295  19.234  0.00  0.00    +0.000 N 
ATOM     11  H   UNL     1       0.120   8.571  22.547  0.00  0.00    +0.000 HD
ENDROOT
BRANCH  10  12
ATOM     12  C1* UNL     1       2.843   5.081  20.003  0.00  0.00    +0.000 C 
ATOM     13  O4* UNL     1       4.102   4.448  19.702  0.00  0.00    +0.000 OA
ATOM     14  C4* UNL     1       3.877   3.028  19.512  0.00  0.00    +0.000 C 
ATOM     15  C3* UNL     1       2.459   2.744  20.002  0.00  0.00    +0.000 C 
ATOM     16  C2* UNL     1       1.733   4.055  19.754  0.00  0.00    +0.000 C 
BRANCH  15  17
ATOM     17  O3* UNL     1       2.421   2.482  21.419  0.00  0.00    +0.000 OA
ATOM     18  H3* UNL     1       1.729   1.822  21.604  0.00  0.00    +0.000 HD
ENDBRANCH  15  17
BRANCH  16  19
ATOM     19  O2* UNL     1       0.633   4.220  20.653  0.00  0.00    +0.000 OA
ATOM     20  H2* UNL     1       1.017   4.544  21.497  0.00  0.00    +0.000 HD
ENDBRANCH  16  19
BRANCH  14  21
ATOM     21  C5* UNL     1       4.076   2.675  18.035  0.00  0.00    +0.000 C 
BRANCH  21  22
ATOM     22  O5* UNL     1       5.129   3.458  17.475  0.00  0.00    +0.000 OA
ATOM     23  H5* UNL     1       5.592   3.859  18.239  0.00  0.00    +0.000 HD
ENDBRANCH  21  22
ENDBRANCH  14  21
ENDBRANCH  10  12
BRANCH   1  24
ATOM     24  N   UNL     1       1.917  10.592  17.685  0.00  0.00    +0.000 N 
ATOM     25  H   UNL     1       2.402  10.249  16.866  0.00  0.00    +0.000 HD
ATOM     26  H   UNL     1       2.169  11.496  18.062  0.00  0.00    +0.000 HD
ENDBRANCH   1  24
BRANCH   4  27
ATOM     27  N   UNL     1      -0.808  10.285  21.820  0.00  0.00    +0.000 NA
ATOM     28  C   UNL     1      -0.908  11.107  22.815  0.00  0.00    +0.000 C 
BRANCH  28  29
ATOM     29  C   UNL     1      -1.943  12.163  22.835  0.00  0.00    +0.000 A 
ATOM     30  C   UNL     1      -3.042  12.063  23.698  0.00  0.00    +0.000 A 
ATOM     31  C   UNL     1      -4.018  13.060  23.707  0.00  0.00    +0.000 A 
ATOM     32  C   UNL     1      -3.899  14.157  22.853  0.00  0.00    +0.000 A 
ATOM     33  C   UNL     1      -2.804  14.251  21.994  0.00  0.00    +0.000 A 
ATOM     34 CL   UNL     1      -2.666  15.606  20.942  0.00  0.00    +0.000 Cl
ATOM     35  C   UNL     1      -1.819  13.261  21.979  0.00  0.00    +0.000 A 
ENDBRANCH  28  29
ENDBRANCH   4  27
TORSDOF 8
ENDMDL
