MODEL 1
REMARK VINA RESULT:      -7.9      0.000      0.000
REMARK  Name = 
REMARK  15 active torsions:
REMARK  status: ('A' for Active; 'I' for Inactive)
REMARK    1  A    between atoms: C_1  and  C_2
REMARK    2  A    between atoms: C_2  and  C_3
REMARK    3  A    between atoms: C_3  and  C_4
REMARK    4  A    between atoms: C_4  and  C_5
REMARK    5  A    between atoms: C_5  and  C_6
REMARK    6  A    between atoms: N_8  and  CA_9
REMARK    7  A    between atoms: CA_9  and  C_10
REMARK    8  A    between atoms: CA_9  and  CB_24
REMARK    9  A    between atoms: N_12  and  CA_13
REMARK   10  A    between atoms: CA_13  and  CB_14
REMARK   11  A    between atoms: CA_13  and  C_21
REMARK   12  A    between atoms: CB_14  and  CG_15
REMARK   13  A    between atoms: C_21  and  OXT_23
REMARK   14  A    between atoms: CB_24  and  CG1_25
REMARK   15  A    between atoms: CB_24  and  CG2_26
REMARK                            x       y       z     vdW  Elec       q    Type
REMARK                         _______ _______ _______ _____ _____    ______ ____
ROOT
ATOM      1  C   VAL A   1       5.989   4.619  18.639  0.00  0.00    +0.000 C 
ATOM      2  O   VAL A   1       6.428   4.909  19.752  0.00  0.00    +0.000 OA
ATOM      3  N   PHE A   2       4.933   3.750  18.509  0.00  0.00    +0.000 N 
ATOM      4  H   PHE A   2       4.897   3.203  17.657  0.00  0.00    +0.000 HD
ENDROOT
BRANCH   1   5
ATOM      5  CA  VAL A   1       6.709   5.078  17.325  0.00  0.00    +0.000 C 
BRANCH   5   8
ATOM      6  C   UNK A   0       6.585   4.541  14.917  0.00  0.00    +0.000 C 
ATOM      7  O   UNK A   0       7.623   5.132  14.655  0.00  0.00    +0.000 OA
ATOM      8  N   VAL A   1       6.030   4.491  16.166  0.00  0.00    +0.000 N 
ATOM      9  H   VAL A   1       5.311   3.790  16.351  0.00  0.00    +0.000 HD
BRANCH   6  10
ATOM     10  C   UNK A   0       5.747   3.841  13.858  0.00  0.00    +0.000 C 
BRANCH  10  11
ATOM     11  C   UNK A   0       6.514   3.665  12.553  0.00  0.00    +0.000 C 
BRANCH  11  12
ATOM     12  C   UNK A   0       5.846   2.646  11.631  0.00  0.00    +0.000 C 
BRANCH  12  14
ATOM     13  C   UNK A   0       6.206   0.185  11.205  0.00  0.00    +0.000 C 
ATOM     14  C   UNK A   0       6.841   1.564  11.208  0.00  0.00    +0.000 C 
ENDBRANCH  12  14
ENDBRANCH  11  12
ENDBRANCH  10  11
ENDBRANCH   6  10
ENDBRANCH   5   8
BRANCH   5  15
ATOM     15  CB  VAL A   1       6.977   6.598  17.108  0.00  0.00    +0.000 C 
ATOM     16  CG1 VAL A   1       5.728   7.478  17.021  0.00  0.00    +0.000 C 
ATOM     17  CG2 VAL A   1       7.968   7.153  18.119  0.00  0.00    +0.000 C 
ENDBRANCH   5  15
ENDBRANCH   1   5
BRANCH   3  18
ATOM     18  CA  PHE A   2       4.195   3.153  19.642  0.00  0.00    +0.000 C 
BRANCH  18  19
ATOM     19  C   PHE A   2       4.663   1.684  19.713  0.00  0.00    +0.000 C 
ATOM     20  O   PHE A   2       5.313   1.248  20.659  0.00  0.00    +0.000 OA
BRANCH  19  21
ATOM     21  OXT PHE A   2       4.250   0.867  18.720  0.00  0.00    +0.000 OA
ATOM     22  HXT PHE A   2       4.872   0.168  18.457  0.00  0.00    +0.000 HD
ENDBRANCH  19  21
ENDBRANCH  18  19
BRANCH  18  23
ATOM     23  CB  PHE A   2       2.656   3.333  19.542  0.00  0.00    +0.000 C 
BRANCH  23  24
ATOM     24  CG  PHE A   2       2.242   4.784  19.424  0.00  0.00    +0.000 A 
ATOM     25  CD1 PHE A   2       2.361   5.509  18.234  0.00  0.00    +0.000 A 
ATOM     26  CE1 PHE A   2       2.302   6.903  18.251  0.00  0.00    +0.000 A 
ATOM     27  CZ  PHE A   2       2.087   7.583  19.447  0.00  0.00    +0.000 A 
ATOM     28  CE2 PHE A   2       1.833   6.863  20.608  0.00  0.00    +0.000 A 
ATOM     29  CD2 PHE A   2       1.865   5.470  20.577  0.00  0.00    +0.000 A 
ENDBRANCH  23  24
ENDBRANCH  18  23
ENDBRANCH   3  18
TORSDOF 12
ENDMDL
MODEL 2
REMARK VINA RESULT:      -7.6      1.954      3.221
REMARK  Name = 
REMARK  15 active torsions:
REMARK  status: ('A' for Active; 'I' for Inactive)
REMARK    1  A    between atoms: C_1  and  C_2
REMARK    2  A    between atoms: C_2  and  C_3
REMARK    3  A    between atoms: C_3  and  C_4
REMARK    4  A    between atoms: C_4  and  C_5
REMARK    5  A    between atoms: C_5  and  C_6
REMARK    6  A    between atoms: N_8  and  CA_9
REMARK    7  A    between atoms: CA_9  and  C_10
REMARK    8  A    between atoms: CA_9  and  CB_24
REMARK    9  A    between atoms: N_12  and  CA_13
REMARK   10  A    between atoms: CA_13  and  CB_14
REMARK   11  A    between atoms: CA_13  and  C_21
REMARK   12  A    between atoms: CB_14  and  CG_15
REMARK   13  A    between atoms: C_21  and  OXT_23
REMARK   14  A    between atoms: CB_24  and  CG1_25
REMARK   15  A    between atoms: CB_24  and  CG2_26
REMARK                            x       y       z     vdW  Elec       q    Type
REMARK                         _______ _______ _______ _____ _____    ______ ____
ROOT
ATOM      1  C   VAL A   1       5.165   6.201  17.152  0.00  0.00    +0.000 C 
ATOM      2  O   VAL A   1       4.865   7.389  17.032  0.00  0.00    +0.000 OA
ATOM      3  N   PHE A   2       4.233   5.284  17.575  0.00  0.00    +0.000 N 
ATOM      4  H   PHE A   2       4.585   4.478  18.079  0.00  0.00    +0.000 HD
ENDROOT
BRANCH   1   5
ATOM      5  CA  VAL A   1       6.644   5.706  17.001  0.00  0.00    +0.000 C 
BRANCH   5   8
ATOM      6  C   UNK A   0       6.598   4.609  14.788  0.00  0.00    +0.000 C 
ATOM      7  O   UNK A   0       6.002   3.626  15.204  0.00  0.00    +0.000 OA
ATOM      8  N   VAL A   1       6.997   5.650  15.580  0.00  0.00    +0.000 N 
ATOM      9  H   VAL A   1       7.267   6.527  15.131  0.00  0.00    +0.000 HD
BRANCH   6  10
ATOM     10  C   UNK A   0       7.030   4.756  13.337  0.00  0.00    +0.000 C 
BRANCH  10  11
ATOM     11  C   UNK A   0       6.669   3.528  12.511  0.00  0.00    +0.000 C 
BRANCH  11  12
ATOM     12  C   UNK A   0       5.216   3.562  12.039  0.00  0.00    +0.000 C 
BRANCH  12  14
ATOM     13  C   UNK A   0       6.040   1.333  11.190  0.00  0.00    +0.000 C 
ATOM     14  C   UNK A   0       4.888   2.323  11.205  0.00  0.00    +0.000 C 
ENDBRANCH  12  14
ENDBRANCH  11  12
ENDBRANCH  10  11
ENDBRANCH   6  10
ENDBRANCH   5   8
BRANCH   5  15
ATOM     15  CB  VAL A   1       7.760   6.413  17.829  0.00  0.00    +0.000 C 
ATOM     16  CG1 VAL A   1       7.790   7.939  17.719  0.00  0.00    +0.000 C 
ATOM     17  CG2 VAL A   1       7.759   5.968  19.283  0.00  0.00    +0.000 C 
ENDBRANCH   5  15
ENDBRANCH   1   5
BRANCH   3  18
ATOM     18  CA  PHE A   2       2.815   5.597  17.851  0.00  0.00    +0.000 C 
BRANCH  18  19
ATOM     19  C   PHE A   2       2.810   6.347  19.199  0.00  0.00    +0.000 C 
ATOM     20  O   PHE A   2       2.011   7.246  19.446  0.00  0.00    +0.000 OA
BRANCH  19  21
ATOM     21  OXT PHE A   2       3.676   5.912  20.139  0.00  0.00    +0.000 OA
ATOM     22  HXT PHE A   2       4.611   6.134  19.993  0.00  0.00    +0.000 HD
ENDBRANCH  19  21
ENDBRANCH  18  19
BRANCH  18  23
ATOM     23  CB  PHE A   2       1.886   4.352  17.804  0.00  0.00    +0.000 C 
BRANCH  23  24
ATOM     24  CG  PHE A   2       1.943   3.531  19.074  0.00  0.00    +0.000 A 
ATOM     25  CD1 PHE A   2       0.971   3.618  20.076  0.00  0.00    +0.000 A 
ATOM     26  CE1 PHE A   2       1.230   3.122  21.354  0.00  0.00    +0.000 A 
ATOM     27  CZ  PHE A   2       2.446   2.503  21.633  0.00  0.00    +0.000 A 
ATOM     28  CE2 PHE A   2       3.360   2.292  20.608  0.00  0.00    +0.000 A 
ATOM     29  CD2 PHE A   2       3.079   2.766  19.327  0.00  0.00    +0.000 A 
ENDBRANCH  23  24
ENDBRANCH  18  23
ENDBRANCH   3  18
TORSDOF 12
ENDMDL
MODEL 3
REMARK VINA RESULT:      -7.4      1.143      1.758
REMARK  Name = 
REMARK  15 active torsions:
REMARK  status: ('A' for Active; 'I' for Inactive)
REMARK    1  A    between atoms: C_1  and  C_2
REMARK    2  A    between atoms: C_2  and  C_3
REMARK    3  A    between atoms: C_3  and  C_4
REMARK    4  A    between atoms: C_4  and  C_5
REMARK    5  A    between atoms: C_5  and  C_6
REMARK    6  A    between atoms: N_8  and  CA_9
REMARK    7  A    between atoms: CA_9  and  C_10
REMARK    8  A    between atoms: CA_9  and  CB_24
REMARK    9  A    between atoms: N_12  and  CA_13
REMARK   10  A    between atoms: CA_13  and  CB_14
REMARK   11  A    between atoms: CA_13  and  C_21
REMARK   12  A    between atoms: CB_14  and  CG_15
REMARK   13  A    between atoms: C_21  and  OXT_23
REMARK   14  A    between atoms: CB_24  and  CG1_25
REMARK   15  A    between atoms: CB_24  and  CG2_26
REMARK                            x       y       z     vdW  Elec       q    Type
REMARK                         _______ _______ _______ _____ _____    ______ ____
ROOT
ATOM      1  C   VAL A   1       5.899   4.850  18.767  0.00  0.00    +0.000 C 
ATOM      2  O   VAL A   1       6.475   4.753  19.851  0.00  0.00    +0.000 OA
ATOM      3  N   PHE A   2       4.578   4.492  18.644  0.00  0.00    +0.000 N 
ATOM      4  H   PHE A   2       4.281   4.156  17.735  0.00  0.00    +0.000 HD
ENDROOT
BRANCH   1   5
ATOM      5  CA  VAL A   1       6.671   5.214  17.454  0.00  0.00    +0.000 C 
BRANCH   5   8
ATOM      6  C   UNK A   0       6.616   4.479  15.096  0.00  0.00    +0.000 C 
ATOM      7  O   UNK A   0       7.737   4.907  14.858  0.00  0.00    +0.000 OA
ATOM      8  N   VAL A   1       5.988   4.615  16.303  0.00  0.00    +0.000 N 
ATOM      9  H   VAL A   1       5.173   4.032  16.496  0.00  0.00    +0.000 HD
BRANCH   6  10
ATOM     10  C   UNK A   0       5.754   3.798  14.043  0.00  0.00    +0.000 C 
BRANCH  10  11
ATOM     11  C   UNK A   0       6.484   3.664  12.713  0.00  0.00    +0.000 C 
BRANCH  11  12
ATOM     12  C   UNK A   0       5.575   3.981  11.527  0.00  0.00    +0.000 C 
BRANCH  12  14
ATOM     13  C   UNK A   0       3.372   3.432  10.425  0.00  0.00    +0.000 C 
ATOM     14  C   UNK A   0       4.368   3.042  11.503  0.00  0.00    +0.000 C 
ENDBRANCH  12  14
ENDBRANCH  11  12
ENDBRANCH  10  11
ENDBRANCH   6  10
ENDBRANCH   5   8
BRANCH   5  15
ATOM     15  CB  VAL A   1       7.024   6.708  17.181  0.00  0.00    +0.000 C 
ATOM     16  CG1 VAL A   1       5.825   7.645  17.015  0.00  0.00    +0.000 C 
ATOM     17  CG2 VAL A   1       8.011   7.256  18.199  0.00  0.00    +0.000 C 
ENDBRANCH   5  15
ENDBRANCH   1   5
BRANCH   3  18
ATOM     18  CA  PHE A   2       3.725   4.039  19.762  0.00  0.00    +0.000 C 
BRANCH  18  19
ATOM     19  C   PHE A   2       3.789   2.498  19.737  0.00  0.00    +0.000 C 
ATOM     20  O   PHE A   2       2.877   1.810  19.286  0.00  0.00    +0.000 OA
BRANCH  19  21
ATOM     21  OXT PHE A   2       4.941   1.932  20.160  0.00  0.00    +0.000 OA
ATOM     22  HXT PHE A   2       5.170   1.078  19.755  0.00  0.00    +0.000 HD
ENDBRANCH  19  21
ENDBRANCH  18  19
BRANCH  18  23
ATOM     23  CB  PHE A   2       2.285   4.622  19.718  0.00  0.00    +0.000 C 
BRANCH  23  24
ATOM     24  CG  PHE A   2       2.268   6.129  19.575  0.00  0.00    +0.000 A 
ATOM     25  CD1 PHE A   2       1.875   6.982  20.612  0.00  0.00    +0.000 A 
ATOM     26  CE1 PHE A   2       1.543   8.310  20.342  0.00  0.00    +0.000 A 
ATOM     27  CZ  PHE A   2       1.633   8.808  19.045  0.00  0.00    +0.000 A 
ATOM     28  CE2 PHE A   2       2.151   8.003  18.037  0.00  0.00    +0.000 A 
ATOM     29  CD2 PHE A   2       2.509   6.686  18.322  0.00  0.00    +0.000 A 
ENDBRANCH  23  24
ENDBRANCH  18  23
ENDBRANCH   3  18
TORSDOF 12
ENDMDL
MODEL 4
REMARK VINA RESULT:      -7.4      1.004      1.528
REMARK  Name = 
REMARK  15 active torsions:
REMARK  status: ('A' for Active; 'I' for Inactive)
REMARK    1  A    between atoms: C_1  and  C_2
REMARK    2  A    between atoms: C_2  and  C_3
REMARK    3  A    between atoms: C_3  and  C_4
REMARK    4  A    between atoms: C_4  and  C_5
REMARK    5  A    between atoms: C_5  and  C_6
REMARK    6  A    between atoms: N_8  and  CA_9
REMARK    7  A    between atoms: CA_9  and  C_10
REMARK    8  A    between atoms: CA_9  and  CB_24
REMARK    9  A    between atoms: N_12  and  CA_13
REMARK   10  A    between atoms: CA_13  and  CB_14
REMARK   11  A    between atoms: CA_13  and  C_21
REMARK   12  A    between atoms: CB_14  and  CG_15
REMARK   13  A    between atoms: C_21  and  OXT_23
REMARK   14  A    between atoms: CB_24  and  CG1_25
REMARK   15  A    between atoms: CB_24  and  CG2_26
REMARK                            x       y       z     vdW  Elec       q    Type
REMARK                         _______ _______ _______ _____ _____    ______ ____
ROOT
ATOM      1  C   VAL A   1       5.444   4.386  18.597  0.00  0.00    +0.000 C 
ATOM      2  O   VAL A   1       5.633   4.402  19.814  0.00  0.00    +0.000 OA
ATOM      3  N   PHE A   2       4.270   3.897  18.079  0.00  0.00    +0.000 N 
ATOM      4  H   PHE A   2       4.318   3.487  17.153  0.00  0.00    +0.000 HD
ENDROOT
BRANCH   1   5
ATOM      5  CA  VAL A   1       6.580   4.754  17.583  0.00  0.00    +0.000 C 
BRANCH   5   8
ATOM      6  C   UNK A   0       6.943   4.475  15.156  0.00  0.00    +0.000 C 
ATOM      7  O   UNK A   0       7.639   5.477  15.068  0.00  0.00    +0.000 OA
ATOM      8  N   VAL A   1       6.345   4.061  16.313  0.00  0.00    +0.000 N 
ATOM      9  H   VAL A   1       5.990   3.104  16.362  0.00  0.00    +0.000 HD
BRANCH   6  10
ATOM     10  C   UNK A   0       6.604   3.601  13.957  0.00  0.00    +0.000 C 
BRANCH  10  11
ATOM     11  C   UNK A   0       5.263   3.980  13.341  0.00  0.00    +0.000 C 
BRANCH  11  12
ATOM     12  C   UNK A   0       5.033   3.283  12.000  0.00  0.00    +0.000 C 
BRANCH  12  14
ATOM     13  C   UNK A   0       5.998   1.123  11.122  0.00  0.00    +0.000 C 
ATOM     14  C   UNK A   0       6.296   2.551  11.546  0.00  0.00    +0.000 C 
ENDBRANCH  12  14
ENDBRANCH  11  12
ENDBRANCH  10  11
ENDBRANCH   6  10
ENDBRANCH   5   8
BRANCH   5  15
ATOM     15  CB  VAL A   1       6.917   6.257  17.347  0.00  0.00    +0.000 C 
ATOM     16  CG1 VAL A   1       5.709   7.187  17.210  0.00  0.00    +0.000 C 
ATOM     17  CG2 VAL A   1       7.904   6.790  18.374  0.00  0.00    +0.000 C 
ENDBRANCH   5  15
ENDBRANCH   1   5
BRANCH   3  18
ATOM     18  CA  PHE A   2       3.128   3.424  18.890  0.00  0.00    +0.000 C 
BRANCH  18  19
ATOM     19  C   PHE A   2       2.951   1.935  18.529  0.00  0.00    +0.000 C 
ATOM     20  O   PHE A   2       3.906   1.181  18.364  0.00  0.00    +0.000 OA
BRANCH  19  21
ATOM     21  OXT PHE A   2       1.684   1.468  18.482  0.00  0.00    +0.000 OA
ATOM     22  HXT PHE A   2       1.510   0.770  17.828  0.00  0.00    +0.000 HD
ENDBRANCH  19  21
ENDBRANCH  18  19
BRANCH  18  23
ATOM     23  CB  PHE A   2       1.847   4.284  18.717  0.00  0.00    +0.000 C 
BRANCH  23  24
ATOM     24  CG  PHE A   2       2.034   5.713  19.178  0.00  0.00    +0.000 A 
ATOM     25  CD1 PHE A   2       1.768   6.126  20.488  0.00  0.00    +0.000 A 
ATOM     26  CE1 PHE A   2       1.618   7.482  20.782  0.00  0.00    +0.000 A 
ATOM     27  CZ  PHE A   2       1.767   8.439  19.780  0.00  0.00    +0.000 A 
ATOM     28  CE2 PHE A   2       2.164   8.043  18.509  0.00  0.00    +0.000 A 
ATOM     29  CD2 PHE A   2       2.341   6.689  18.232  0.00  0.00    +0.000 A 
ENDBRANCH  23  24
ENDBRANCH  18  23
ENDBRANCH   3  18
TORSDOF 12
ENDMDL
MODEL 5
REMARK VINA RESULT:      -7.4      2.194      6.718
REMARK  Name = 
REMARK  15 active torsions:
REMARK  status: ('A' for Active; 'I' for Inactive)
REMARK    1  A    between atoms: C_1  and  C_2
REMARK    2  A    between atoms: C_2  and  C_3
REMARK    3  A    between atoms: C_3  and  C_4
REMARK    4  A    between atoms: C_4  and  C_5
REMARK    5  A    between atoms: C_5  and  C_6
REMARK    6  A    between atoms: N_8  and  CA_9
REMARK    7  A    between atoms: CA_9  and  C_10
REMARK    8  A    between atoms: CA_9  and  CB_24
REMARK    9  A    between atoms: N_12  and  CA_13
REMARK   10  A    between atoms: CA_13  and  CB_14
REMARK   11  A    between atoms: CA_13  and  C_21
REMARK   12  A    between atoms: CB_14  and  CG_15
REMARK   13  A    between atoms: C_21  and  OXT_23
REMARK   14  A    between atoms: CB_24  and  CG1_25
REMARK   15  A    between atoms: CB_24  and  CG2_26
REMARK                            x       y       z     vdW  Elec       q    Type
REMARK                         _______ _______ _______ _____ _____    ______ ____
ROOT
ATOM      1  C   VAL A   1       4.457   5.872  18.660  0.00  0.00    +0.000 C 
ATOM      2  O   VAL A   1       4.648   5.460  19.804  0.00  0.00    +0.000 OA
ATOM      3  N   PHE A   2       5.510   6.039  17.792  0.00  0.00    +0.000 N 
ATOM      4  H   PHE A   2       5.408   6.760  17.087  0.00  0.00    +0.000 HD
ENDROOT
BRANCH   1   5
ATOM      5  CA  VAL A   1       3.053   6.386  18.193  0.00  0.00    +0.000 C 
BRANCH   5   8
ATOM      6  C   UNK A   0       2.112   4.127  17.855  0.00  0.00    +0.000 C 
ATOM      7  O   UNK A   0       2.948   3.823  17.015  0.00  0.00    +0.000 OA
ATOM      8  N   VAL A   1       2.044   5.355  18.453  0.00  0.00    +0.000 N 
ATOM      9  H   VAL A   1       1.485   5.452  19.303  0.00  0.00    +0.000 HD
BRANCH   6  10
ATOM     10  C   UNK A   0       0.998   3.185  18.286  0.00  0.00    +0.000 C 
BRANCH  10  11
ATOM     11  C   UNK A   0       1.447   2.247  19.399  0.00  0.00    +0.000 C 
BRANCH  11  12
ATOM     12  C   UNK A   0       1.154   2.821  20.784  0.00  0.00    +0.000 C 
BRANCH  12  14
ATOM     13  C   UNK A   0       3.639   2.393  20.884  0.00  0.00    +0.000 C 
ATOM     14  C   UNK A   0       2.451   3.055  21.560  0.00  0.00    +0.000 C 
ENDBRANCH  12  14
ENDBRANCH  11  12
ENDBRANCH  10  11
ENDBRANCH   6  10
ENDBRANCH   5   8
BRANCH   5  15
ATOM     15  CB  VAL A   1       2.565   7.784  18.682  0.00  0.00    +0.000 C 
ATOM     16  CG1 VAL A   1       1.723   8.573  17.677  0.00  0.00    +0.000 C 
ATOM     17  CG2 VAL A   1       1.872   7.705  20.033  0.00  0.00    +0.000 C 
ENDBRANCH   5  15
ENDBRANCH   1   5
BRANCH   3  18
ATOM     18  CA  PHE A   2       6.913   5.691  18.101  0.00  0.00    +0.000 C 
BRANCH  18  19
ATOM     19  C   PHE A   2       7.703   7.011  17.990  0.00  0.00    +0.000 C 
ATOM     20  O   PHE A   2       7.507   7.819  17.086  0.00  0.00    +0.000 OA
BRANCH  19  21
ATOM     21  OXT PHE A   2       8.571   7.284  18.989  0.00  0.00    +0.000 OA
ATOM     22  HXT PHE A   2       9.140   6.549  19.272  0.00  0.00    +0.000 HD
ENDBRANCH  19  21
ENDBRANCH  18  19
BRANCH  18  23
ATOM     23  CB  PHE A   2       7.470   4.533  17.227  0.00  0.00    +0.000 C 
BRANCH  23  24
ATOM     24  CG  PHE A   2       6.907   4.537  15.822  0.00  0.00    +0.000 A 
ATOM     25  CD1 PHE A   2       5.809   3.755  15.446  0.00  0.00    +0.000 A 
ATOM     26  CE1 PHE A   2       5.542   3.521  14.097  0.00  0.00    +0.000 A 
ATOM     27  CZ  PHE A   2       6.344   4.092  13.112  0.00  0.00    +0.000 A 
ATOM     28  CE2 PHE A   2       7.351   4.976  13.476  0.00  0.00    +0.000 A 
ATOM     29  CD2 PHE A   2       7.593   5.228  14.826  0.00  0.00    +0.000 A 
ENDBRANCH  23  24
ENDBRANCH  18  23
ENDBRANCH   3  18
TORSDOF 12
ENDMDL
MODEL 6
REMARK VINA RESULT:      -7.3      2.245      3.759
REMARK  Name = 
REMARK  15 active torsions:
REMARK  status: ('A' for Active; 'I' for Inactive)
REMARK    1  A    between atoms: C_1  and  C_2
REMARK    2  A    between atoms: C_2  and  C_3
REMARK    3  A    between atoms: C_3  and  C_4
REMARK    4  A    between atoms: C_4  and  C_5
REMARK    5  A    between atoms: C_5  and  C_6
REMARK    6  A    between atoms: N_8  and  CA_9
REMARK    7  A    between atoms: CA_9  and  C_10
REMARK    8  A    between atoms: CA_9  and  CB_24
REMARK    9  A    between atoms: N_12  and  CA_13
REMARK   10  A    between atoms: CA_13  and  CB_14
REMARK   11  A    between atoms: CA_13  and  C_21
REMARK   12  A    between atoms: CB_14  and  CG_15
REMARK   13  A    between atoms: C_21  and  OXT_23
REMARK   14  A    between atoms: CB_24  and  CG1_25
REMARK   15  A    between atoms: CB_24  and  CG2_26
REMARK                            x       y       z     vdW  Elec       q    Type
REMARK                         _______ _______ _______ _____ _____    ______ ____
ROOT
ATOM      1  C   VAL A   1       4.541   5.446  18.206  0.00  0.00    +0.000 C 
ATOM      2  O   VAL A   1       3.880   4.407  18.206  0.00  0.00    +0.000 OA
ATOM      3  N   PHE A   2       3.944   6.655  18.471  0.00  0.00    +0.000 N 
ATOM      4  H   PHE A   2       4.359   7.472  18.039  0.00  0.00    +0.000 HD
ENDROOT
BRANCH   1   5
ATOM      5  CA  VAL A   1       6.037   5.470  17.740  0.00  0.00    +0.000 C 
BRANCH   5   8
ATOM      6  C   UNK A   0       6.995   4.639  15.620  0.00  0.00    +0.000 C 
ATOM      7  O   UNK A   0       7.859   3.980  16.182  0.00  0.00    +0.000 OA
ATOM      8  N   VAL A   1       6.094   5.432  16.276  0.00  0.00    +0.000 N 
ATOM      9  H   VAL A   1       5.267   5.752  15.768  0.00  0.00    +0.000 HD
BRANCH   6  10
ATOM     10  C   UNK A   0       6.867   4.708  14.106  0.00  0.00    +0.000 C 
BRANCH  10  11
ATOM     11  C   UNK A   0       5.985   3.592  13.560  0.00  0.00    +0.000 C 
BRANCH  11  12
ATOM     12  C   UNK A   0       5.867   3.649  12.038  0.00  0.00    +0.000 C 
BRANCH  12  14
ATOM     13  C   UNK A   0       6.562   1.372  11.200  0.00  0.00    +0.000 C 
ATOM     14  C   UNK A   0       5.396   2.305  11.480  0.00  0.00    +0.000 C 
ENDBRANCH  12  14
ENDBRANCH  11  12
ENDBRANCH  10  11
ENDBRANCH   6  10
ENDBRANCH   5   8
BRANCH   5  15
ATOM     15  CB  VAL A   1       6.982   6.572  18.309  0.00  0.00    +0.000 C 
ATOM     16  CG1 VAL A   1       8.120   6.065  19.197  0.00  0.00    +0.000 C 
ATOM     17  CG2 VAL A   1       7.507   7.492  17.218  0.00  0.00    +0.000 C 
ENDBRANCH   5  15
ENDBRANCH   1   5
BRANCH   3  18
ATOM     18  CA  PHE A   2       2.522   6.824  18.839  0.00  0.00    +0.000 C 
BRANCH  18  19
ATOM     19  C   PHE A   2       2.141   8.247  18.382  0.00  0.00    +0.000 C 
ATOM     20  O   PHE A   2       2.385   8.660  17.251  0.00  0.00    +0.000 OA
BRANCH  19  21
ATOM     21  OXT PHE A   2       1.443   9.000  19.260  0.00  0.00    +0.000 OA
ATOM     22  HXT PHE A   2       1.853   9.127  20.132  0.00  0.00    +0.000 HD
ENDBRANCH  19  21
ENDBRANCH  18  19
BRANCH  18  23
ATOM     23  CB  PHE A   2       2.230   6.530  20.336  0.00  0.00    +0.000 C 
BRANCH  23  24
ATOM     24  CG  PHE A   2       1.881   5.080  20.591  0.00  0.00    +0.000 A 
ATOM     25  CD1 PHE A   2       2.636   4.257  21.434  0.00  0.00    +0.000 A 
ATOM     26  CE1 PHE A   2       2.496   2.870  21.375  0.00  0.00    +0.000 A 
ATOM     27  CZ  PHE A   2       1.577   2.294  20.501  0.00  0.00    +0.000 A 
ATOM     28  CE2 PHE A   2       0.730   3.110  19.761  0.00  0.00    +0.000 A 
ATOM     29  CD2 PHE A   2       0.857   4.495  19.849  0.00  0.00    +0.000 A 
ENDBRANCH  23  24
ENDBRANCH  18  23
ENDBRANCH   3  18
TORSDOF 12
ENDMDL
MODEL 7
REMARK VINA RESULT:      -7.3      2.040      7.467
REMARK  Name = 
REMARK  15 active torsions:
REMARK  status: ('A' for Active; 'I' for Inactive)
REMARK    1  A    between atoms: C_1  and  C_2
REMARK    2  A    between atoms: C_2  and  C_3
REMARK    3  A    between atoms: C_3  and  C_4
REMARK    4  A    between atoms: C_4  and  C_5
REMARK    5  A    between atoms: C_5  and  C_6
REMARK    6  A    between atoms: N_8  and  CA_9
REMARK    7  A    between atoms: CA_9  and  C_10
REMARK    8  A    between atoms: CA_9  and  CB_24
REMARK    9  A    between atoms: N_12  and  CA_13
REMARK   10  A    between atoms: CA_13  and  CB_14
REMARK   11  A    between atoms: CA_13  and  C_21
REMARK   12  A    between atoms: CB_14  and  CG_15
REMARK   13  A    between atoms: C_21  and  OXT_23
REMARK   14  A    between atoms: CB_24  and  CG1_25
REMARK   15  A    between atoms: CB_24  and  CG2_26
REMARK                            x       y       z     vdW  Elec       q    Type
REMARK                         _______ _______ _______ _____ _____    ______ ____
ROOT
ATOM      1  C   VAL A   1       4.442   3.820  18.997  0.00  0.00    +0.000 C 
ATOM      2  O   VAL A   1       5.172   2.839  19.149  0.00  0.00    +0.000 OA
ATOM      3  N   PHE A   2       4.675   4.714  17.980  0.00  0.00    +0.000 N 
ATOM      4  H   PHE A   2       4.389   5.672  18.143  0.00  0.00    +0.000 HD
ENDROOT
BRANCH   1   5
ATOM      5  CA  VAL A   1       3.334   4.191  20.041  0.00  0.00    +0.000 C 
BRANCH   5   8
ATOM      6  C   UNK A   0       2.417   6.265  19.062  0.00  0.00    +0.000 C 
ATOM      7  O   UNK A   0       1.966   5.692  18.080  0.00  0.00    +0.000 OA
ATOM      8  N   VAL A   1       3.134   5.643  20.046  0.00  0.00    +0.000 N 
ATOM      9  H   VAL A   1       3.264   6.129  20.934  0.00  0.00    +0.000 HD
BRANCH   6  10
ATOM     10  C   UNK A   0       2.290   7.767  19.268  0.00  0.00    +0.000 C 
BRANCH  10  11
ATOM     11  C   UNK A   0       2.203   8.516  17.943  0.00  0.00    +0.000 C 
BRANCH  11  12
ATOM     12  C   UNK A   0       0.984   9.434  17.885  0.00  0.00    +0.000 C 
BRANCH  12  14
ATOM     13  C   UNK A   0       0.028  10.896  19.706  0.00  0.00    +0.000 C 
ATOM     14  C   UNK A   0       1.194  10.671  18.759  0.00  0.00    +0.000 C 
ENDBRANCH  12  14
ENDBRANCH  11  12
ENDBRANCH  10  11
ENDBRANCH   6  10
ENDBRANCH   5   8
BRANCH   5  15
ATOM     15  CB  VAL A   1       1.970   3.438  19.986  0.00  0.00    +0.000 C 
ATOM     16  CG1 VAL A   1       1.908   2.263  19.007  0.00  0.00    +0.000 C 
ATOM     17  CG2 VAL A   1       1.492   3.024  21.369  0.00  0.00    +0.000 C 
ENDBRANCH   5  15
ENDBRANCH   1   5
BRANCH   3  18
ATOM     18  CA  PHE A   2       5.735   4.565  16.960  0.00  0.00    +0.000 C 
BRANCH  18  19
ATOM     19  C   PHE A   2       7.045   4.987  17.658  0.00  0.00    +0.000 C 
ATOM     20  O   PHE A   2       7.286   6.155  17.950  0.00  0.00    +0.000 OA
BRANCH  19  21
ATOM     21  OXT PHE A   2       7.889   3.994  18.016  0.00  0.00    +0.000 OA
ATOM     22  HXT PHE A   2       7.581   3.409  18.729  0.00  0.00    +0.000 HD
ENDBRANCH  19  21
ENDBRANCH  18  19
BRANCH  18  23
ATOM     23  CB  PHE A   2       5.436   5.328  15.640  0.00  0.00    +0.000 C 
BRANCH  23  24
ATOM     24  CG  PHE A   2       6.162   4.743  14.448  0.00  0.00    +0.000 A 
ATOM     25  CD1 PHE A   2       7.345   5.290  13.940  0.00  0.00    +0.000 A 
ATOM     26  CE1 PHE A   2       7.787   4.947  12.662  0.00  0.00    +0.000 A 
ATOM     27  CZ  PHE A   2       7.074   4.030  11.894  0.00  0.00    +0.000 A 
ATOM     28  CE2 PHE A   2       5.975   3.383  12.446  0.00  0.00    +0.000 A 
ATOM     29  CD2 PHE A   2       5.558   3.710  13.735  0.00  0.00    +0.000 A 
ENDBRANCH  23  24
ENDBRANCH  18  23
ENDBRANCH   3  18
TORSDOF 12
ENDMDL
MODEL 8
REMARK VINA RESULT:      -7.3      1.127      1.249
REMARK  Name = 
REMARK  15 active torsions:
REMARK  status: ('A' for Active; 'I' for Inactive)
REMARK    1  A    between atoms: C_1  and  C_2
REMARK    2  A    between atoms: C_2  and  C_3
REMARK    3  A    between atoms: C_3  and  C_4
REMARK    4  A    between atoms: C_4  and  C_5
REMARK    5  A    between atoms: C_5  and  C_6
REMARK    6  A    between atoms: N_8  and  CA_9
REMARK    7  A    between atoms: CA_9  and  C_10
REMARK    8  A    between atoms: CA_9  and  CB_24
REMARK    9  A    between atoms: N_12  and  CA_13
REMARK   10  A    between atoms: CA_13  and  CB_14
REMARK   11  A    between atoms: CA_13  and  C_21
REMARK   12  A    between atoms: CB_14  and  CG_15
REMARK   13  A    between atoms: C_21  and  OXT_23
REMARK   14  A    between atoms: CB_24  and  CG1_25
REMARK   15  A    between atoms: CB_24  and  CG2_26
REMARK                            x       y       z     vdW  Elec       q    Type
REMARK                         _______ _______ _______ _____ _____    ______ ____
ROOT
ATOM      1  C   VAL A   1       5.107   3.796  17.070  0.00  0.00    +0.000 C 
ATOM      2  O   VAL A   1       4.118   3.294  16.535  0.00  0.00    +0.000 OA
ATOM      3  N   PHE A   2       5.196   3.878  18.438  0.00  0.00    +0.000 N 
ATOM      4  H   PHE A   2       5.739   4.648  18.813  0.00  0.00    +0.000 HD
ENDROOT
BRANCH   1   5
ATOM      5  CA  VAL A   1       6.220   4.514  16.232  0.00  0.00    +0.000 C 
BRANCH   5   8
ATOM      6  C   UNK A   0       7.056   4.481  13.908  0.00  0.00    +0.000 C 
ATOM      7  O   UNK A   0       7.734   5.488  14.058  0.00  0.00    +0.000 OA
ATOM      8  N   VAL A   1       6.252   3.952  14.879  0.00  0.00    +0.000 N 
ATOM      9  H   VAL A   1       5.914   2.995  14.763  0.00  0.00    +0.000 HD
BRANCH   6  10
ATOM     10  C   UNK A   0       6.977   3.732  12.586  0.00  0.00    +0.000 C 
BRANCH  10  11
ATOM     11  C   UNK A   0       5.554   3.689  12.043  0.00  0.00    +0.000 C 
BRANCH  11  12
ATOM     12  C   UNK A   0       5.150   2.281  11.608  0.00  0.00    +0.000 C 
BRANCH  12  14
ATOM     13  C   UNK A   0       6.148  -0.011  11.267  0.00  0.00    +0.000 C 
ATOM     14  C   UNK A   0       6.371   1.486  11.144  0.00  0.00    +0.000 C 
ENDBRANCH  12  14
ENDBRANCH  11  12
ENDBRANCH  10  11
ENDBRANCH   6  10
ENDBRANCH   5   8
BRANCH   5  15
ATOM     15  CB  VAL A   1       6.240   6.072  16.192  0.00  0.00    +0.000 C 
ATOM     16  CG1 VAL A   1       4.875   6.741  16.011  0.00  0.00    +0.000 C 
ATOM     17  CG2 VAL A   1       6.987   6.664  17.377  0.00  0.00    +0.000 C 
ENDBRANCH   5  15
ENDBRANCH   1   5
BRANCH   3  18
ATOM     18  CA  PHE A   2       4.193   3.334  19.377  0.00  0.00    +0.000 C 
BRANCH  18  19
ATOM     19  C   PHE A   2       4.572   1.852  19.576  0.00  0.00    +0.000 C 
ATOM     20  O   PHE A   2       5.142   1.450  20.588  0.00  0.00    +0.000 OA
BRANCH  19  21
ATOM     21  OXT PHE A   2       4.172   0.989  18.617  0.00  0.00    +0.000 OA
ATOM     22  HXT PHE A   2       4.861   0.410  18.250  0.00  0.00    +0.000 HD
ENDBRANCH  19  21
ENDBRANCH  18  19
BRANCH  18  23
ATOM     23  CB  PHE A   2       2.726   3.566  18.920  0.00  0.00    +0.000 C 
BRANCH  23  24
ATOM     24  CG  PHE A   2       2.245   4.975  19.189  0.00  0.00    +0.000 A 
ATOM     25  CD1 PHE A   2       2.351   6.003  18.246  0.00  0.00    +0.000 A 
ATOM     26  CE1 PHE A   2       2.224   7.335  18.641  0.00  0.00    +0.000 A 
ATOM     27  CZ  PHE A   2       1.953   7.652  19.970  0.00  0.00    +0.000 A 
ATOM     28  CE2 PHE A   2       1.712   6.631  20.882  0.00  0.00    +0.000 A 
ATOM     29  CD2 PHE A   2       1.813   5.303  20.472  0.00  0.00    +0.000 A 
ENDBRANCH  23  24
ENDBRANCH  18  23
ENDBRANCH   3  18
TORSDOF 12
ENDMDL
MODEL 9
REMARK VINA RESULT:      -7.3      2.263      7.621
REMARK  Name = 
REMARK  15 active torsions:
REMARK  status: ('A' for Active; 'I' for Inactive)
REMARK    1  A    between atoms: C_1  and  C_2
REMARK    2  A    between atoms: C_2  and  C_3
REMARK    3  A    between atoms: C_3  and  C_4
REMARK    4  A    between atoms: C_4  and  C_5
REMARK    5  A    between atoms: C_5  and  C_6
REMARK    6  A    between atoms: N_8  and  CA_9
REMARK    7  A    between atoms: CA_9  and  C_10
REMARK    8  A    between atoms: CA_9  and  CB_24
REMARK    9  A    between atoms: N_12  and  CA_13
REMARK   10  A    between atoms: CA_13  and  CB_14
REMARK   11  A    between atoms: CA_13  and  C_21
REMARK   12  A    between atoms: CB_14  and  CG_15
REMARK   13  A    between atoms: C_21  and  OXT_23
REMARK   14  A    between atoms: CB_24  and  CG1_25
REMARK   15  A    between atoms: CB_24  and  CG2_26
REMARK                            x       y       z     vdW  Elec       q    Type
REMARK                         _______ _______ _______ _____ _____    ______ ____
ROOT
ATOM      1  C   VAL A   1       4.743   4.845  18.818  0.00  0.00    +0.000 C 
ATOM      2  O   VAL A   1       5.244   3.812  19.264  0.00  0.00    +0.000 OA
ATOM      3  N   PHE A   2       5.498   5.726  18.081  0.00  0.00    +0.000 N 
ATOM      4  H   PHE A   2       5.228   6.702  18.124  0.00  0.00    +0.000 HD
ENDROOT
BRANCH   1   5
ATOM      5  CA  VAL A   1       3.291   5.290  19.204  0.00  0.00    +0.000 C 
BRANCH   5   8
ATOM      6  C   UNK A   0       2.370   7.557  18.870  0.00  0.00    +0.000 C 
ATOM      7  O   UNK A   0       2.151   7.726  20.061  0.00  0.00    +0.000 OA
ATOM      8  N   VAL A   1       2.876   6.401  18.343  0.00  0.00    +0.000 N 
ATOM      9  H   VAL A   1       3.253   6.423  17.394  0.00  0.00    +0.000 HD
BRANCH   6  10
ATOM     10  C   UNK A   0       2.037   8.604  17.816  0.00  0.00    +0.000 C 
BRANCH  10  11
ATOM     11  C   UNK A   0       0.885   9.500  18.252  0.00  0.00    +0.000 C 
BRANCH  11  12
ATOM     12  C   UNK A   0       1.364  10.894  18.652  0.00  0.00    +0.000 C 
BRANCH  12  14
ATOM     13  C   UNK A   0      -0.660  10.686  20.144  0.00  0.00    +0.000 C 
ATOM     14  C   UNK A   0       0.275  11.641  19.424  0.00  0.00    +0.000 C 
ENDBRANCH  12  14
ENDBRANCH  11  12
ENDBRANCH  10  11
ENDBRANCH   6  10
ENDBRANCH   5   8
BRANCH   5  15
ATOM     15  CB  VAL A   1       2.175   4.206  19.298  0.00  0.00    +0.000 C 
ATOM     16  CG1 VAL A   1       1.203   4.366  20.470  0.00  0.00    +0.000 C 
ATOM     17  CG2 VAL A   1       1.426   4.043  17.985  0.00  0.00    +0.000 C 
ENDBRANCH   5  15
ENDBRANCH   1   5
BRANCH   3  18
ATOM     18  CA  PHE A   2       6.910   5.506  17.702  0.00  0.00    +0.000 C 
BRANCH  18  19
ATOM     19  C   PHE A   2       7.747   6.108  18.850  0.00  0.00    +0.000 C 
ATOM     20  O   PHE A   2       8.295   7.203  18.757  0.00  0.00    +0.000 OA
BRANCH  19  21
ATOM     21  OXT PHE A   2       7.782   5.411  20.006  0.00  0.00    +0.000 OA
ATOM     22  HXT PHE A   2       8.552   4.831  20.130  0.00  0.00    +0.000 HD
ENDBRANCH  19  21
ENDBRANCH  18  19
BRANCH  18  23
ATOM     23  CB  PHE A   2       7.265   6.053  16.292  0.00  0.00    +0.000 C 
BRANCH  23  24
ATOM     24  CG  PHE A   2       6.964   5.064  15.187  0.00  0.00    +0.000 A 
ATOM     25  CD1 PHE A   2       7.624   5.085  13.954  0.00  0.00    +0.000 A 
ATOM     26  CE1 PHE A   2       7.092   4.402  12.860  0.00  0.00    +0.000 A 
ATOM     27  CZ  PHE A   2       5.918   3.665  12.994  0.00  0.00    +0.000 A 
ATOM     28  CE2 PHE A   2       5.333   3.531  14.248  0.00  0.00    +0.000 A 
ATOM     29  CD2 PHE A   2       5.888   4.193  15.342  0.00  0.00    +0.000 A 
ENDBRANCH  23  24
ENDBRANCH  18  23
ENDBRANCH   3  18
TORSDOF 12
ENDMDL
