MODEL 1
REMARK VINA RESULT:      -8.6      0.000      0.000
REMARK  Name = 
REMARK  5 active torsions:
REMARK  status: ('A' for Active; 'I' for Inactive)
REMARK    1  A    between atoms: C_1  and  C_2
REMARK    2  A    between atoms: C_4  and  C_5
REMARK    3  A    between atoms: C_8  and  C_9
REMARK    4  A    between atoms: C_11  and  C_12
REMARK    5  A    between atoms: C_16  and  C_18
REMARK                            x       y       z     vdW  Elec       q    Type
REMARK                         _______ _______ _______ _____ _____    ______ ____
ROOT
ATOM      1  C   UNL     1      -0.079  11.936  18.882  0.00  0.00    +0.000 C 
ATOM      2  C   UNL     1       0.895  10.929  18.238  0.00  0.00    +0.000 C 
ATOM      3  C   UNL     1       0.880   9.608  18.924  0.00  0.00    +0.000 C 
ATOM      4  N   UNL     1       0.946   9.637  20.377  0.00  0.00    +0.000 N 
ATOM      5  C   UNL     1       1.425   8.510  21.084  0.00  0.00    +0.000 C 
ATOM      6  O   UNL     1       1.544   8.464  22.283  0.00  0.00    +0.000 OA
ATOM      7  C   UNL     1       0.222  10.704  21.095  0.00  0.00    +0.000 C 
ATOM      8  C   UNL     1       0.292  12.035  20.367  0.00  0.00    +0.000 C 
ENDROOT
BRANCH   5   9
ATOM      9  C   UNL     1       1.799   7.303  20.290  0.00  0.00    +0.000 A 
ATOM     10  C   UNL     1       2.495   7.359  19.075  0.00  0.00    +0.000 A 
ATOM     11  C   UNL     1       2.776   6.241  18.333  0.00  0.00    +0.000 A 
ATOM     12  C   UNL     1       2.308   4.998  18.733  0.00  0.00    +0.000 A 
ATOM     13  N   UNL     1       2.522   3.965  17.947  0.00  0.00    +0.000 NA
ATOM     14  C   UNL     1       2.044   2.769  18.355  0.00  0.00    +0.000 A 
ATOM     15  C   UNL     1       1.350   2.576  19.536  0.00  0.00    +0.000 A 
ATOM     16  C   UNL     1       1.126   3.678  20.345  0.00  0.00    +0.000 A 
ATOM     17  C   UNL     1       1.593   4.931  19.953  0.00  0.00    +0.000 A 
ATOM     18  C   UNL     1       1.362   6.071  20.722  0.00  0.00    +0.000 A 
ENDBRANCH   5   9
BRANCH   1  25
ATOM     19  C   UNL     1      -2.692  12.226  19.239  0.00  0.00    +0.000 A 
ATOM     20  C   UNL     1      -3.916  11.891  18.651  0.00  0.00    +0.000 A 
ATOM     21  N   UNL     1      -4.094  11.144  17.556  0.00  0.00    +0.000 NA
ATOM     22  C   UNL     1      -2.974  10.692  16.988  0.00  0.00    +0.000 A 
ATOM     23  C   UNL     1      -3.097   9.781  15.818  0.00  0.00    +0.000 C 
ATOM     24  N   UNL     1      -1.737  10.979  17.432  0.00  0.00    +0.000 NA
ATOM     25  C   UNL     1      -1.563  11.729  18.543  0.00  0.00    +0.000 A 
BRANCH  19  29
ATOM     26  C   UNL     1      -2.632  13.816  24.022  0.00  0.00    +0.000 C 
ATOM     27  C   UNL     1      -2.795  13.749  22.549  0.00  0.00    +0.000 A 
ATOM     28  C   UNL     1      -3.198  12.649  21.769  0.00  0.00    +0.000 A 
ATOM     29  C   UNL     1      -2.802  12.981  20.476  0.00  0.00    +0.000 A 
ATOM     30  O   UNL     1      -2.454  14.293  20.469  0.00  0.00    +0.000 OA
ATOM     31  N   UNL     1      -2.441  14.779  21.768  0.00  0.00    +0.000 NA
ENDBRANCH  19  29
ENDBRANCH   1  25
TORSDOF 3
ENDMDL
MODEL 2
REMARK VINA RESULT:      -8.2      0.746      1.646
REMARK  Name = 
REMARK  5 active torsions:
REMARK  status: ('A' for Active; 'I' for Inactive)
REMARK    1  A    between atoms: C_1  and  C_2
REMARK    2  A    between atoms: C_4  and  C_5
REMARK    3  A    between atoms: C_8  and  C_9
REMARK    4  A    between atoms: C_11  and  C_12
REMARK    5  A    between atoms: C_16  and  C_18
REMARK                            x       y       z     vdW  Elec       q    Type
REMARK                         _______ _______ _______ _____ _____    ______ ____
ROOT
ATOM      1  C   UNL     1      -0.184  11.939  18.894  0.00  0.00    +0.000 C 
ATOM      2  C   UNL     1       0.840  10.966  18.275  0.00  0.00    +0.000 C 
ATOM      3  C   UNL     1       0.836   9.637  18.946  0.00  0.00    +0.000 C 
ATOM      4  N   UNL     1       0.848   9.650  20.400  0.00  0.00    +0.000 N 
ATOM      5  C   UNL     1       1.332   8.529  21.112  0.00  0.00    +0.000 C 
ATOM      6  O   UNL     1       1.408   8.471  22.315  0.00  0.00    +0.000 OA
ATOM      7  C   UNL     1       0.070  10.689  21.103  0.00  0.00    +0.000 C 
ATOM      8  C   UNL     1       0.131  12.030  20.392  0.00  0.00    +0.000 C 
ENDROOT
BRANCH   5   9
ATOM      9  C   UNL     1       1.767   7.341  20.319  0.00  0.00    +0.000 A 
ATOM     10  C   UNL     1       1.435   6.022  20.654  0.00  0.00    +0.000 A 
ATOM     11  C   UNL     1       1.895   4.942  19.945  0.00  0.00    +0.000 A 
ATOM     12  C   UNL     1       2.782   5.120  18.893  0.00  0.00    +0.000 A 
ATOM     13  N   UNL     1       3.269   4.053  18.297  0.00  0.00    +0.000 NA
ATOM     14  C   UNL     1       4.141   4.256  17.285  0.00  0.00    +0.000 A 
ATOM     15  C   UNL     1       4.544   5.506  16.850  0.00  0.00    +0.000 A 
ATOM     16  C   UNL     1       4.026   6.617  17.497  0.00  0.00    +0.000 A 
ATOM     17  C   UNL     1       3.134   6.449  18.554  0.00  0.00    +0.000 A 
ATOM     18  C   UNL     1       2.615   7.538  19.252  0.00  0.00    +0.000 A 
ENDBRANCH   5   9
BRANCH   1  25
ATOM     19  C   UNL     1      -2.815  12.143  19.166  0.00  0.00    +0.000 A 
ATOM     20  C   UNL     1      -4.007  11.786  18.528  0.00  0.00    +0.000 A 
ATOM     21  N   UNL     1      -4.125  11.061  17.411  0.00  0.00    +0.000 NA
ATOM     22  C   UNL     1      -2.973  10.655  16.872  0.00  0.00    +0.000 A 
ATOM     23  C   UNL     1      -3.028   9.769  15.678  0.00  0.00    +0.000 C 
ATOM     24  N   UNL     1      -1.761  10.968  17.366  0.00  0.00    +0.000 NA
ATOM     25  C   UNL     1      -1.648  11.697  18.499  0.00  0.00    +0.000 A 
BRANCH  19  29
ATOM     26  C   UNL     1      -3.182  13.554  23.992  0.00  0.00    +0.000 C 
ATOM     27  C   UNL     1      -3.158  13.557  22.508  0.00  0.00    +0.000 A 
ATOM     28  C   UNL     1      -3.589  12.545  21.631  0.00  0.00    +0.000 A 
ATOM     29  C   UNL     1      -2.991  12.866  20.416  0.00  0.00    +0.000 A 
ATOM     30  O   UNL     1      -2.483  14.121  20.517  0.00  0.00    +0.000 OA
ATOM     31  N   UNL     1      -2.580  14.557  21.829  0.00  0.00    +0.000 NA
ENDBRANCH  19  29
ENDBRANCH   1  25
TORSDOF 3
ENDMDL
MODEL 3
REMARK VINA RESULT:      -8.1      1.692      1.931
REMARK  Name = 
REMARK  5 active torsions:
REMARK  status: ('A' for Active; 'I' for Inactive)
REMARK    1  A    between atoms: C_1  and  C_2
REMARK    2  A    between atoms: C_4  and  C_5
REMARK    3  A    between atoms: C_8  and  C_9
REMARK    4  A    between atoms: C_11  and  C_12
REMARK    5  A    between atoms: C_16  and  C_18
REMARK                            x       y       z     vdW  Elec       q    Type
REMARK                         _______ _______ _______ _____ _____    ______ ____
ROOT
ATOM      1  C   UNL     1      -1.431  12.751  19.895  0.00  0.00    +0.000 C 
ATOM      2  C   UNL     1      -0.213  12.142  19.172  0.00  0.00    +0.000 C 
ATOM      3  C   UNL     1       0.039  10.732  19.575  0.00  0.00    +0.000 C 
ATOM      4  N   UNL     1       0.009  10.455  21.002  0.00  0.00    +0.000 N 
ATOM      5  C   UNL     1       0.695   9.331  21.517  0.00  0.00    +0.000 C 
ATOM      6  O   UNL     1       0.749   9.049  22.689  0.00  0.00    +0.000 OA
ATOM      7  C   UNL     1      -0.985  11.158  21.837  0.00  0.00    +0.000 C 
ATOM      8  C   UNL     1      -1.182  12.600  21.401  0.00  0.00    +0.000 C 
ENDROOT
BRANCH   5   9
ATOM      9  C   UNL     1       1.386   8.435  20.543  0.00  0.00    +0.000 A 
ATOM     10  C   UNL     1       1.751   8.833  19.251  0.00  0.00    +0.000 A 
ATOM     11  C   UNL     1       2.332   7.975  18.351  0.00  0.00    +0.000 A 
ATOM     12  C   UNL     1       2.515   6.639  18.674  0.00  0.00    +0.000 A 
ATOM     13  N   UNL     1       2.993   5.831  17.752  0.00  0.00    +0.000 NA
ATOM     14  C   UNL     1       3.148   4.532  18.090  0.00  0.00    +0.000 A 
ATOM     15  C   UNL     1       2.835   4.014  19.334  0.00  0.00    +0.000 A 
ATOM     16  C   UNL     1       2.324   4.879  20.288  0.00  0.00    +0.000 A 
ATOM     17  C   UNL     1       2.138   6.224  19.975  0.00  0.00    +0.000 A 
ATOM     18  C   UNL     1       1.598   7.121  20.894  0.00  0.00    +0.000 A 
ENDBRANCH   5   9
BRANCH   1  25
ATOM     19  C   UNL     1      -4.070  12.482  19.975  0.00  0.00    +0.000 A 
ATOM     20  C   UNL     1      -5.139  11.999  19.215  0.00  0.00    +0.000 A 
ATOM     21  N   UNL     1      -5.059  11.386  18.029  0.00  0.00    +0.000 NA
ATOM     22  C   UNL     1      -3.822  11.238  17.548  0.00  0.00    +0.000 A 
ATOM     23  C   UNL     1      -3.647  10.485  16.277  0.00  0.00    +0.000 C 
ATOM     24  N   UNL     1      -2.717  11.695  18.163  0.00  0.00    +0.000 NA
ATOM     25  C   UNL     1      -2.803  12.309  19.364  0.00  0.00    +0.000 A 
BRANCH  19  29
ATOM     26  C   UNL     1      -5.887  15.257  23.771  0.00  0.00    +0.000 C 
ATOM     27  C   UNL     1      -5.222  14.191  22.981  0.00  0.00    +0.000 A 
ATOM     28  C   UNL     1      -4.499  14.323  21.781  0.00  0.00    +0.000 A 
ATOM     29  C   UNL     1      -4.446  13.030  21.268  0.00  0.00    +0.000 A 
ATOM     30  O   UNL     1      -4.862  12.177  22.239  0.00  0.00    +0.000 OA
ATOM     31  N   UNL     1      -5.355  12.900  23.314  0.00  0.00    +0.000 NA
ENDBRANCH  19  29
ENDBRANCH   1  25
TORSDOF 3
ENDMDL
MODEL 4
REMARK VINA RESULT:      -7.9      2.230      3.873
REMARK  Name = 
REMARK  5 active torsions:
REMARK  status: ('A' for Active; 'I' for Inactive)
REMARK    1  A    between atoms: C_1  and  C_2
REMARK    2  A    between atoms: C_4  and  C_5
REMARK    3  A    between atoms: C_8  and  C_9
REMARK    4  A    between atoms: C_11  and  C_12
REMARK    5  A    between atoms: C_16  and  C_18
REMARK                            x       y       z     vdW  Elec       q    Type
REMARK                         _______ _______ _______ _____ _____    ______ ____
ROOT
ATOM      1  C   UNL     1      -2.003  12.244  18.979  0.00  0.00    +0.000 C 
ATOM      2  C   UNL     1      -1.968  10.703  18.964  0.00  0.00    +0.000 C 
ATOM      3  C   UNL     1      -0.606  10.164  19.222  0.00  0.00    +0.000 C 
ATOM      4  N   UNL     1       0.482  10.780  18.478  0.00  0.00    +0.000 N 
ATOM      5  C   UNL     1       1.682  10.065  18.262  0.00  0.00    +0.000 C 
ATOM      6  O   UNL     1       2.618  10.487  17.628  0.00  0.00    +0.000 OA
ATOM      7  C   UNL     1       0.439  12.236  18.240  0.00  0.00    +0.000 C 
ATOM      8  C   UNL     1      -0.970  12.728  17.954  0.00  0.00    +0.000 C 
ENDROOT
BRANCH   5   9
ATOM      9  C   UNL     1       1.796   8.704  18.866  0.00  0.00    +0.000 A 
ATOM     10  C   UNL     1       1.562   8.436  20.221  0.00  0.00    +0.000 A 
ATOM     11  C   UNL     1       1.730   7.189  20.767  0.00  0.00    +0.000 A 
ATOM     12  C   UNL     1       2.217   6.145  19.993  0.00  0.00    +0.000 A 
ATOM     13  N   UNL     1       2.449   4.989  20.576  0.00  0.00    +0.000 NA
ATOM     14  C   UNL     1       2.934   3.994  19.802  0.00  0.00    +0.000 A 
ATOM     15  C   UNL     1       3.199   4.125  18.450  0.00  0.00    +0.000 A 
ATOM     16  C   UNL     1       2.957   5.353  17.857  0.00  0.00    +0.000 A 
ATOM     17  C   UNL     1       2.468   6.409  18.624  0.00  0.00    +0.000 A 
ATOM     18  C   UNL     1       2.240   7.669  18.074  0.00  0.00    +0.000 A 
ENDBRANCH   5   9
BRANCH   1  25
ATOM     19  C   UNL     1      -3.026  13.022  21.301  0.00  0.00    +0.000 A 
ATOM     20  C   UNL     1      -2.658  13.631  22.504  0.00  0.00    +0.000 A 
ATOM     21  N   UNL     1      -1.449  14.110  22.816  0.00  0.00    +0.000 NA
ATOM     22  C   UNL     1      -0.521  13.974  21.865  0.00  0.00    +0.000 A 
ATOM     23  C   UNL     1       0.824  14.562  22.106  0.00  0.00    +0.000 C 
ATOM     24  N   UNL     1      -0.739  13.369  20.684  0.00  0.00    +0.000 NA
ATOM     25  C   UNL     1      -1.964  12.892  20.372  0.00  0.00    +0.000 A 
BRANCH  19  29
ATOM     26  C   UNL     1      -7.527  11.151  20.014  0.00  0.00    +0.000 C 
ATOM     27  C   UNL     1      -6.437  11.885  20.705  0.00  0.00    +0.000 A 
ATOM     28  C   UNL     1      -5.307  12.499  20.135  0.00  0.00    +0.000 A 
ATOM     29  C   UNL     1      -4.435  12.673  21.205  0.00  0.00    +0.000 A 
ATOM     30  O   UNL     1      -5.123  12.435  22.350  0.00  0.00    +0.000 OA
ATOM     31  N   UNL     1      -6.379  11.934  22.043  0.00  0.00    +0.000 NA
ENDBRANCH  19  29
ENDBRANCH   1  25
TORSDOF 3
ENDMDL
MODEL 5
REMARK VINA RESULT:      -7.9      2.112      4.433
REMARK  Name = 
REMARK  5 active torsions:
REMARK  status: ('A' for Active; 'I' for Inactive)
REMARK    1  A    between atoms: C_1  and  C_2
REMARK    2  A    between atoms: C_4  and  C_5
REMARK    3  A    between atoms: C_8  and  C_9
REMARK    4  A    between atoms: C_11  and  C_12
REMARK    5  A    between atoms: C_16  and  C_18
REMARK                            x       y       z     vdW  Elec       q    Type
REMARK                         _______ _______ _______ _____ _____    ______ ____
ROOT
ATOM      1  C   UNL     1      -3.244  13.117  20.006  0.00  0.00    +0.000 C 
ATOM      2  C   UNL     1      -2.015  12.653  19.199  0.00  0.00    +0.000 C 
ATOM      3  C   UNL     1      -1.368  11.451  19.792  0.00  0.00    +0.000 C 
ATOM      4  N   UNL     1      -1.145  11.483  21.229  0.00  0.00    +0.000 N 
ATOM      5  C   UNL     1      -0.139  10.673  21.805  0.00  0.00    +0.000 C 
ATOM      6  O   UNL     1       0.133  10.664  22.980  0.00  0.00    +0.000 OA
ATOM      7  C   UNL     1      -2.168  12.109  22.088  0.00  0.00    +0.000 C 
ATOM      8  C   UNL     1      -2.775  13.346  21.449  0.00  0.00    +0.000 C 
ENDROOT
BRANCH   5   9
ATOM      9  C   UNL     1       0.624   9.767  20.896  0.00  0.00    +0.000 A 
ATOM     10  C   UNL     1       1.008  10.118  19.596  0.00  0.00    +0.000 A 
ATOM     11  C   UNL     1       1.658   9.248  18.757  0.00  0.00    +0.000 A 
ATOM     12  C   UNL     1       1.896   7.940  19.152  0.00  0.00    +0.000 A 
ATOM     13  N   UNL     1       2.441   7.114  18.286  0.00  0.00    +0.000 NA
ATOM     14  C   UNL     1       2.650   5.842  18.694  0.00  0.00    +0.000 A 
ATOM     15  C   UNL     1       2.326   5.371  19.953  0.00  0.00    +0.000 A 
ATOM     16  C   UNL     1       1.745   6.255  20.848  0.00  0.00    +0.000 A 
ATOM     17  C   UNL     1       1.501   7.571  20.461  0.00  0.00    +0.000 A 
ATOM     18  C   UNL     1       0.890   8.484  21.319  0.00  0.00    +0.000 A 
ENDBRANCH   5   9
BRANCH   1  25
ATOM     19  C   UNL     1      -4.851  11.448  18.712  0.00  0.00    +0.000 A 
ATOM     20  C   UNL     1      -6.076  10.788  18.850  0.00  0.00    +0.000 A 
ATOM     21  N   UNL     1      -6.931  10.905  19.870  0.00  0.00    +0.000 NA
ATOM     22  C   UNL     1      -6.549  11.738  20.841  0.00  0.00    +0.000 A 
ATOM     23  C   UNL     1      -7.490  11.988  21.966  0.00  0.00    +0.000 C 
ATOM     24  N   UNL     1      -5.376  12.398  20.845  0.00  0.00    +0.000 NA
ATOM     25  C   UNL     1      -4.518  12.281  19.808  0.00  0.00    +0.000 A 
BRANCH  19  29
ATOM     26  C   UNL     1      -2.775   9.407  14.596  0.00  0.00    +0.000 C 
ATOM     27  C   UNL     1      -3.242  10.371  15.624  0.00  0.00    +0.000 A 
ATOM     28  C   UNL     1      -3.308  10.189  17.018  0.00  0.00    +0.000 A 
ATOM     29  C   UNL     1      -4.166  11.195  17.455  0.00  0.00    +0.000 A 
ATOM     30  O   UNL     1      -4.355  12.061  16.426  0.00  0.00    +0.000 OA
ATOM     31  N   UNL     1      -3.782  11.546  15.273  0.00  0.00    +0.000 NA
ENDBRANCH  19  29
ENDBRANCH   1  25
TORSDOF 3
ENDMDL
MODEL 6
REMARK VINA RESULT:      -7.9      4.234     10.224
REMARK  Name = 
REMARK  5 active torsions:
REMARK  status: ('A' for Active; 'I' for Inactive)
REMARK    1  A    between atoms: C_1  and  C_2
REMARK    2  A    between atoms: C_4  and  C_5
REMARK    3  A    between atoms: C_8  and  C_9
REMARK    4  A    between atoms: C_11  and  C_12
REMARK    5  A    between atoms: C_16  and  C_18
REMARK                            x       y       z     vdW  Elec       q    Type
REMARK                         _______ _______ _______ _____ _____    ______ ____
ROOT
ATOM      1  C   UNL     1       3.992   3.722  16.984  0.00  0.00    +0.000 C 
ATOM      2  C   UNL     1       2.873   4.780  16.901  0.00  0.00    +0.000 C 
ATOM      3  C   UNL     1       2.776   5.600  18.139  0.00  0.00    +0.000 C 
ATOM      4  N   UNL     1       2.798   4.871  19.398  0.00  0.00    +0.000 N 
ATOM      5  C   UNL     1       2.234   5.449  20.558  0.00  0.00    +0.000 C 
ATOM      6  O   UNL     1       2.181   4.900  21.631  0.00  0.00    +0.000 OA
ATOM      7  C   UNL     1       3.681   3.694  19.516  0.00  0.00    +0.000 C 
ATOM      8  C   UNL     1       3.721   2.877  18.235  0.00  0.00    +0.000 C 
ENDROOT
BRANCH   5   9
ATOM      9  C   UNL     1       1.679   6.830  20.443  0.00  0.00    +0.000 A 
ATOM     10  C   UNL     1       1.988   7.704  19.393  0.00  0.00    +0.000 A 
ATOM     11  C   UNL     1       1.513   8.990  19.339  0.00  0.00    +0.000 A 
ATOM     12  C   UNL     1       0.752   9.501  20.380  0.00  0.00    +0.000 A 
ATOM     13  N   UNL     1       0.392  10.766  20.331  0.00  0.00    +0.000 NA
ATOM     14  C   UNL     1      -0.337  11.240  21.365  0.00  0.00    +0.000 A 
ATOM     15  C   UNL     1      -0.717  10.479  22.457  0.00  0.00    +0.000 A 
ATOM     16  C   UNL     1      -0.319   9.153  22.494  0.00  0.00    +0.000 A 
ATOM     17  C   UNL     1       0.444   8.629  21.453  0.00  0.00    +0.000 A 
ATOM     18  C   UNL     1       0.891   7.309  21.466  0.00  0.00    +0.000 A 
ENDBRANCH   5   9
BRANCH   1  25
ATOM     19  C   UNL     1       6.172   4.321  15.594  0.00  0.00    +0.000 A 
ATOM     20  C   UNL     1       7.436   4.898  15.747  0.00  0.00    +0.000 A 
ATOM     21  N   UNL     1       7.978   5.337  16.888  0.00  0.00    +0.000 NA
ATOM     22  C   UNL     1       7.209   5.201  17.971  0.00  0.00    +0.000 A 
ATOM     23  C   UNL     1       7.779   5.586  19.291  0.00  0.00    +0.000 C 
ATOM     24  N   UNL     1       5.960   4.702  17.949  0.00  0.00    +0.000 NA
ATOM     25  C   UNL     1       5.420   4.255  16.794  0.00  0.00    +0.000 A 
BRANCH  19  29
ATOM     26  C   UNL     1       4.125   3.364  11.088  0.00  0.00    +0.000 C 
ATOM     27  C   UNL     1       5.045   3.403  12.252  0.00  0.00    +0.000 A 
ATOM     28  C   UNL     1       4.714   3.421  13.620  0.00  0.00    +0.000 A 
ATOM     29  C   UNL     1       5.877   3.857  14.248  0.00  0.00    +0.000 A 
ATOM     30  O   UNL     1       6.884   3.822  13.339  0.00  0.00    +0.000 OA
ATOM     31  N   UNL     1       6.367   3.544  12.083  0.00  0.00    +0.000 NA
ENDBRANCH  19  29
ENDBRANCH   1  25
TORSDOF 3
ENDMDL
MODEL 7
REMARK VINA RESULT:      -7.8      1.452      2.206
REMARK  Name = 
REMARK  5 active torsions:
REMARK  status: ('A' for Active; 'I' for Inactive)
REMARK    1  A    between atoms: C_1  and  C_2
REMARK    2  A    between atoms: C_4  and  C_5
REMARK    3  A    between atoms: C_8  and  C_9
REMARK    4  A    between atoms: C_11  and  C_12
REMARK    5  A    between atoms: C_16  and  C_18
REMARK                            x       y       z     vdW  Elec       q    Type
REMARK                         _______ _______ _______ _____ _____    ______ ____
ROOT
ATOM      1  C   UNL     1       0.312  11.540  19.117  0.00  0.00    +0.000 C 
ATOM      2  C   UNL     1       1.349  10.741  18.304  0.00  0.00    +0.000 C 
ATOM      3  C   UNL     1       1.335   9.290  18.637  0.00  0.00    +0.000 C 
ATOM      4  N   UNL     1       1.318   8.955  20.053  0.00  0.00    +0.000 N 
ATOM      5  C   UNL     1       1.791   7.695  20.485  0.00  0.00    +0.000 C 
ATOM      6  O   UNL     1       1.843   7.351  21.640  0.00  0.00    +0.000 OA
ATOM      7  C   UNL     1       0.525   9.798  20.968  0.00  0.00    +0.000 C 
ATOM      8  C   UNL     1       0.597  11.270  20.600  0.00  0.00    +0.000 C 
ENDROOT
BRANCH   5   9
ATOM      9  C   UNL     1       2.243   6.730  19.440  0.00  0.00    +0.000 A 
ATOM     10  C   UNL     1       1.747   5.425  19.324  0.00  0.00    +0.000 A 
ATOM     11  C   UNL     1       2.220   4.535  18.393  0.00  0.00    +0.000 A 
ATOM     12  C   UNL     1       3.278   4.883  17.565  0.00  0.00    +0.000 A 
ATOM     13  N   UNL     1       3.761   3.971  16.749  0.00  0.00    +0.000 NA
ATOM     14  C   UNL     1       4.799   4.333  15.964  0.00  0.00    +0.000 A 
ATOM     15  C   UNL     1       5.374   5.591  15.974  0.00  0.00    +0.000 A 
ATOM     16  C   UNL     1       4.858   6.534  16.847  0.00  0.00    +0.000 A 
ATOM     17  C   UNL     1       3.795   6.196  17.683  0.00  0.00    +0.000 A 
ATOM     18  C   UNL     1       3.266   7.105  18.598  0.00  0.00    +0.000 A 
ENDBRANCH   5   9
BRANCH   1  25
ATOM     19  C   UNL     1      -2.307  11.947  19.246  0.00  0.00    +0.000 A 
ATOM     20  C   UNL     1      -3.488  11.672  18.550  0.00  0.00    +0.000 A 
ATOM     21  N   UNL     1      -3.603  10.940  17.437  0.00  0.00    +0.000 NA
ATOM     22  C   UNL     1      -2.458  10.440  16.965  0.00  0.00    +0.000 A 
ATOM     23  C   UNL     1      -2.519   9.543  15.780  0.00  0.00    +0.000 C 
ATOM     24  N   UNL     1      -1.254  10.668  17.519  0.00  0.00    +0.000 NA
ATOM     25  C   UNL     1      -1.144  11.404  18.647  0.00  0.00    +0.000 A 
BRANCH  19  29
ATOM     26  C   UNL     1      -3.758  15.179  22.833  0.00  0.00    +0.000 C 
ATOM     27  C   UNL     1      -3.086  14.078  22.099  0.00  0.00    +0.000 A 
ATOM     28  C   UNL     1      -2.683  14.052  20.751  0.00  0.00    +0.000 A 
ATOM     29  C   UNL     1      -2.492  12.701  20.476  0.00  0.00    +0.000 A 
ATOM     30  O   UNL     1      -2.511  12.026  21.654  0.00  0.00    +0.000 OA
ATOM     31  N   UNL     1      -2.890  12.884  22.675  0.00  0.00    +0.000 NA
ENDBRANCH  19  29
ENDBRANCH   1  25
TORSDOF 3
ENDMDL
MODEL 8
REMARK VINA RESULT:      -7.7      2.918      4.865
REMARK  Name = 
REMARK  5 active torsions:
REMARK  status: ('A' for Active; 'I' for Inactive)
REMARK    1  A    between atoms: C_1  and  C_2
REMARK    2  A    between atoms: C_4  and  C_5
REMARK    3  A    between atoms: C_8  and  C_9
REMARK    4  A    between atoms: C_11  and  C_12
REMARK    5  A    between atoms: C_16  and  C_18
REMARK                            x       y       z     vdW  Elec       q    Type
REMARK                         _______ _______ _______ _____ _____    ______ ____
ROOT
ATOM      1  C   UNL     1      -4.797  13.227  19.829  0.00  0.00    +0.000 C 
ATOM      2  C   UNL     1      -3.756  12.357  19.096  0.00  0.00    +0.000 C 
ATOM      3  C   UNL     1      -2.780  11.733  20.030  0.00  0.00    +0.000 C 
ATOM      4  N   UNL     1      -2.203  12.609  21.038  0.00  0.00    +0.000 N 
ATOM      5  C   UNL     1      -0.959  12.285  21.626  0.00  0.00    +0.000 C 
ATOM      6  O   UNL     1      -0.396  12.972  22.442  0.00  0.00    +0.000 OA
ATOM      7  C   UNL     1      -3.063  13.638  21.655  0.00  0.00    +0.000 C 
ATOM      8  C   UNL     1      -4.020  14.261  20.652  0.00  0.00    +0.000 C 
ENDROOT
BRANCH   5   9
ATOM      9  C   UNL     1      -0.310  11.006  21.211  0.00  0.00    +0.000 A 
ATOM     10  C   UNL     1      -0.135   9.913  22.070  0.00  0.00    +0.000 A 
ATOM     11  C   UNL     1       0.518   8.769  21.685  0.00  0.00    +0.000 A 
ATOM     12  C   UNL     1       1.101   8.684  20.429  0.00  0.00    +0.000 A 
ATOM     13  N   UNL     1       1.794   7.605  20.133  0.00  0.00    +0.000 NA
ATOM     14  C   UNL     1       2.361   7.554  18.907  0.00  0.00    +0.000 A 
ATOM     15  C   UNL     1       2.256   8.561  17.964  0.00  0.00    +0.000 A 
ATOM     16  C   UNL     1       1.530   9.692  18.299  0.00  0.00    +0.000 A 
ATOM     17  C   UNL     1       0.940   9.788  19.558  0.00  0.00    +0.000 A 
ATOM     18  C   UNL     1       0.227  10.921  19.947  0.00  0.00    +0.000 A 
ENDBRANCH   5   9
BRANCH   1  25
ATOM     19  C   UNL     1      -6.675  12.869  21.669  0.00  0.00    +0.000 A 
ATOM     20  C   UNL     1      -7.650  11.948  22.066  0.00  0.00    +0.000 A 
ATOM     21  N   UNL     1      -7.882  10.751  21.518  0.00  0.00    +0.000 NA
ATOM     22  C   UNL     1      -7.093  10.433  20.489  0.00  0.00    +0.000 A 
ATOM     23  C   UNL     1      -7.234   9.080  19.886  0.00  0.00    +0.000 C 
ATOM     24  N   UNL     1      -6.149  11.249  19.986  0.00  0.00    +0.000 NA
ATOM     25  C   UNL     1      -5.914  12.455  20.548  0.00  0.00    +0.000 A 
BRANCH  19  29
ATOM     26  C   UNL     1      -5.218  16.641  24.678  0.00  0.00    +0.000 C 
ATOM     27  C   UNL     1      -6.021  15.744  23.811  0.00  0.00    +0.000 A 
ATOM     28  C   UNL     1      -5.940  14.344  23.698  0.00  0.00    +0.000 A 
ATOM     29  C   UNL     1      -6.592  14.057  22.502  0.00  0.00    +0.000 A 
ATOM     30  O   UNL     1      -7.242  15.179  22.100  0.00  0.00    +0.000 OA
ATOM     31  N   UNL     1      -6.883  16.242  22.914  0.00  0.00    +0.000 NA
ENDBRANCH  19  29
ENDBRANCH   1  25
TORSDOF 3
ENDMDL
MODEL 9
REMARK VINA RESULT:      -7.7      2.155      2.961
REMARK  Name = 
REMARK  5 active torsions:
REMARK  status: ('A' for Active; 'I' for Inactive)
REMARK    1  A    between atoms: C_1  and  C_2
REMARK    2  A    between atoms: C_4  and  C_5
REMARK    3  A    between atoms: C_8  and  C_9
REMARK    4  A    between atoms: C_11  and  C_12
REMARK    5  A    between atoms: C_16  and  C_18
REMARK                            x       y       z     vdW  Elec       q    Type
REMARK                         _______ _______ _______ _____ _____    ______ ____
ROOT
ATOM      1  C   UNL     1      -0.023  10.616  21.906  0.00  0.00    +0.000 C 
ATOM      2  C   UNL     1       1.394  10.484  21.313  0.00  0.00    +0.000 C 
ATOM      3  C   UNL     1       1.534   9.286  20.441  0.00  0.00    +0.000 C 
ATOM      4  N   UNL     1       1.004   8.039  20.970  0.00  0.00    +0.000 N 
ATOM      5  C   UNL     1       1.498   6.804  20.493  0.00  0.00    +0.000 C 
ATOM      6  O   UNL     1       1.139   5.727  20.902  0.00  0.00    +0.000 OA
ATOM      7  C   UNL     1      -0.247   8.079  21.752  0.00  0.00    +0.000 C 
ATOM      8  C   UNL     1      -0.326   9.306  22.645  0.00  0.00    +0.000 C 
ENDROOT
BRANCH   5   9
ATOM      9  C   UNL     1       2.524   6.841  19.409  0.00  0.00    +0.000 A 
ATOM     10  C   UNL     1       2.440   7.681  18.292  0.00  0.00    +0.000 A 
ATOM     11  C   UNL     1       3.363   7.656  17.277  0.00  0.00    +0.000 A 
ATOM     12  C   UNL     1       4.394   6.727  17.291  0.00  0.00    +0.000 A 
ATOM     13  N   UNL     1       5.205   6.677  16.256  0.00  0.00    +0.000 NA
ATOM     14  C   UNL     1       6.192   5.755  16.291  0.00  0.00    +0.000 A 
ATOM     15  C   UNL     1       6.391   4.873  17.338  0.00  0.00    +0.000 A 
ATOM     16  C   UNL     1       5.520   4.936  18.414  0.00  0.00    +0.000 A 
ATOM     17  C   UNL     1       4.481   5.865  18.411  0.00  0.00    +0.000 A 
ATOM     18  C   UNL     1       3.565   5.941  19.458  0.00  0.00    +0.000 A 
ENDBRANCH   5   9
BRANCH   1  25
ATOM     19  C   UNL     1      -2.159  12.035  21.223  0.00  0.00    +0.000 A 
ATOM     20  C   UNL     1      -2.949  12.348  20.113  0.00  0.00    +0.000 A 
ATOM     21  N   UNL     1      -2.808  11.865  18.874  0.00  0.00    +0.000 NA
ATOM     22  C   UNL     1      -1.801  11.003  18.712  0.00  0.00    +0.000 A 
ATOM     23  C   UNL     1      -1.637  10.355  17.382  0.00  0.00    +0.000 C 
ATOM     24  N   UNL     1      -0.946  10.653  19.689  0.00  0.00    +0.000 NA
ATOM     25  C   UNL     1      -1.097  11.140  20.941  0.00  0.00    +0.000 A 
BRANCH  19  29
ATOM     26  C   UNL     1      -3.212  15.167  25.030  0.00  0.00    +0.000 C 
ATOM     27  C   UNL     1      -3.096  13.962  24.171  0.00  0.00    +0.000 A 
ATOM     28  C   UNL     1      -2.043  13.611  23.305  0.00  0.00    +0.000 A 
ATOM     29  C   UNL     1      -2.596  12.646  22.468  0.00  0.00    +0.000 A 
ATOM     30  O   UNL     1      -3.789  12.269  22.993  0.00  0.00    +0.000 OA
ATOM     31  N   UNL     1      -4.112  13.096  24.058  0.00  0.00    +0.000 NA
ENDBRANCH  19  29
ENDBRANCH   1  25
TORSDOF 3
ENDMDL
