MODEL 1
REMARK VINA RESULT:      -6.6      0.000      0.000
REMARK  Name = 
REMARK  7 active torsions:
REMARK  status: ('A' for Active; 'I' for Inactive)
REMARK    1  A    between atoms: C_2  and  C_3
REMARK    2  A    between atoms: C_3  and  N_4
REMARK    3  A    between atoms: C_6  and  C_7
REMARK    4  A    between atoms: C_9  and  C_10
REMARK    5  A    between atoms: C_12  and  C_13
REMARK    6  A    between atoms: C_13  and  C_14
REMARK    7  A    between atoms: C_14  and  C_15
REMARK                            x       y       z     vdW  Elec       q    Type
REMARK                         _______ _______ _______ _____ _____    ______ ____
ROOT
ATOM      1  N   UNL     1       4.339   4.963  17.055  0.00  0.00    +0.000 N 
ATOM      2  N   UNL     1       4.223   3.592  17.240  0.00  0.00    +0.000 NA
ATOM      3  C   UNL     1       3.500   3.140  18.217  0.00  0.00    +0.000 A 
ATOM      4  C   UNL     1       3.405   1.652  18.398  0.00  0.00    +0.000 C 
ATOM      5  C   UNL     1       2.829   4.045  19.095  0.00  0.00    +0.000 A 
ATOM      6  C   UNL     1       2.018   3.917  20.204  0.00  0.00    +0.000 A 
ATOM      7  C   UNL     1       1.513   2.733  20.936  0.00  0.00    +0.000 C 
ATOM      8  N   UNL     1       1.655   5.160  20.661  0.00  0.00    +0.000 NA
ATOM      9  C   UNL     1       2.223   6.040  19.858  0.00  0.00    +0.000 A 
ATOM     10  N   UNL     1       2.960   5.403  18.871  0.00  0.00    +0.000 N 
ATOM     11  C   UNL     1       3.720   5.949  17.829  0.00  0.00    +0.000 A 
ATOM     12  O   UNL     1       3.797   7.163  17.690  0.00  0.00    +0.000 OA
ENDROOT
BRANCH   1  13
ATOM     13  C   UNL     1       5.209   5.373  15.958  0.00  0.00    +0.000 C 
BRANCH  13  15
ATOM     14  C   UNL     1       6.131   3.954  14.101  0.00  0.00    +0.000 C 
ATOM     15  C   UNL     1       5.926   4.176  15.407  0.00  0.00    +0.000 C 
ENDBRANCH  13  15
ENDBRANCH   1  13
BRANCH   9  16
ATOM     16  C   UNL     1       2.074   7.523  20.017  0.00  0.00    +0.000 C 
BRANCH  16  17
ATOM     17  C   UNL     1       1.072   7.864  21.121  0.00  0.00    +0.000 C 
ATOM     18  C   UNL     1       1.119   9.339  21.493  0.00  0.00    +0.000 C 
ENDBRANCH  16  17
ENDBRANCH   9  16
TORSDOF 4
ENDMDL
MODEL 2
REMARK VINA RESULT:      -6.5      1.612      1.778
REMARK  Name = 
REMARK  7 active torsions:
REMARK  status: ('A' for Active; 'I' for Inactive)
REMARK    1  A    between atoms: C_2  and  C_3
REMARK    2  A    between atoms: C_3  and  N_4
REMARK    3  A    between atoms: C_6  and  C_7
REMARK    4  A    between atoms: C_9  and  C_10
REMARK    5  A    between atoms: C_12  and  C_13
REMARK    6  A    between atoms: C_13  and  C_14
REMARK    7  A    between atoms: C_14  and  C_15
REMARK                            x       y       z     vdW  Elec       q    Type
REMARK                         _______ _______ _______ _____ _____    ______ ____
ROOT
ATOM      1  N   UNL     1       5.116   4.383  16.335  0.00  0.00    +0.000 N 
ATOM      2  N   UNL     1       4.713   3.175  16.887  0.00  0.00    +0.000 NA
ATOM      3  C   UNL     1       3.799   3.168  17.807  0.00  0.00    +0.000 A 
ATOM      4  C   UNL     1       3.395   1.846  18.392  0.00  0.00    +0.000 C 
ATOM      5  C   UNL     1       3.212   4.392  18.247  0.00  0.00    +0.000 A 
ATOM      6  C   UNL     1       2.258   4.744  19.181  0.00  0.00    +0.000 A 
ATOM      7  C   UNL     1       1.445   3.941  20.122  0.00  0.00    +0.000 C 
ATOM      8  N   UNL     1       2.088   6.106  19.182  0.00  0.00    +0.000 NA
ATOM      9  C   UNL     1       2.913   6.593  18.274  0.00  0.00    +0.000 A 
ATOM     10  N   UNL     1       3.630   5.575  17.664  0.00  0.00    +0.000 N 
ATOM     11  C   UNL     1       4.607   5.644  16.663  0.00  0.00    +0.000 A 
ATOM     12  O   UNL     1       4.935   6.726  16.193  0.00  0.00    +0.000 OA
ENDROOT
BRANCH   1  13
ATOM     13  C   UNL     1       6.180   4.292  15.341  0.00  0.00    +0.000 C 
BRANCH  13  15
ATOM     14  C   UNL     1       6.244   3.601  12.927  0.00  0.00    +0.000 C 
ATOM     15  C   UNL     1       5.583   4.104  13.978  0.00  0.00    +0.000 C 
ENDBRANCH  13  15
ENDBRANCH   1  13
BRANCH   9  16
ATOM     16  C   UNL     1       3.035   8.054  17.965  0.00  0.00    +0.000 C 
BRANCH  16  17
ATOM     17  C   UNL     1       1.662   8.696  17.768  0.00  0.00    +0.000 C 
ATOM     18  C   UNL     1       1.635  10.137  18.255  0.00  0.00    +0.000 C 
ENDBRANCH  16  17
ENDBRANCH   9  16
TORSDOF 4
ENDMDL
MODEL 3
REMARK VINA RESULT:      -6.5      0.724      5.399
REMARK  Name = 
REMARK  7 active torsions:
REMARK  status: ('A' for Active; 'I' for Inactive)
REMARK    1  A    between atoms: C_2  and  C_3
REMARK    2  A    between atoms: C_3  and  N_4
REMARK    3  A    between atoms: C_6  and  C_7
REMARK    4  A    between atoms: C_9  and  C_10
REMARK    5  A    between atoms: C_12  and  C_13
REMARK    6  A    between atoms: C_13  and  C_14
REMARK    7  A    between atoms: C_14  and  C_15
REMARK                            x       y       z     vdW  Elec       q    Type
REMARK                         _______ _______ _______ _____ _____    ______ ____
ROOT
ATOM      1  N   UNL     1       2.361   6.704  19.479  0.00  0.00    +0.000 N 
ATOM      2  N   UNL     1       1.866   5.677  20.270  0.00  0.00    +0.000 NA
ATOM      3  C   UNL     1       2.180   4.450  19.992  0.00  0.00    +0.000 A 
ATOM      4  C   UNL     1       1.617   3.361  20.859  0.00  0.00    +0.000 C 
ATOM      5  C   UNL     1       3.030   4.159  18.882  0.00  0.00    +0.000 A 
ATOM      6  C   UNL     1       3.540   3.011  18.310  0.00  0.00    +0.000 A 
ATOM      7  C   UNL     1       3.390   1.578  18.653  0.00  0.00    +0.000 C 
ATOM      8  N   UNL     1       4.317   3.336  17.227  0.00  0.00    +0.000 NA
ATOM      9  C   UNL     1       4.294   4.652  17.124  0.00  0.00    +0.000 A 
ATOM     10  N   UNL     1       3.513   5.210  18.125  0.00  0.00    +0.000 N 
ATOM     11  C   UNL     1       3.214   6.554  18.381  0.00  0.00    +0.000 A 
ATOM     12  O   UNL     1       3.673   7.436  17.667  0.00  0.00    +0.000 OA
ENDROOT
BRANCH   1  13
ATOM     13  C   UNL     1       1.915   8.045  19.844  0.00  0.00    +0.000 C 
BRANCH  13  15
ATOM     14  C   UNL     1       1.096   9.049  21.995  0.00  0.00    +0.000 C 
ATOM     15  C   UNL     1       1.216   8.000  21.171  0.00  0.00    +0.000 C 
ENDBRANCH  13  15
ENDBRANCH   1  13
BRANCH   9  16
ATOM     16  C   UNL     1       5.024   5.411  16.058  0.00  0.00    +0.000 C 
BRANCH  16  17
ATOM     17  C   UNL     1       6.193   4.600  15.501  0.00  0.00    +0.000 C 
ATOM     18  C   UNL     1       5.949   4.168  14.063  0.00  0.00    +0.000 C 
ENDBRANCH  16  17
ENDBRANCH   9  16
TORSDOF 4
ENDMDL
MODEL 4
REMARK VINA RESULT:      -6.5      1.070      5.127
REMARK  Name = 
REMARK  7 active torsions:
REMARK  status: ('A' for Active; 'I' for Inactive)
REMARK    1  A    between atoms: C_2  and  C_3
REMARK    2  A    between atoms: C_3  and  N_4
REMARK    3  A    between atoms: C_6  and  C_7
REMARK    4  A    between atoms: C_9  and  C_10
REMARK    5  A    between atoms: C_12  and  C_13
REMARK    6  A    between atoms: C_13  and  C_14
REMARK    7  A    between atoms: C_14  and  C_15
REMARK                            x       y       z     vdW  Elec       q    Type
REMARK                         _______ _______ _______ _____ _____    ______ ____
ROOT
ATOM      1  N   UNL     1       2.350   6.731  19.438  0.00  0.00    +0.000 N 
ATOM      2  N   UNL     1       1.841   5.672  20.176  0.00  0.00    +0.000 NA
ATOM      3  C   UNL     1       2.178   4.458  19.865  0.00  0.00    +0.000 A 
ATOM      4  C   UNL     1       1.599   3.334  20.675  0.00  0.00    +0.000 C 
ATOM      5  C   UNL     1       3.066   4.216  18.774  0.00  0.00    +0.000 A 
ATOM      6  C   UNL     1       3.606   3.094  18.179  0.00  0.00    +0.000 A 
ATOM      7  C   UNL     1       3.461   1.648  18.466  0.00  0.00    +0.000 C 
ATOM      8  N   UNL     1       4.414   3.465  17.133  0.00  0.00    +0.000 NA
ATOM      9  C   UNL     1       4.381   4.783  17.077  0.00  0.00    +0.000 A 
ATOM     10  N   UNL     1       3.562   5.298  18.071  0.00  0.00    +0.000 N 
ATOM     11  C   UNL     1       3.240   6.629  18.364  0.00  0.00    +0.000 A 
ATOM     12  O   UNL     1       3.711   7.541  17.697  0.00  0.00    +0.000 OA
ENDROOT
BRANCH   1  13
ATOM     13  C   UNL     1       1.878   8.053  19.836  0.00  0.00    +0.000 C 
BRANCH  13  15
ATOM     14  C   UNL     1       0.083   8.664  21.484  0.00  0.00    +0.000 C 
ATOM     15  C   UNL     1       1.177   7.962  21.160  0.00  0.00    +0.000 C 
ENDBRANCH  13  15
ENDBRANCH   1  13
BRANCH   9  16
ATOM     16  C   UNL     1       5.136   5.588  16.063  0.00  0.00    +0.000 C 
BRANCH  16  17
ATOM     17  C   UNL     1       6.643   5.507  16.302  0.00  0.00    +0.000 C 
ATOM     18  C   UNL     1       7.126   6.591  17.254  0.00  0.00    +0.000 C 
ENDBRANCH  16  17
ENDBRANCH   9  16
TORSDOF 4
ENDMDL
MODEL 5
REMARK VINA RESULT:      -6.4      2.895      4.204
REMARK  Name = 
REMARK  7 active torsions:
REMARK  status: ('A' for Active; 'I' for Inactive)
REMARK    1  A    between atoms: C_2  and  C_3
REMARK    2  A    between atoms: C_3  and  N_4
REMARK    3  A    between atoms: C_6  and  C_7
REMARK    4  A    between atoms: C_9  and  C_10
REMARK    5  A    between atoms: C_12  and  C_13
REMARK    6  A    between atoms: C_13  and  C_14
REMARK    7  A    between atoms: C_14  and  C_15
REMARK                            x       y       z     vdW  Elec       q    Type
REMARK                         _______ _______ _______ _____ _____    ______ ____
ROOT
ATOM      1  N   UNL     1       5.864   4.349  15.088  0.00  0.00    +0.000 N 
ATOM      2  N   UNL     1       4.693   3.728  15.500  0.00  0.00    +0.000 NA
ATOM      3  C   UNL     1       4.268   3.909  16.712  0.00  0.00    +0.000 A 
ATOM      4  C   UNL     1       3.005   3.213  17.130  0.00  0.00    +0.000 C 
ATOM      5  C   UNL     1       4.999   4.740  17.614  0.00  0.00    +0.000 A 
ATOM      6  C   UNL     1       4.851   5.128  18.931  0.00  0.00    +0.000 A 
ATOM      7  C   UNL     1       3.825   4.812  19.951  0.00  0.00    +0.000 C 
ATOM      8  N   UNL     1       5.885   5.955  19.291  0.00  0.00    +0.000 NA
ATOM      9  C   UNL     1       6.658   6.082  18.229  0.00  0.00    +0.000 A 
ATOM     10  N   UNL     1       6.155   5.351  17.163  0.00  0.00    +0.000 N 
ATOM     11  C   UNL     1       6.658   5.199  15.865  0.00  0.00    +0.000 A 
ATOM     12  O   UNL     1       7.691   5.766  15.532  0.00  0.00    +0.000 OA
ENDROOT
BRANCH   1  13
ATOM     13  C   UNL     1       6.283   4.049  13.723  0.00  0.00    +0.000 C 
BRANCH  13  15
ATOM     14  C   UNL     1       5.172   3.070  11.694  0.00  0.00    +0.000 C 
ATOM     15  C   UNL     1       5.095   3.622  12.913  0.00  0.00    +0.000 C 
ENDBRANCH  13  15
ENDBRANCH   1  13
BRANCH   9  16
ATOM     16  C   UNL     1       7.907   6.910  18.207  0.00  0.00    +0.000 C 
BRANCH  16  17
ATOM     17  C   UNL     1       7.625   8.326  17.704  0.00  0.00    +0.000 C 
ATOM     18  C   UNL     1       8.575   9.345  18.316  0.00  0.00    +0.000 C 
ENDBRANCH  16  17
ENDBRANCH   9  16
TORSDOF 4
ENDMDL
MODEL 6
REMARK VINA RESULT:      -6.3      1.777      1.910
REMARK  Name = 
REMARK  7 active torsions:
REMARK  status: ('A' for Active; 'I' for Inactive)
REMARK    1  A    between atoms: C_2  and  C_3
REMARK    2  A    between atoms: C_3  and  N_4
REMARK    3  A    between atoms: C_6  and  C_7
REMARK    4  A    between atoms: C_9  and  C_10
REMARK    5  A    between atoms: C_12  and  C_13
REMARK    6  A    between atoms: C_13  and  C_14
REMARK    7  A    between atoms: C_14  and  C_15
REMARK                            x       y       z     vdW  Elec       q    Type
REMARK                         _______ _______ _______ _____ _____    ______ ____
ROOT
ATOM      1  N   UNL     1       5.807   4.772  17.471  0.00  0.00    +0.000 N 
ATOM      2  N   UNL     1       5.597   3.702  18.330  0.00  0.00    +0.000 NA
ATOM      3  C   UNL     1       4.601   3.736  19.159  0.00  0.00    +0.000 A 
ATOM      4  C   UNL     1       4.409   2.569  20.084  0.00  0.00    +0.000 C 
ATOM      5  C   UNL     1       3.726   4.864  19.187  0.00  0.00    +0.000 A 
ATOM      6  C   UNL     1       2.615   5.228  19.921  0.00  0.00    +0.000 A 
ATOM      7  C   UNL     1       1.877   4.548  21.010  0.00  0.00    +0.000 C 
ATOM      8  N   UNL     1       2.171   6.460  19.513  0.00  0.00    +0.000 NA
ATOM      9  C   UNL     1       2.980   6.856  18.549  0.00  0.00    +0.000 A 
ATOM     10  N   UNL     1       3.960   5.905  18.307  0.00  0.00    +0.000 N 
ATOM     11  C   UNL     1       5.014   5.921  17.385  0.00  0.00    +0.000 A 
ATOM     12  O   UNL     1       5.167   6.878  16.637  0.00  0.00    +0.000 OA
ENDROOT
BRANCH   1  13
ATOM     13  C   UNL     1       6.978   4.660  16.609  0.00  0.00    +0.000 C 
BRANCH  13  15
ATOM     14  C   UNL     1       6.810   4.678  14.103  0.00  0.00    +0.000 C 
ATOM     15  C   UNL     1       6.576   4.087  15.282  0.00  0.00    +0.000 C 
ENDBRANCH  13  15
ENDBRANCH   1  13
BRANCH   9  16
ATOM     16  C   UNL     1       2.836   8.164  17.831  0.00  0.00    +0.000 C 
BRANCH  16  17
ATOM     17  C   UNL     1       1.559   8.890  18.254  0.00  0.00    +0.000 C 
ATOM     18  C   UNL     1       1.717  10.402  18.182  0.00  0.00    +0.000 C 
ENDBRANCH  16  17
ENDBRANCH   9  16
TORSDOF 4
ENDMDL
MODEL 7
REMARK VINA RESULT:      -6.3      1.098      1.417
REMARK  Name = 
REMARK  7 active torsions:
REMARK  status: ('A' for Active; 'I' for Inactive)
REMARK    1  A    between atoms: C_2  and  C_3
REMARK    2  A    between atoms: C_3  and  N_4
REMARK    3  A    between atoms: C_6  and  C_7
REMARK    4  A    between atoms: C_9  and  C_10
REMARK    5  A    between atoms: C_12  and  C_13
REMARK    6  A    between atoms: C_13  and  C_14
REMARK    7  A    between atoms: C_14  and  C_15
REMARK                            x       y       z     vdW  Elec       q    Type
REMARK                         _______ _______ _______ _____ _____    ______ ____
ROOT
ATOM      1  N   UNL     1       4.720   5.228  17.526  0.00  0.00    +0.000 N 
ATOM      2  N   UNL     1       4.774   3.891  17.893  0.00  0.00    +0.000 NA
ATOM      3  C   UNL     1       4.022   3.465  18.861  0.00  0.00    +0.000 A 
ATOM      4  C   UNL     1       4.113   2.016  19.243  0.00  0.00    +0.000 C 
ATOM      5  C   UNL     1       3.146   4.365  19.541  0.00  0.00    +0.000 A 
ATOM      6  C   UNL     1       2.250   4.261  20.585  0.00  0.00    +0.000 A 
ATOM      7  C   UNL     1       1.838   3.119  21.433  0.00  0.00    +0.000 C 
ATOM      8  N   UNL     1       1.675   5.484  20.828  0.00  0.00    +0.000 NA
ATOM      9  C   UNL     1       2.197   6.328  19.958  0.00  0.00    +0.000 A 
ATOM     10  N   UNL     1       3.112   5.687  19.137  0.00  0.00    +0.000 N 
ATOM     11  C   UNL     1       3.894   6.202  18.096  0.00  0.00    +0.000 A 
ATOM     12  O   UNL     1       3.819   7.386  17.793  0.00  0.00    +0.000 OA
ENDROOT
BRANCH   1  13
ATOM     13  C   UNL     1       5.635   5.619  16.458  0.00  0.00    +0.000 C 
BRANCH  13  15
ATOM     14  C   UNL     1       7.457   6.991  17.508  0.00  0.00    +0.000 C 
ATOM     15  C   UNL     1       7.009   5.826  17.021  0.00  0.00    +0.000 C 
ENDBRANCH  13  15
ENDBRANCH   1  13
BRANCH   9  16
ATOM     16  C   UNL     1       1.830   7.780  19.891  0.00  0.00    +0.000 C 
BRANCH  16  17
ATOM     17  C   UNL     1       1.193   8.252  21.198  0.00  0.00    +0.000 C 
ATOM     18  C   UNL     1       0.278   9.448  20.984  0.00  0.00    +0.000 C 
ENDBRANCH  16  17
ENDBRANCH   9  16
TORSDOF 4
ENDMDL
MODEL 8
REMARK VINA RESULT:      -6.3      1.514      3.584
REMARK  Name = 
REMARK  7 active torsions:
REMARK  status: ('A' for Active; 'I' for Inactive)
REMARK    1  A    between atoms: C_2  and  C_3
REMARK    2  A    between atoms: C_3  and  N_4
REMARK    3  A    between atoms: C_6  and  C_7
REMARK    4  A    between atoms: C_9  and  C_10
REMARK    5  A    between atoms: C_12  and  C_13
REMARK    6  A    between atoms: C_13  and  C_14
REMARK    7  A    between atoms: C_14  and  C_15
REMARK                            x       y       z     vdW  Elec       q    Type
REMARK                         _______ _______ _______ _____ _____    ______ ____
ROOT
ATOM      1  N   UNL     1       4.591   4.729  17.453  0.00  0.00    +0.000 N 
ATOM      2  N   UNL     1       4.374   6.054  17.103  0.00  0.00    +0.000 NA
ATOM      3  C   UNL     1       3.618   6.796  17.852  0.00  0.00    +0.000 A 
ATOM      4  C   UNL     1       3.392   8.221  17.438  0.00  0.00    +0.000 C 
ATOM      5  C   UNL     1       3.017   6.254  19.028  0.00  0.00    +0.000 A 
ATOM      6  C   UNL     1       2.178   6.734  20.013  0.00  0.00    +0.000 A 
ATOM      7  C   UNL     1       1.557   8.061  20.230  0.00  0.00    +0.000 C 
ATOM      8  N   UNL     1       1.911   5.742  20.922  0.00  0.00    +0.000 NA
ATOM      9  C   UNL     1       2.566   4.670  20.518  0.00  0.00    +0.000 A 
ATOM     10  N   UNL     1       3.268   4.933  19.351  0.00  0.00    +0.000 N 
ATOM     11  C   UNL     1       4.079   4.086  18.585  0.00  0.00    +0.000 A 
ATOM     12  O   UNL     1       4.256   2.924  18.926  0.00  0.00    +0.000 OA
ENDROOT
BRANCH   1  13
ATOM     13  C   UNL     1       5.418   3.965  16.525  0.00  0.00    +0.000 C 
BRANCH  13  15
ATOM     14  C   UNL     1       6.036   4.145  14.097  0.00  0.00    +0.000 C 
ATOM     15  C   UNL     1       5.406   4.625  15.178  0.00  0.00    +0.000 C 
ENDBRANCH  13  15
ENDBRANCH   1  13
BRANCH   9  16
ATOM     16  C   UNL     1       2.536   3.358  21.242  0.00  0.00    +0.000 C 
BRANCH  16  17
ATOM     17  C   UNL     1       1.191   2.654  21.058  0.00  0.00    +0.000 C 
ATOM     18  C   UNL     1       0.770   2.611  19.597  0.00  0.00    +0.000 C 
ENDBRANCH  16  17
ENDBRANCH   9  16
TORSDOF 4
ENDMDL
MODEL 9
REMARK VINA RESULT:      -6.3      2.078      4.891
REMARK  Name = 
REMARK  7 active torsions:
REMARK  status: ('A' for Active; 'I' for Inactive)
REMARK    1  A    between atoms: C_2  and  C_3
REMARK    2  A    between atoms: C_3  and  N_4
REMARK    3  A    between atoms: C_6  and  C_7
REMARK    4  A    between atoms: C_9  and  C_10
REMARK    5  A    between atoms: C_12  and  C_13
REMARK    6  A    between atoms: C_13  and  C_14
REMARK    7  A    between atoms: C_14  and  C_15
REMARK                            x       y       z     vdW  Elec       q    Type
REMARK                         _______ _______ _______ _____ _____    ______ ____
ROOT
ATOM      1  N   UNL     1       3.009   7.239  18.207  0.00  0.00    +0.000 N 
ATOM      2  N   UNL     1       2.156   6.756  19.189  0.00  0.00    +0.000 NA
ATOM      3  C   UNL     1       2.378   5.588  19.709  0.00  0.00    +0.000 A 
ATOM      4  C   UNL     1       1.429   5.089  20.760  0.00  0.00    +0.000 C 
ATOM      5  C   UNL     1       3.492   4.808  19.275  0.00  0.00    +0.000 A 
ATOM      6  C   UNL     1       4.003   3.565  19.589  0.00  0.00    +0.000 A 
ATOM      7  C   UNL     1       3.563   2.522  20.545  0.00  0.00    +0.000 C 
ATOM      8  N   UNL     1       5.121   3.316  18.834  0.00  0.00    +0.000 NA
ATOM      9  C   UNL     1       5.306   4.376  18.069  0.00  0.00    +0.000 A 
ATOM     10  N   UNL     1       4.327   5.329  18.303  0.00  0.00    +0.000 N 
ATOM     11  C   UNL     1       4.141   6.585  17.711  0.00  0.00    +0.000 A 
ATOM     12  O   UNL     1       4.916   6.984  16.851  0.00  0.00    +0.000 OA
ENDROOT
BRANCH   1  13
ATOM     13  C   UNL     1       2.650   8.540  17.653  0.00  0.00    +0.000 C 
BRANCH  13  15
ATOM     14  C   UNL     1       1.228  10.385  18.591  0.00  0.00    +0.000 C 
ATOM     15  C   UNL     1       1.451   9.082  18.373  0.00  0.00    +0.000 C 
ENDBRANCH  13  15
ENDBRANCH   1  13
BRANCH   9  16
ATOM     16  C   UNL     1       6.432   4.502  17.088  0.00  0.00    +0.000 C 
BRANCH  16  17
ATOM     17  C   UNL     1       7.774   4.665  17.802  0.00  0.00    +0.000 C 
ATOM     18  C   UNL     1       7.765   5.843  18.764  0.00  0.00    +0.000 C 
ENDBRANCH  16  17
ENDBRANCH   9  16
TORSDOF 4
ENDMDL
