MODEL 1
REMARK VINA RESULT:      -6.5      0.000      0.000
REMARK  Name = 
REMARK  6 active torsions:
REMARK  status: ('A' for Active; 'I' for Inactive)
REMARK    1  A    between atoms: C_1  and  C_2
REMARK    2  A    between atoms: C_2  and  C_3
REMARK    3  A    between atoms: N_4  and  N_5
REMARK    4  A    between atoms: C_6  and  S_8
REMARK    5  A    between atoms: S_8  and  C_9
REMARK    6  A    between atoms: C_9  and  C_10
REMARK                            x       y       z     vdW  Elec       q    Type
REMARK                         _______ _______ _______ _____ _____    ______ ____
ROOT
ATOM      1  N   UNL     1       6.270   5.231  16.194  0.00  0.00    +0.000 NA
ATOM      2  C   UNL     1       6.732   4.703  17.283  0.00  0.00    +0.000 C 
ATOM      3  N   UNL     1       8.025   4.335  17.499  0.00  0.00    +0.000 N 
ATOM      4  H   UNL     1       8.525   4.291  16.616  0.00  0.00    +0.000 HD
ATOM      5  H   UNL     1       8.133   3.527  18.095  0.00  0.00    +0.000 HD
ENDROOT
BRANCH   1   9
ATOM      6  C   UNL     1       7.869   4.972  12.914  0.00  0.00    +0.000 C 
ATOM      7  C   UNL     1       6.908   4.854  14.069  0.00  0.00    +0.000 C 
ATOM      8  C   UNL     1       5.604   4.124  13.842  0.00  0.00    +0.000 C 
ATOM      9  N   UNL     1       7.246   5.396  15.202  0.00  0.00    +0.000 NA
ENDBRANCH   1   9
BRANCH   2  10
ATOM     10  S   UNL     1       5.665   4.382  18.631  0.00  0.00    +0.000 S 
BRANCH  10  11
ATOM     11  C   UNL     1       4.339   3.477  17.784  0.00  0.00    +0.000 C 
BRANCH  11  12
ATOM     12  C   UNL     1       3.096   3.373  18.636  0.00  0.00    +0.000 A 
ATOM     13  C   UNL     1       3.076   3.919  19.929  0.00  0.00    +0.000 A 
ATOM     14  C   UNL     1       1.932   3.829  20.722  0.00  0.00    +0.000 A 
ATOM     15  C   UNL     1       0.796   3.186  20.238  0.00  0.00    +0.000 A 
ATOM     16  C   UNL     1       0.804   2.630  18.960  0.00  0.00    +0.000 A 
ATOM     17  C   UNL     1       1.948   2.721  18.163  0.00  0.00    +0.000 A 
ENDBRANCH  11  12
ENDBRANCH  10  11
ENDBRANCH   2  10
TORSDOF 4
ENDMDL
MODEL 2
REMARK VINA RESULT:      -6.5      1.632      1.889
REMARK  Name = 
REMARK  6 active torsions:
REMARK  status: ('A' for Active; 'I' for Inactive)
REMARK    1  A    between atoms: C_1  and  C_2
REMARK    2  A    between atoms: C_2  and  C_3
REMARK    3  A    between atoms: N_4  and  N_5
REMARK    4  A    between atoms: C_6  and  S_8
REMARK    5  A    between atoms: S_8  and  C_9
REMARK    6  A    between atoms: C_9  and  C_10
REMARK                            x       y       z     vdW  Elec       q    Type
REMARK                         _______ _______ _______ _____ _____    ______ ____
ROOT
ATOM      1  N   UNL     1       7.301   5.018  16.264  0.00  0.00    +0.000 NA
ATOM      2  C   UNL     1       7.173   6.027  17.066  0.00  0.00    +0.000 C 
ATOM      3  N   UNL     1       7.463   7.322  16.764  0.00  0.00    +0.000 N 
ATOM      4  H   UNL     1       8.028   7.363  15.921  0.00  0.00    +0.000 HD
ATOM      5  H   UNL     1       7.811   7.864  17.542  0.00  0.00    +0.000 HD
ENDROOT
BRANCH   1   9
ATOM      6  C   UNL     1       7.527   5.165  12.615  0.00  0.00    +0.000 C 
ATOM      7  C   UNL     1       7.107   4.849  14.028  0.00  0.00    +0.000 C 
ATOM      8  C   UNL     1       5.909   3.951  14.234  0.00  0.00    +0.000 C 
ATOM      9  N   UNL     1       7.793   5.375  15.001  0.00  0.00    +0.000 NA
ENDBRANCH   1   9
BRANCH   2  10
ATOM     10  S   UNL     1       6.606   5.788  18.703  0.00  0.00    +0.000 S 
BRANCH  10  11
ATOM     11  C   UNL     1       5.848   4.146  18.545  0.00  0.00    +0.000 C 
BRANCH  11  12
ATOM     12  C   UNL     1       4.373   4.237  18.232  0.00  0.00    +0.000 A 
ATOM     13  C   UNL     1       3.652   5.401  18.544  0.00  0.00    +0.000 A 
ATOM     14  C   UNL     1       2.291   5.493  18.258  0.00  0.00    +0.000 A 
ATOM     15  C   UNL     1       1.628   4.422  17.664  0.00  0.00    +0.000 A 
ATOM     16  C   UNL     1       2.327   3.256  17.357  0.00  0.00    +0.000 A 
ATOM     17  C   UNL     1       3.693   3.162  17.641  0.00  0.00    +0.000 A 
ENDBRANCH  11  12
ENDBRANCH  10  11
ENDBRANCH   2  10
TORSDOF 4
ENDMDL
MODEL 3
REMARK VINA RESULT:      -6.5      1.612      2.131
REMARK  Name = 
REMARK  6 active torsions:
REMARK  status: ('A' for Active; 'I' for Inactive)
REMARK    1  A    between atoms: C_1  and  C_2
REMARK    2  A    between atoms: C_2  and  C_3
REMARK    3  A    between atoms: N_4  and  N_5
REMARK    4  A    between atoms: C_6  and  S_8
REMARK    5  A    between atoms: S_8  and  C_9
REMARK    6  A    between atoms: C_9  and  C_10
REMARK                            x       y       z     vdW  Elec       q    Type
REMARK                         _______ _______ _______ _____ _____    ______ ____
ROOT
ATOM      1  N   UNL     1       7.127   5.059  15.994  0.00  0.00    +0.000 NA
ATOM      2  C   UNL     1       7.187   5.960  16.922  0.00  0.00    +0.000 C 
ATOM      3  N   UNL     1       7.743   7.195  16.794  0.00  0.00    +0.000 N 
ATOM      4  H   UNL     1       8.327   7.228  15.963  0.00  0.00    +0.000 HD
ATOM      5  H   UNL     1       8.174   7.548  17.636  0.00  0.00    +0.000 HD
ENDROOT
BRANCH   1   9
ATOM      6  C   UNL     1       7.720   5.251  12.389  0.00  0.00    +0.000 C 
ATOM      7  C   UNL     1       7.185   4.888  13.750  0.00  0.00    +0.000 C 
ATOM      8  C   UNL     1       6.059   3.883  13.832  0.00  0.00    +0.000 C 
ATOM      9  N   UNL     1       7.714   5.467  14.789  0.00  0.00    +0.000 NA
ENDBRANCH   1   9
BRANCH   2  10
ATOM     10  S   UNL     1       6.541   5.632  18.514  0.00  0.00    +0.000 S 
BRANCH  10  11
ATOM     11  C   UNL     1       4.762   5.681  18.156  0.00  0.00    +0.000 C 
BRANCH  11  12
ATOM     12  C   UNL     1       4.124   4.318  18.294  0.00  0.00    +0.000 A 
ATOM     13  C   UNL     1       3.045   3.954  17.474  0.00  0.00    +0.000 A 
ATOM     14  C   UNL     1       2.452   2.697  17.594  0.00  0.00    +0.000 A 
ATOM     15  C   UNL     1       2.922   1.791  18.542  0.00  0.00    +0.000 A 
ATOM     16  C   UNL     1       3.986   2.143  19.371  0.00  0.00    +0.000 A 
ATOM     17  C   UNL     1       4.583   3.400  19.250  0.00  0.00    +0.000 A 
ENDBRANCH  11  12
ENDBRANCH  10  11
ENDBRANCH   2  10
TORSDOF 4
ENDMDL
MODEL 4
REMARK VINA RESULT:      -6.4      1.295      1.710
REMARK  Name = 
REMARK  6 active torsions:
REMARK  status: ('A' for Active; 'I' for Inactive)
REMARK    1  A    between atoms: C_1  and  C_2
REMARK    2  A    between atoms: C_2  and  C_3
REMARK    3  A    between atoms: N_4  and  N_5
REMARK    4  A    between atoms: C_6  and  S_8
REMARK    5  A    between atoms: S_8  and  C_9
REMARK    6  A    between atoms: C_9  and  C_10
REMARK                            x       y       z     vdW  Elec       q    Type
REMARK                         _______ _______ _______ _____ _____    ______ ____
ROOT
ATOM      1  N   UNL     1       6.600   5.772  15.801  0.00  0.00    +0.000 NA
ATOM      2  C   UNL     1       6.972   5.209  16.907  0.00  0.00    +0.000 C 
ATOM      3  N   UNL     1       7.981   4.305  17.035  0.00  0.00    +0.000 N 
ATOM      4  H   UNL     1       8.236   3.939  16.123  0.00  0.00    +0.000 HD
ATOM      5  H   UNL     1       7.828   3.609  17.751  0.00  0.00    +0.000 HD
ENDROOT
BRANCH   1   9
ATOM      6  C   UNL     1       7.340   4.111  12.626  0.00  0.00    +0.000 C 
ATOM      7  C   UNL     1       6.655   4.616  13.871  0.00  0.00    +0.000 C 
ATOM      8  C   UNL     1       5.206   4.246  14.090  0.00  0.00    +0.000 C 
ATOM      9  N   UNL     1       7.345   5.355  14.690  0.00  0.00    +0.000 NA
ENDBRANCH   1   9
BRANCH   2  10
ATOM     10  S   UNL     1       6.143   5.570  18.404  0.00  0.00    +0.000 S 
BRANCH  10  11
ATOM     11  C   UNL     1       4.472   5.898  17.777  0.00  0.00    +0.000 C 
BRANCH  11  12
ATOM     12  C   UNL     1       3.581   4.683  17.890  0.00  0.00    +0.000 A 
ATOM     13  C   UNL     1       2.198   4.832  18.075  0.00  0.00    +0.000 A 
ATOM     14  C   UNL     1       1.369   3.716  18.179  0.00  0.00    +0.000 A 
ATOM     15  C   UNL     1       1.911   2.434  18.108  0.00  0.00    +0.000 A 
ATOM     16  C   UNL     1       3.284   2.270  17.934  0.00  0.00    +0.000 A 
ATOM     17  C   UNL     1       4.116   3.387  17.828  0.00  0.00    +0.000 A 
ENDBRANCH  11  12
ENDBRANCH  10  11
ENDBRANCH   2  10
TORSDOF 4
ENDMDL
MODEL 5
REMARK VINA RESULT:      -6.4      1.988      2.562
REMARK  Name = 
REMARK  6 active torsions:
REMARK  status: ('A' for Active; 'I' for Inactive)
REMARK    1  A    between atoms: C_1  and  C_2
REMARK    2  A    between atoms: C_2  and  C_3
REMARK    3  A    between atoms: N_4  and  N_5
REMARK    4  A    between atoms: C_6  and  S_8
REMARK    5  A    between atoms: S_8  and  C_9
REMARK    6  A    between atoms: C_9  and  C_10
REMARK                            x       y       z     vdW  Elec       q    Type
REMARK                         _______ _______ _______ _____ _____    ______ ____
ROOT
ATOM      1  N   UNL     1       5.576   4.221  14.056  0.00  0.00    +0.000 NA
ATOM      2  C   UNL     1       6.163   5.101  14.803  0.00  0.00    +0.000 C 
ATOM      3  N   UNL     1       7.507   5.302  14.885  0.00  0.00    +0.000 N 
ATOM      4  H   UNL     1       8.000   4.512  14.482  0.00  0.00    +0.000 HD
ATOM      5  H   UNL     1       7.830   5.592  15.797  0.00  0.00    +0.000 HD
ENDROOT
BRANCH   1   9
ATOM      6  C   UNL     1       6.832   2.209  11.270  0.00  0.00    +0.000 C 
ATOM      7  C   UNL     1       5.964   3.043  12.178  0.00  0.00    +0.000 C 
ATOM      8  C   UNL     1       4.561   3.372  11.722  0.00  0.00    +0.000 C 
ATOM      9  N   UNL     1       6.471   3.447  13.306  0.00  0.00    +0.000 NA
ENDBRANCH   1   9
BRANCH   2  10
ATOM     10  S   UNL     1       5.222   6.146  15.844  0.00  0.00    +0.000 S 
BRANCH  10  11
ATOM     11  C   UNL     1       5.282   5.198  17.391  0.00  0.00    +0.000 C 
BRANCH  11  12
ATOM     12  C   UNL     1       3.992   4.454  17.644  0.00  0.00    +0.000 A 
ATOM     13  C   UNL     1       2.841   5.147  18.048  0.00  0.00    +0.000 A 
ATOM     14  C   UNL     1       1.645   4.467  18.282  0.00  0.00    +0.000 A 
ATOM     15  C   UNL     1       1.586   3.084  18.123  0.00  0.00    +0.000 A 
ATOM     16  C   UNL     1       2.724   2.381  17.732  0.00  0.00    +0.000 A 
ATOM     17  C   UNL     1       3.922   3.061  17.495  0.00  0.00    +0.000 A 
ENDBRANCH  11  12
ENDBRANCH  10  11
ENDBRANCH   2  10
TORSDOF 4
ENDMDL
MODEL 6
REMARK VINA RESULT:      -6.4      1.637      2.181
REMARK  Name = 
REMARK  6 active torsions:
REMARK  status: ('A' for Active; 'I' for Inactive)
REMARK    1  A    between atoms: C_1  and  C_2
REMARK    2  A    between atoms: C_2  and  C_3
REMARK    3  A    between atoms: N_4  and  N_5
REMARK    4  A    between atoms: C_6  and  S_8
REMARK    5  A    between atoms: S_8  and  C_9
REMARK    6  A    between atoms: C_9  and  C_10
REMARK                            x       y       z     vdW  Elec       q    Type
REMARK                         _______ _______ _______ _____ _____    ______ ____
ROOT
ATOM      1  N   UNL     1       7.328   4.952  16.340  0.00  0.00    +0.000 NA
ATOM      2  C   UNL     1       7.139   5.947  17.147  0.00  0.00    +0.000 C 
ATOM      3  N   UNL     1       7.284   7.263  16.832  0.00  0.00    +0.000 N 
ATOM      4  H   UNL     1       7.802   7.356  15.964  0.00  0.00    +0.000 HD
ATOM      5  H   UNL     1       7.613   7.840  17.593  0.00  0.00    +0.000 HD
ENDROOT
BRANCH   1   9
ATOM      6  C   UNL     1       7.358   5.114  12.685  0.00  0.00    +0.000 C 
ATOM      7  C   UNL     1       7.039   4.763  14.116  0.00  0.00    +0.000 C 
ATOM      8  C   UNL     1       5.941   3.759  14.378  0.00  0.00    +0.000 C 
ATOM      9  N   UNL     1       7.721   5.351  15.055  0.00  0.00    +0.000 NA
ENDBRANCH   1   9
BRANCH   2  10
ATOM     10  S   UNL     1       6.676   5.659  18.810  0.00  0.00    +0.000 S 
BRANCH  10  11
ATOM     11  C   UNL     1       5.791   4.085  18.630  0.00  0.00    +0.000 C 
BRANCH  11  12
ATOM     12  C   UNL     1       4.329   4.296  18.310  0.00  0.00    +0.000 A 
ATOM     13  C   UNL     1       3.572   3.262  17.738  0.00  0.00    +0.000 A 
ATOM     14  C   UNL     1       2.222   3.448  17.441  0.00  0.00    +0.000 A 
ATOM     15  C   UNL     1       1.612   4.673  17.703  0.00  0.00    +0.000 A 
ATOM     16  C   UNL     1       2.354   5.713  18.261  0.00  0.00    +0.000 A 
ATOM     17  C   UNL     1       3.706   5.527  18.562  0.00  0.00    +0.000 A 
ENDBRANCH  11  12
ENDBRANCH  10  11
ENDBRANCH   2  10
TORSDOF 4
ENDMDL
MODEL 7
REMARK VINA RESULT:      -6.3      1.070      1.625
REMARK  Name = 
REMARK  6 active torsions:
REMARK  status: ('A' for Active; 'I' for Inactive)
REMARK    1  A    between atoms: C_1  and  C_2
REMARK    2  A    between atoms: C_2  and  C_3
REMARK    3  A    between atoms: N_4  and  N_5
REMARK    4  A    between atoms: C_6  and  S_8
REMARK    5  A    between atoms: S_8  and  C_9
REMARK    6  A    between atoms: C_9  and  C_10
REMARK                            x       y       z     vdW  Elec       q    Type
REMARK                         _______ _______ _______ _____ _____    ______ ____
ROOT
ATOM      1  N   UNL     1       6.337   5.123  16.078  0.00  0.00    +0.000 NA
ATOM      2  C   UNL     1       6.579   5.677  17.224  0.00  0.00    +0.000 C 
ATOM      3  N   UNL     1       7.601   6.534  17.490  0.00  0.00    +0.000 N 
ATOM      4  H   UNL     1       8.294   6.487  16.749  0.00  0.00    +0.000 HD
ATOM      5  H   UNL     1       7.969   6.466  18.428  0.00  0.00    +0.000 HD
ENDROOT
BRANCH   1   9
ATOM      6  C   UNL     1       7.960   5.182  12.800  0.00  0.00    +0.000 C 
ATOM      7  C   UNL     1       7.044   4.872  13.956  0.00  0.00    +0.000 C 
ATOM      8  C   UNL     1       5.927   3.879  13.736  0.00  0.00    +0.000 C 
ATOM      9  N   UNL     1       7.257   5.484  15.085  0.00  0.00    +0.000 NA
ENDBRANCH   1   9
BRANCH   2  10
ATOM     10  S   UNL     1       5.564   5.327  18.605  0.00  0.00    +0.000 S 
BRANCH  10  11
ATOM     11  C   UNL     1       3.922   5.538  17.860  0.00  0.00    +0.000 C 
BRANCH  11  12
ATOM     12  C   UNL     1       2.860   4.776  18.618  0.00  0.00    +0.000 A 
ATOM     13  C   UNL     1       2.090   3.799  17.968  0.00  0.00    +0.000 A 
ATOM     14  C   UNL     1       1.109   3.090  18.661  0.00  0.00    +0.000 A 
ATOM     15  C   UNL     1       0.877   3.354  20.009  0.00  0.00    +0.000 A 
ATOM     16  C   UNL     1       1.626   4.329  20.664  0.00  0.00    +0.000 A 
ATOM     17  C   UNL     1       2.612   5.038  19.973  0.00  0.00    +0.000 A 
ENDBRANCH  11  12
ENDBRANCH  10  11
ENDBRANCH   2  10
TORSDOF 4
ENDMDL
MODEL 8
REMARK VINA RESULT:      -6.3      0.515      1.325
REMARK  Name = 
REMARK  6 active torsions:
REMARK  status: ('A' for Active; 'I' for Inactive)
REMARK    1  A    between atoms: C_1  and  C_2
REMARK    2  A    between atoms: C_2  and  C_3
REMARK    3  A    between atoms: N_4  and  N_5
REMARK    4  A    between atoms: C_6  and  S_8
REMARK    5  A    between atoms: S_8  and  C_9
REMARK    6  A    between atoms: C_9  and  C_10
REMARK                            x       y       z     vdW  Elec       q    Type
REMARK                         _______ _______ _______ _____ _____    ______ ____
ROOT
ATOM      1  N   UNL     1       6.355   5.622  16.521  0.00  0.00    +0.000 NA
ATOM      2  C   UNL     1       6.738   4.994  17.587  0.00  0.00    +0.000 C 
ATOM      3  N   UNL     1       7.930   4.357  17.747  0.00  0.00    +0.000 N 
ATOM      4  H   UNL     1       8.373   4.220  16.844  0.00  0.00    +0.000 HD
ATOM      5  H   UNL     1       7.889   3.538  18.335  0.00  0.00    +0.000 HD
ENDROOT
BRANCH   1   9
ATOM      6  C   UNL     1       7.780   4.903  13.229  0.00  0.00    +0.000 C 
ATOM      7  C   UNL     1       6.859   4.996  14.419  0.00  0.00    +0.000 C 
ATOM      8  C   UNL     1       5.473   4.407  14.297  0.00  0.00    +0.000 C 
ATOM      9  N   UNL     1       7.302   5.588  15.489  0.00  0.00    +0.000 NA
ENDBRANCH   1   9
BRANCH   2  10
ATOM     10  S   UNL     1       5.682   4.891  18.978  0.00  0.00    +0.000 S 
BRANCH  10  11
ATOM     11  C   UNL     1       4.656   3.473  18.499  0.00  0.00    +0.000 C 
BRANCH  11  12
ATOM     12  C   UNL     1       3.275   3.549  19.107  0.00  0.00    +0.000 A 
ATOM     13  C   UNL     1       2.242   2.728  18.626  0.00  0.00    +0.000 A 
ATOM     14  C   UNL     1       0.965   2.791  19.183  0.00  0.00    +0.000 A 
ATOM     15  C   UNL     1       0.699   3.681  20.222  0.00  0.00    +0.000 A 
ATOM     16  C   UNL     1       1.712   4.509  20.703  0.00  0.00    +0.000 A 
ATOM     17  C   UNL     1       2.993   4.446  20.148  0.00  0.00    +0.000 A 
ENDBRANCH  11  12
ENDBRANCH  10  11
ENDBRANCH   2  10
TORSDOF 4
ENDMDL
MODEL 9
REMARK VINA RESULT:      -6.3      1.300      1.616
REMARK  Name = 
REMARK  6 active torsions:
REMARK  status: ('A' for Active; 'I' for Inactive)
REMARK    1  A    between atoms: C_1  and  C_2
REMARK    2  A    between atoms: C_2  and  C_3
REMARK    3  A    between atoms: N_4  and  N_5
REMARK    4  A    between atoms: C_6  and  S_8
REMARK    5  A    between atoms: S_8  and  C_9
REMARK    6  A    between atoms: C_9  and  C_10
REMARK                            x       y       z     vdW  Elec       q    Type
REMARK                         _______ _______ _______ _____ _____    ______ ____
ROOT
ATOM      1  N   UNL     1       7.227   4.891  16.053  0.00  0.00    +0.000 NA
ATOM      2  C   UNL     1       6.873   5.816  16.888  0.00  0.00    +0.000 C 
ATOM      3  N   UNL     1       6.948   7.157  16.666  0.00  0.00    +0.000 N 
ATOM      4  H   UNL     1       7.549   7.342  15.868  0.00  0.00    +0.000 HD
ATOM      5  H   UNL     1       7.146   7.705  17.490  0.00  0.00    +0.000 HD
ENDROOT
BRANCH   1   9
ATOM      6  C   UNL     1       7.615   5.316  12.440  0.00  0.00    +0.000 C 
ATOM      7  C   UNL     1       7.173   4.849  13.803  0.00  0.00    +0.000 C 
ATOM      8  C   UNL     1       6.109   3.779  13.882  0.00  0.00    +0.000 C 
ATOM      9  N   UNL     1       7.725   5.399  14.846  0.00  0.00    +0.000 NA
ENDBRANCH   1   9
BRANCH   2  10
ATOM     10  S   UNL     1       6.256   5.390  18.469  0.00  0.00    +0.000 S 
BRANCH  10  11
ATOM     11  C   UNL     1       4.531   5.931  18.298  0.00  0.00    +0.000 C 
BRANCH  11  12
ATOM     12  C   UNL     1       3.563   4.785  18.475  0.00  0.00    +0.000 A 
ATOM     13  C   UNL     1       3.899   3.693  19.290  0.00  0.00    +0.000 A 
ATOM     14  C   UNL     1       3.010   2.631  19.460  0.00  0.00    +0.000 A 
ATOM     15  C   UNL     1       1.777   2.642  18.811  0.00  0.00    +0.000 A 
ATOM     16  C   UNL     1       1.434   3.715  17.990  0.00  0.00    +0.000 A 
ATOM     17  C   UNL     1       2.323   4.780  17.820  0.00  0.00    +0.000 A 
ENDBRANCH  11  12
ENDBRANCH  10  11
ENDBRANCH   2  10
TORSDOF 4
ENDMDL
