MODEL 1
REMARK VINA RESULT:      -7.9      0.000      0.000
REMARK  Name = 
REMARK  11 active torsions:
REMARK  status: ('A' for Active; 'I' for Inactive)
REMARK    1  A    between atoms: C_1  and  C_2
REMARK    2  A    between atoms: C_2  and  C_3
REMARK    3  A    between atoms: C_2  and  O_4
REMARK    4  A    between atoms: O_4  and  C_5
REMARK    5  A    between atoms: C_8  and  C_9
REMARK    6  A    between atoms: C_9  and  O_10
REMARK    7  A    between atoms: O_10  and  C_11
REMARK    8  A    between atoms: C_22  and  C_23
REMARK    9  A    between atoms: C_23  and  C_24
REMARK   10  A    between atoms: C_24  and  O_26
REMARK   11  A    between atoms: C_28  and  C_29
REMARK                            x       y       z     vdW  Elec       q    Type
REMARK                         _______ _______ _______ _____ _____    ______ ____
ROOT
ATOM      1  C   UNL     1       7.657   7.242  18.283  0.00  0.00    +0.000 A 
ATOM      2  C   UNL     1       7.902   6.223  19.205  0.00  0.00    +0.000 A 
ATOM      3  C   UNL     1       7.006   5.163  19.374  0.00  0.00    +0.000 A 
ATOM      4  C   UNL     1       5.855   5.162  18.578  0.00  0.00    +0.000 A 
ATOM      5  C   UNL     1       5.564   6.184  17.665  0.00  0.00    +0.000 A 
ATOM      6  C   UNL     1       6.474   7.252  17.536  0.00  0.00    +0.000 A 
ATOM      7  C   UNL     1       4.329   5.858  17.008  0.00  0.00    +0.000 A 
ATOM      8  C   UNL     1       3.932   4.649  17.512  0.00  0.00    +0.000 A 
ATOM      9  N   UNL     1       4.831   4.279  18.467  0.00  0.00    +0.000 N 
ATOM     10  C   UNL     1       4.540   3.004  19.083  0.00  0.00    +0.000 C 
ATOM     11  C   UNL     1       3.433   2.435  18.182  0.00  0.00    +0.000 C 
ATOM     12  C   UNL     1       2.883   3.613  17.316  0.00  0.00    +0.000 C 
ENDROOT
BRANCH   1  13
ATOM     13  O   UNL     1       8.642   8.191  18.183  0.00  0.00    +0.000 OA
BRANCH  13  14
ATOM     14  C   UNL     1       8.217   9.460  17.680  0.00  0.00    +0.000 C 
BRANCH  14  18
ATOM     15  C   UNL     1      10.379  12.583  19.772  0.00  0.00    +0.000 A 
ATOM     16  C   UNL     1       9.917  11.454  20.466  0.00  0.00    +0.000 A 
ATOM     17  C   UNL     1       9.216  10.432  19.810  0.00  0.00    +0.000 A 
ATOM     18  C   UNL     1       8.955  10.529  18.443  0.00  0.00    +0.000 A 
ATOM     19  C   UNL     1       9.451  11.635  17.743  0.00  0.00    +0.000 A 
ATOM     20  C   UNL     1      10.185  12.641  18.387  0.00  0.00    +0.000 A 
BRANCH  20  21
ATOM     21  C   UNL     1      10.745  13.642  17.537  0.00  0.00    +0.000 C 
ATOM     22  N   UNL     1      11.248  14.446  16.867  0.00  0.00    +0.000 NA
ENDBRANCH  20  21
BRANCH  15  23
ATOM     23  O   UNL     1      11.061  13.478  20.554  0.00  0.00    +0.000 OA
BRANCH  23  25
ATOM     24  C   UNL     1       9.956  14.792  22.241  0.00  0.00    +0.000 C 
ATOM     25  C   UNL     1      10.469  14.763  20.803  0.00  0.00    +0.000 C 
ATOM     26  C   UNL     1      11.545  15.832  20.623  0.00  0.00    +0.000 C 
ENDBRANCH  23  25
ENDBRANCH  15  23
ENDBRANCH  14  18
ENDBRANCH  13  14
ENDBRANCH   1  13
BRANCH  12  27
ATOM     27  C   UNL     1       1.497   4.095  17.743  0.00  0.00    +0.000 C 
BRANCH  27  28
ATOM     28  C   UNL     1       1.225   3.787  19.200  0.00  0.00    +0.000 C 
ATOM     29  O   UNL     1       0.686   2.778  19.621  0.00  0.00    +0.000 OA
BRANCH  28  30
ATOM     30  O   UNL     1       1.662   4.767  20.025  0.00  0.00    +0.000 OA
ATOM     31  H   UNL     1       2.554   5.098  19.809  0.00  0.00    +0.000 HD
ENDBRANCH  28  30
ENDBRANCH  27  28
ENDBRANCH  12  27
TORSDOF 9
ENDMDL
MODEL 2
REMARK VINA RESULT:      -7.9      6.624     10.215
REMARK  Name = 
REMARK  11 active torsions:
REMARK  status: ('A' for Active; 'I' for Inactive)
REMARK    1  A    between atoms: C_1  and  C_2
REMARK    2  A    between atoms: C_2  and  C_3
REMARK    3  A    between atoms: C_2  and  O_4
REMARK    4  A    between atoms: O_4  and  C_5
REMARK    5  A    between atoms: C_8  and  C_9
REMARK    6  A    between atoms: C_9  and  O_10
REMARK    7  A    between atoms: O_10  and  C_11
REMARK    8  A    between atoms: C_22  and  C_23
REMARK    9  A    between atoms: C_23  and  C_24
REMARK   10  A    between atoms: C_24  and  O_26
REMARK   11  A    between atoms: C_28  and  C_29
REMARK                            x       y       z     vdW  Elec       q    Type
REMARK                         _______ _______ _______ _____ _____    ______ ____
ROOT
ATOM      1  C   UNL     1       0.990   8.842  19.811  0.00  0.00    +0.000 A 
ATOM      2  C   UNL     1       0.910   7.782  20.716  0.00  0.00    +0.000 A 
ATOM      3  C   UNL     1       1.729   6.655  20.591  0.00  0.00    +0.000 A 
ATOM      4  C   UNL     1       2.635   6.635  19.525  0.00  0.00    +0.000 A 
ATOM      5  C   UNL     1       2.721   7.668  18.583  0.00  0.00    +0.000 A 
ATOM      6  C   UNL     1       1.865   8.778  18.720  0.00  0.00    +0.000 A 
ATOM      7  C   UNL     1       3.759   7.336  17.648  0.00  0.00    +0.000 A 
ATOM      8  C   UNL     1       4.288   6.144  18.067  0.00  0.00    +0.000 A 
ATOM      9  N   UNL     1       3.578   5.733  19.155  0.00  0.00    +0.000 N 
ATOM     10  C   UNL     1       4.037   4.481  19.714  0.00  0.00    +0.000 C 
ATOM     11  C   UNL     1       5.367   4.247  18.981  0.00  0.00    +0.000 C 
ATOM     12  C   UNL     1       5.396   5.205  17.747  0.00  0.00    +0.000 C 
ENDROOT
BRANCH   1  13
ATOM     13  O   UNL     1       0.167   9.905  20.080  0.00  0.00    +0.000 OA
BRANCH  13  14
ATOM     14  C   UNL     1       0.184  10.952  19.107  0.00  0.00    +0.000 C 
BRANCH  14  18
ATOM     15  C   UNL     1      -3.796  11.339  17.430  0.00  0.00    +0.000 A 
ATOM     16  C   UNL     1      -3.500  11.886  18.688  0.00  0.00    +0.000 A 
ATOM     17  C   UNL     1      -2.220  11.774  19.250  0.00  0.00    +0.000 A 
ATOM     18  C   UNL     1      -1.212  11.098  18.562  0.00  0.00    +0.000 A 
ATOM     19  C   UNL     1      -1.495  10.587  17.290  0.00  0.00    +0.000 A 
ATOM     20  C   UNL     1      -2.762  10.730  16.708  0.00  0.00    +0.000 A 
BRANCH  20  21
ATOM     21  C   UNL     1      -2.880  10.283  15.357  0.00  0.00    +0.000 C 
ATOM     22  N   UNL     1      -2.967   9.970  14.242  0.00  0.00    +0.000 NA
ENDBRANCH  20  21
BRANCH  15  23
ATOM     23  O   UNL     1      -5.085  11.552  17.017  0.00  0.00    +0.000 OA
BRANCH  23  25
ATOM     24  C   UNL     1      -6.943  13.057  17.295  0.00  0.00    +0.000 C 
ATOM     25  C   UNL     1      -6.044  12.028  17.975  0.00  0.00    +0.000 C 
ATOM     26  C   UNL     1      -6.886  10.843  18.443  0.00  0.00    +0.000 C 
ENDBRANCH  23  25
ENDBRANCH  15  23
ENDBRANCH  14  18
ENDBRANCH  13  14
ENDBRANCH   1  13
BRANCH  12  27
ATOM     27  C   UNL     1       5.192   4.492  16.411  0.00  0.00    +0.000 C 
BRANCH  27  28
ATOM     28  C   UNL     1       6.131   5.021  15.348  0.00  0.00    +0.000 C 
ATOM     29  O   UNL     1       7.231   4.566  15.086  0.00  0.00    +0.000 OA
BRANCH  28  30
ATOM     30  O   UNL     1       5.612   6.079  14.682  0.00  0.00    +0.000 OA
ATOM     31  H   UNL     1       5.540   5.944  13.718  0.00  0.00    +0.000 HD
ENDBRANCH  28  30
ENDBRANCH  27  28
ENDBRANCH  12  27
TORSDOF 9
ENDMDL
MODEL 3
REMARK VINA RESULT:      -7.9      6.862     10.240
REMARK  Name = 
REMARK  11 active torsions:
REMARK  status: ('A' for Active; 'I' for Inactive)
REMARK    1  A    between atoms: C_1  and  C_2
REMARK    2  A    between atoms: C_2  and  C_3
REMARK    3  A    between atoms: C_2  and  O_4
REMARK    4  A    between atoms: O_4  and  C_5
REMARK    5  A    between atoms: C_8  and  C_9
REMARK    6  A    between atoms: C_9  and  O_10
REMARK    7  A    between atoms: O_10  and  C_11
REMARK    8  A    between atoms: C_22  and  C_23
REMARK    9  A    between atoms: C_23  and  C_24
REMARK   10  A    between atoms: C_24  and  O_26
REMARK   11  A    between atoms: C_28  and  C_29
REMARK                            x       y       z     vdW  Elec       q    Type
REMARK                         _______ _______ _______ _____ _____    ______ ____
ROOT
ATOM      1  C   UNL     1       0.874  10.072  19.915  0.00  0.00    +0.000 A 
ATOM      2  C   UNL     1       0.674   9.248  21.024  0.00  0.00    +0.000 A 
ATOM      3  C   UNL     1       1.170   7.941  21.059  0.00  0.00    +0.000 A 
ATOM      4  C   UNL     1       1.879   7.493  19.939  0.00  0.00    +0.000 A 
ATOM      5  C   UNL     1       2.073   8.283  18.798  0.00  0.00    +0.000 A 
ATOM      6  C   UNL     1       1.538   9.586  18.782  0.00  0.00    +0.000 A 
ATOM      7  C   UNL     1       2.853   7.528  17.858  0.00  0.00    +0.000 A 
ATOM      8  C   UNL     1       3.134   6.332  18.463  0.00  0.00    +0.000 A 
ATOM      9  N   UNL     1       2.513   6.323  19.677  0.00  0.00    +0.000 N 
ATOM     10  C   UNL     1       2.734   5.113  20.437  0.00  0.00    +0.000 C 
ATOM     11  C   UNL     1       3.846   4.410  19.645  0.00  0.00    +0.000 C 
ATOM     12  C   UNL     1       3.925   5.092  18.242  0.00  0.00    +0.000 C 
ENDROOT
BRANCH   1  13
ATOM     13  O   UNL     1       0.379  11.345  20.034  0.00  0.00    +0.000 OA
BRANCH  13  14
ATOM     14  C   UNL     1       0.108  12.012  18.799  0.00  0.00    +0.000 C 
BRANCH  14  18
ATOM     15  C   UNL     1      -4.052  11.393  17.745  0.00  0.00    +0.000 A 
ATOM     16  C   UNL     1      -3.712  11.989  18.969  0.00  0.00    +0.000 A 
ATOM     17  C   UNL     1      -2.374  12.200  19.331  0.00  0.00    +0.000 A 
ATOM     18  C   UNL     1      -1.347  11.804  18.473  0.00  0.00    +0.000 A 
ATOM     19  C   UNL     1      -1.686  11.246  17.235  0.00  0.00    +0.000 A 
ATOM     20  C   UNL     1      -3.023  11.068  16.853  0.00  0.00    +0.000 A 
BRANCH  20  21
ATOM     21  C   UNL     1      -3.232  10.615  15.515  0.00  0.00    +0.000 C 
ATOM     22  N   UNL     1      -3.403  10.196  14.445  0.00  0.00    +0.000 NA
ENDBRANCH  20  21
BRANCH  15  23
ATOM     23  O   UNL     1      -5.401  11.276  17.537  0.00  0.00    +0.000 OA
BRANCH  23  25
ATOM     24  C   UNL     1      -7.404  12.379  18.289  0.00  0.00    +0.000 C 
ATOM     25  C   UNL     1      -6.285  11.409  18.662  0.00  0.00    +0.000 C 
ATOM     26  C   UNL     1      -6.879  10.038  18.972  0.00  0.00    +0.000 C 
ENDBRANCH  23  25
ENDBRANCH  15  23
ENDBRANCH  14  18
ENDBRANCH  13  14
ENDBRANCH   1  13
BRANCH  12  27
ATOM     27  C   UNL     1       3.362   4.234  17.109  0.00  0.00    +0.000 C 
BRANCH  27  28
ATOM     28  C   UNL     1       2.914   2.876  17.608  0.00  0.00    +0.000 C 
ATOM     29  O   UNL     1       1.771   2.574  17.905  0.00  0.00    +0.000 OA
BRANCH  28  30
ATOM     30  O   UNL     1       3.936   1.992  17.686  0.00  0.00    +0.000 OA
ATOM     31  H   UNL     1       3.852   1.352  18.417  0.00  0.00    +0.000 HD
ENDBRANCH  28  30
ENDBRANCH  27  28
ENDBRANCH  12  27
TORSDOF 9
ENDMDL
MODEL 4
REMARK VINA RESULT:      -7.9      6.329      8.884
REMARK  Name = 
REMARK  11 active torsions:
REMARK  status: ('A' for Active; 'I' for Inactive)
REMARK    1  A    between atoms: C_1  and  C_2
REMARK    2  A    between atoms: C_2  and  C_3
REMARK    3  A    between atoms: C_2  and  O_4
REMARK    4  A    between atoms: O_4  and  C_5
REMARK    5  A    between atoms: C_8  and  C_9
REMARK    6  A    between atoms: C_9  and  O_10
REMARK    7  A    between atoms: O_10  and  C_11
REMARK    8  A    between atoms: C_22  and  C_23
REMARK    9  A    between atoms: C_23  and  C_24
REMARK   10  A    between atoms: C_24  and  O_26
REMARK   11  A    between atoms: C_28  and  C_29
REMARK                            x       y       z     vdW  Elec       q    Type
REMARK                         _______ _______ _______ _____ _____    ______ ____
ROOT
ATOM      1  C   UNL     1       2.243   7.451  19.183  0.00  0.00    +0.000 A 
ATOM      2  C   UNL     1       2.713   6.397  19.969  0.00  0.00    +0.000 A 
ATOM      3  C   UNL     1       3.769   5.586  19.543  0.00  0.00    +0.000 A 
ATOM      4  C   UNL     1       4.339   5.874  18.297  0.00  0.00    +0.000 A 
ATOM      5  C   UNL     1       3.871   6.905  17.471  0.00  0.00    +0.000 A 
ATOM      6  C   UNL     1       2.789   7.689  17.917  0.00  0.00    +0.000 A 
ATOM      7  C   UNL     1       4.688   6.936  16.290  0.00  0.00    +0.000 A 
ATOM      8  C   UNL     1       5.634   5.959  16.450  0.00  0.00    +0.000 A 
ATOM      9  N   UNL     1       5.380   5.321  17.627  0.00  0.00    +0.000 N 
ATOM     10  C   UNL     1       6.316   4.262  17.933  0.00  0.00    +0.000 C 
ATOM     11  C   UNL     1       7.423   4.473  16.889  0.00  0.00    +0.000 C 
ATOM     12  C   UNL     1       6.852   5.421  15.786  0.00  0.00    +0.000 C 
ENDROOT
BRANCH   1  13
ATOM     13  O   UNL     1       1.238   8.197  19.744  0.00  0.00    +0.000 OA
BRANCH  13  14
ATOM     14  C   UNL     1       1.310   8.349  21.163  0.00  0.00    +0.000 C 
BRANCH  14  18
ATOM     15  C   UNL     1      -1.248  11.698  22.185  0.00  0.00    +0.000 A 
ATOM     16  C   UNL     1      -1.025  10.668  23.112  0.00  0.00    +0.000 A 
ATOM     17  C   UNL     1      -0.201   9.575  22.803  0.00  0.00    +0.000 A 
ATOM     18  C   UNL     1       0.407   9.490  21.551  0.00  0.00    +0.000 A 
ATOM     19  C   UNL     1       0.217  10.536  20.641  0.00  0.00    +0.000 A 
ATOM     20  C   UNL     1      -0.575  11.649  20.958  0.00  0.00    +0.000 A 
BRANCH  20  21
ATOM     21  C   UNL     1      -0.578  12.705  19.997  0.00  0.00    +0.000 C 
ATOM     22  N   UNL     1      -0.613  13.535  19.185  0.00  0.00    +0.000 NA
ENDBRANCH  20  21
BRANCH  15  23
ATOM     23  O   UNL     1      -2.061  12.699  22.648  0.00  0.00    +0.000 OA
BRANCH  23  25
ATOM     24  C   UNL     1      -3.733  13.198  24.305  0.00  0.00    +0.000 C 
ATOM     25  C   UNL     1      -3.391  12.363  23.074  0.00  0.00    +0.000 C 
ATOM     26  C   UNL     1      -4.359  12.701  21.942  0.00  0.00    +0.000 C 
ENDBRANCH  23  25
ENDBRANCH  15  23
ENDBRANCH  14  18
ENDBRANCH  13  14
ENDBRANCH   1  13
BRANCH  12  27
ATOM     27  C   UNL     1       6.536   4.712  14.470  0.00  0.00    +0.000 C 
BRANCH  27  28
ATOM     28  C   UNL     1       7.537   5.066  13.391  0.00  0.00    +0.000 C 
ATOM     29  O   UNL     1       8.495   5.806  13.532  0.00  0.00    +0.000 OA
BRANCH  28  30
ATOM     30  O   UNL     1       7.266   4.454  12.215  0.00  0.00    +0.000 OA
ATOM     31  H   UNL     1       7.350   5.035  11.436  0.00  0.00    +0.000 HD
ENDBRANCH  28  30
ENDBRANCH  27  28
ENDBRANCH  12  27
TORSDOF 9
ENDMDL
MODEL 5
REMARK VINA RESULT:      -7.8      6.993     10.590
REMARK  Name = 
REMARK  11 active torsions:
REMARK  status: ('A' for Active; 'I' for Inactive)
REMARK    1  A    between atoms: C_1  and  C_2
REMARK    2  A    between atoms: C_2  and  C_3
REMARK    3  A    between atoms: C_2  and  O_4
REMARK    4  A    between atoms: O_4  and  C_5
REMARK    5  A    between atoms: C_8  and  C_9
REMARK    6  A    between atoms: C_9  and  O_10
REMARK    7  A    between atoms: O_10  and  C_11
REMARK    8  A    between atoms: C_22  and  C_23
REMARK    9  A    between atoms: C_23  and  C_24
REMARK   10  A    between atoms: C_24  and  O_26
REMARK   11  A    between atoms: C_28  and  C_29
REMARK                            x       y       z     vdW  Elec       q    Type
REMARK                         _______ _______ _______ _____ _____    ______ ____
ROOT
ATOM      1  C   UNL     1       1.117   8.823  20.910  0.00  0.00    +0.000 A 
ATOM      2  C   UNL     1       0.917   9.474  19.692  0.00  0.00    +0.000 A 
ATOM      3  C   UNL     1       0.043  10.560  19.581  0.00  0.00    +0.000 A 
ATOM      4  C   UNL     1      -0.621  10.971  20.742  0.00  0.00    +0.000 A 
ATOM      5  C   UNL     1      -0.467  10.321  21.974  0.00  0.00    +0.000 A 
ATOM      6  C   UNL     1       0.401   9.214  22.048  0.00  0.00    +0.000 A 
ATOM      7  C   UNL     1      -1.269  11.010  22.946  0.00  0.00    +0.000 A 
ATOM      8  C   UNL     1      -1.850  12.062  22.290  0.00  0.00    +0.000 A 
ATOM      9  N   UNL     1      -1.482  11.992  20.980  0.00  0.00    +0.000 N 
ATOM     10  C   UNL     1      -2.020  13.056  20.164  0.00  0.00    +0.000 C 
ATOM     11  C   UNL     1      -2.597  14.027  21.205  0.00  0.00    +0.000 C 
ATOM     12  C   UNL     1      -2.695  13.256  22.560  0.00  0.00    +0.000 C 
ENDROOT
BRANCH   1  13
ATOM     13  O   UNL     1       2.038   7.808  20.888  0.00  0.00    +0.000 OA
BRANCH  13  14
ATOM     14  C   UNL     1       1.527   6.528  20.509  0.00  0.00    +0.000 C 
BRANCH  14  18
ATOM     15  C   UNL     1       3.969   4.925  17.304  0.00  0.00    +0.000 A 
ATOM     16  C   UNL     1       3.880   6.311  17.501  0.00  0.00    +0.000 A 
ATOM     17  C   UNL     1       3.097   6.852  18.531  0.00  0.00    +0.000 A 
ATOM     18  C   UNL     1       2.377   6.009  19.378  0.00  0.00    +0.000 A 
ATOM     19  C   UNL     1       2.497   4.625  19.207  0.00  0.00    +0.000 A 
ATOM     20  C   UNL     1       3.309   4.079  18.203  0.00  0.00    +0.000 A 
BRANCH  20  21
ATOM     21  C   UNL     1       3.449   2.658  18.222  0.00  0.00    +0.000 C 
ATOM     22  N   UNL     1       3.614   1.509  18.248  0.00  0.00    +0.000 NA
ENDBRANCH  20  21
BRANCH  15  23
ATOM     23  O   UNL     1       4.789   4.560  16.269  0.00  0.00    +0.000 OA
BRANCH  23  25
ATOM     24  C   UNL     1       6.897   4.563  17.430  0.00  0.00    +0.000 C 
ATOM     25  C   UNL     1       6.123   5.094  16.227  0.00  0.00    +0.000 C 
ATOM     26  C   UNL     1       6.791   4.618  14.938  0.00  0.00    +0.000 C 
ENDBRANCH  23  25
ENDBRANCH  15  23
ENDBRANCH  14  18
ENDBRANCH  13  14
ENDBRANCH   1  13
BRANCH  12  27
ATOM     27  C   UNL     1      -4.124  12.885  22.954  0.00  0.00    +0.000 C 
BRANCH  27  28
ATOM     28  C   UNL     1      -4.291  12.825  24.457  0.00  0.00    +0.000 C 
ATOM     29  O   UNL     1      -4.829  11.922  25.073  0.00  0.00    +0.000 OA
BRANCH  28  30
ATOM     30  O   UNL     1      -3.755  13.902  25.078  0.00  0.00    +0.000 OA
ATOM     31  H   UNL     1      -2.845  13.762  25.401  0.00  0.00    +0.000 HD
ENDBRANCH  28  30
ENDBRANCH  27  28
ENDBRANCH  12  27
TORSDOF 9
ENDMDL
MODEL 6
REMARK VINA RESULT:      -7.7      7.062     10.735
REMARK  Name = 
REMARK  11 active torsions:
REMARK  status: ('A' for Active; 'I' for Inactive)
REMARK    1  A    between atoms: C_1  and  C_2
REMARK    2  A    between atoms: C_2  and  C_3
REMARK    3  A    between atoms: C_2  and  O_4
REMARK    4  A    between atoms: O_4  and  C_5
REMARK    5  A    between atoms: C_8  and  C_9
REMARK    6  A    between atoms: C_9  and  O_10
REMARK    7  A    between atoms: O_10  and  C_11
REMARK    8  A    between atoms: C_22  and  C_23
REMARK    9  A    between atoms: C_23  and  C_24
REMARK   10  A    between atoms: C_24  and  O_26
REMARK   11  A    between atoms: C_28  and  C_29
REMARK                            x       y       z     vdW  Elec       q    Type
REMARK                         _______ _______ _______ _____ _____    ______ ____
ROOT
ATOM      1  C   UNL     1       1.101   8.649  20.986  0.00  0.00    +0.000 A 
ATOM      2  C   UNL     1       0.967   9.295  19.756  0.00  0.00    +0.000 A 
ATOM      3  C   UNL     1       0.156  10.424  19.611  0.00  0.00    +0.000 A 
ATOM      4  C   UNL     1      -0.515  10.884  20.749  0.00  0.00    +0.000 A 
ATOM      5  C   UNL     1      -0.427  10.243  21.992  0.00  0.00    +0.000 A 
ATOM      6  C   UNL     1       0.379   9.092  22.101  0.00  0.00    +0.000 A 
ATOM      7  C   UNL     1      -1.215  10.985  22.935  0.00  0.00    +0.000 A 
ATOM      8  C   UNL     1      -1.723  12.058  22.253  0.00  0.00    +0.000 A 
ATOM      9  N   UNL     1      -1.325  11.952  20.954  0.00  0.00    +0.000 N 
ATOM     10  C   UNL     1      -1.785  13.034  20.111  0.00  0.00    +0.000 C 
ATOM     11  C   UNL     1      -2.335  14.047  21.127  0.00  0.00    +0.000 C 
ATOM     12  C   UNL     1      -2.509  13.299  22.487  0.00  0.00    +0.000 C 
ENDROOT
BRANCH   1  13
ATOM     13  O   UNL     1       1.967   7.586  21.000  0.00  0.00    +0.000 OA
BRANCH  13  14
ATOM     14  C   UNL     1       1.390   6.325  20.657  0.00  0.00    +0.000 C 
BRANCH  14  18
ATOM     15  C   UNL     1       4.140   4.249  18.024  0.00  0.00    +0.000 A 
ATOM     16  C   UNL     1       3.566   5.469  17.631  0.00  0.00    +0.000 A 
ATOM     17  C   UNL     1       2.675   6.157  18.467  0.00  0.00    +0.000 A 
ATOM     18  C   UNL     1       2.332   5.628  19.711  0.00  0.00    +0.000 A 
ATOM     19  C   UNL     1       2.935   4.433  20.120  0.00  0.00    +0.000 A 
ATOM     20  C   UNL     1       3.856   3.760  19.304  0.00  0.00    +0.000 A 
BRANCH  20  21
ATOM     21  C   UNL     1       4.496   2.627  19.893  0.00  0.00    +0.000 C 
ATOM     22  N   UNL     1       5.047   1.703  20.329  0.00  0.00    +0.000 NA
ENDBRANCH  20  21
BRANCH  15  23
ATOM     23  O   UNL     1       5.002   3.716  17.102  0.00  0.00    +0.000 OA
BRANCH  23  25
ATOM     24  C   UNL     1       7.267   4.526  17.022  0.00  0.00    +0.000 C 
ATOM     25  C   UNL     1       5.880   4.602  16.389  0.00  0.00    +0.000 C 
ATOM     26  C   UNL     1       5.956   4.137  14.936  0.00  0.00    +0.000 C 
ENDBRANCH  23  25
ENDBRANCH  15  23
ENDBRANCH  14  18
ENDBRANCH  13  14
ENDBRANCH   1  13
BRANCH  12  27
ATOM     27  C   UNL     1      -3.965  13.010  22.848  0.00  0.00    +0.000 C 
BRANCH  27  28
ATOM     28  C   UNL     1      -4.385  13.744  24.104  0.00  0.00    +0.000 C 
ATOM     29  O   UNL     1      -4.803  14.888  24.147  0.00  0.00    +0.000 OA
BRANCH  28  30
ATOM     30  O   UNL     1      -4.260  12.980  25.214  0.00  0.00    +0.000 OA
ATOM     31  H   UNL     1      -3.337  12.779  25.455  0.00  0.00    +0.000 HD
ENDBRANCH  28  30
ENDBRANCH  27  28
ENDBRANCH  12  27
TORSDOF 9
ENDMDL
MODEL 7
REMARK VINA RESULT:      -7.6      6.610     10.090
REMARK  Name = 
REMARK  11 active torsions:
REMARK  status: ('A' for Active; 'I' for Inactive)
REMARK    1  A    between atoms: C_1  and  C_2
REMARK    2  A    between atoms: C_2  and  C_3
REMARK    3  A    between atoms: C_2  and  O_4
REMARK    4  A    between atoms: O_4  and  C_5
REMARK    5  A    between atoms: C_8  and  C_9
REMARK    6  A    between atoms: C_9  and  O_10
REMARK    7  A    between atoms: O_10  and  C_11
REMARK    8  A    between atoms: C_22  and  C_23
REMARK    9  A    between atoms: C_23  and  C_24
REMARK   10  A    between atoms: C_24  and  O_26
REMARK   11  A    between atoms: C_28  and  C_29
REMARK                            x       y       z     vdW  Elec       q    Type
REMARK                         _______ _______ _______ _____ _____    ______ ____
ROOT
ATOM      1  C   UNL     1       1.755   8.982  18.556  0.00  0.00    +0.000 A 
ATOM      2  C   UNL     1       1.601   8.096  19.623  0.00  0.00    +0.000 A 
ATOM      3  C   UNL     1       2.352   6.919  19.707  0.00  0.00    +0.000 A 
ATOM      4  C   UNL     1       3.267   6.667  18.678  0.00  0.00    +0.000 A 
ATOM      5  C   UNL     1       3.425   7.519  17.578  0.00  0.00    +0.000 A 
ATOM      6  C   UNL     1       2.636   8.684  17.509  0.00  0.00    +0.000 A 
ATOM      7  C   UNL     1       4.452   6.975  16.734  0.00  0.00    +0.000 A 
ATOM      8  C   UNL     1       4.903   5.843  17.358  0.00  0.00    +0.000 A 
ATOM      9  N   UNL     1       4.158   5.662  18.485  0.00  0.00    +0.000 N 
ATOM     10  C   UNL     1       4.535   4.498  19.255  0.00  0.00    +0.000 C 
ATOM     11  C   UNL     1       5.856   4.069  18.599  0.00  0.00    +0.000 C 
ATOM     12  C   UNL     1       5.956   4.801  17.223  0.00  0.00    +0.000 C 
ENDROOT
BRANCH   1  13
ATOM     13  O   UNL     1       0.994  10.120  18.625  0.00  0.00    +0.000 OA
BRANCH  13  14
ATOM     14  C   UNL     1       0.172  10.235  19.788  0.00  0.00    +0.000 C 
BRANCH  14  18
ATOM     15  C   UNL     1      -3.630  11.828  18.443  0.00  0.00    +0.000 A 
ATOM     16  C   UNL     1      -3.087  12.232  19.673  0.00  0.00    +0.000 A 
ATOM     17  C   UNL     1      -1.859  11.731  20.128  0.00  0.00    +0.000 A 
ATOM     18  C   UNL     1      -1.156  10.802  19.360  0.00  0.00    +0.000 A 
ATOM     19  C   UNL     1      -1.677  10.429  18.116  0.00  0.00    +0.000 A 
ATOM     20  C   UNL     1      -2.886  10.957  17.639  0.00  0.00    +0.000 A 
BRANCH  20  21
ATOM     21  C   UNL     1      -3.237  10.598  16.303  0.00  0.00    +0.000 C 
ATOM     22  N   UNL     1      -3.556  10.271  15.235  0.00  0.00    +0.000 NA
ENDBRANCH  20  21
BRANCH  15  23
ATOM     23  O   UNL     1      -4.825  12.425  18.138  0.00  0.00    +0.000 OA
BRANCH  23  25
ATOM     24  C   UNL     1      -6.309  10.792  19.099  0.00  0.00    +0.000 C 
ATOM     25  C   UNL     1      -5.957  11.589  17.846  0.00  0.00    +0.000 C 
ATOM     26  C   UNL     1      -7.132  12.486  17.463  0.00  0.00    +0.000 C 
ENDBRANCH  23  25
ENDBRANCH  15  23
ENDBRANCH  14  18
ENDBRANCH  13  14
ENDBRANCH   1  13
BRANCH  12  27
ATOM     27  C   UNL     1       5.724   3.886  16.022  0.00  0.00    +0.000 C 
BRANCH  27  28
ATOM     28  C   UNL     1       6.594   4.278  14.846  0.00  0.00    +0.000 C 
ATOM     29  O   UNL     1       7.364   5.222  14.820  0.00  0.00    +0.000 OA
BRANCH  28  30
ATOM     30  O   UNL     1       6.442   3.444  13.791  0.00  0.00    +0.000 OA
ATOM     31  H   UNL     1       6.821   3.783  12.959  0.00  0.00    +0.000 HD
ENDBRANCH  28  30
ENDBRANCH  27  28
ENDBRANCH  12  27
TORSDOF 9
ENDMDL
MODEL 8
REMARK VINA RESULT:      -7.6      6.664      8.705
REMARK  Name = 
REMARK  11 active torsions:
REMARK  status: ('A' for Active; 'I' for Inactive)
REMARK    1  A    between atoms: C_1  and  C_2
REMARK    2  A    between atoms: C_2  and  C_3
REMARK    3  A    between atoms: C_2  and  O_4
REMARK    4  A    between atoms: O_4  and  C_5
REMARK    5  A    between atoms: C_8  and  C_9
REMARK    6  A    between atoms: C_9  and  O_10
REMARK    7  A    between atoms: O_10  and  C_11
REMARK    8  A    between atoms: C_22  and  C_23
REMARK    9  A    between atoms: C_23  and  C_24
REMARK   10  A    between atoms: C_24  and  O_26
REMARK   11  A    between atoms: C_28  and  C_29
REMARK                            x       y       z     vdW  Elec       q    Type
REMARK                         _______ _______ _______ _____ _____    ______ ____
ROOT
ATOM      1  C   UNL     1       1.556   7.169  20.422  0.00  0.00    +0.000 A 
ATOM      2  C   UNL     1       1.897   5.891  20.867  0.00  0.00    +0.000 A 
ATOM      3  C   UNL     1       2.860   5.123  20.206  0.00  0.00    +0.000 A 
ATOM      4  C   UNL     1       3.472   5.688  19.082  0.00  0.00    +0.000 A 
ATOM      5  C   UNL     1       3.132   6.955  18.591  0.00  0.00    +0.000 A 
ATOM      6  C   UNL     1       2.139   7.695  19.263  0.00  0.00    +0.000 A 
ATOM      7  C   UNL     1       3.961   7.230  17.450  0.00  0.00    +0.000 A 
ATOM      8  C   UNL     1       4.790   6.150  17.307  0.00  0.00    +0.000 A 
ATOM      9  N   UNL     1       4.453   5.236  18.261  0.00  0.00    +0.000 N 
ATOM     10  C   UNL     1       5.261   4.038  18.234  0.00  0.00    +0.000 C 
ATOM     11  C   UNL     1       6.396   4.413  17.270  0.00  0.00    +0.000 C 
ATOM     12  C   UNL     1       5.947   5.692  16.493  0.00  0.00    +0.000 C 
ENDROOT
BRANCH   1  13
ATOM     13  O   UNL     1       0.634   7.831  21.191  0.00  0.00    +0.000 OA
BRANCH  13  14
ATOM     14  C   UNL     1       1.156   8.901  21.982  0.00  0.00    +0.000 C 
BRANCH  14  18
ATOM     15  C   UNL     1      -1.704  12.159  21.855  0.00  0.00    +0.000 A 
ATOM     16  C   UNL     1      -1.578  11.370  23.010  0.00  0.00    +0.000 A 
ATOM     17  C   UNL     1      -0.660  10.312  23.073  0.00  0.00    +0.000 A 
ATOM     18  C   UNL     1       0.144  10.017  21.972  0.00  0.00    +0.000 A 
ATOM     19  C   UNL     1       0.047  10.827  20.835  0.00  0.00    +0.000 A 
ATOM     20  C   UNL     1      -0.843  11.910  20.780  0.00  0.00    +0.000 A 
BRANCH  20  21
ATOM     21  C   UNL     1      -0.748  12.734  19.618  0.00  0.00    +0.000 C 
ATOM     22  N   UNL     1      -0.688  13.445  18.702  0.00  0.00    +0.000 NA
ENDBRANCH  20  21
BRANCH  15  23
ATOM     23  O   UNL     1      -2.632  13.161  21.962  0.00  0.00    +0.000 OA
BRANCH  23  25
ATOM     24  C   UNL     1      -2.790  15.497  21.404  0.00  0.00    +0.000 C 
ATOM     25  C   UNL     1      -2.188  14.469  22.359  0.00  0.00    +0.000 C 
ATOM     26  C   UNL     1      -2.685  14.736  23.778  0.00  0.00    +0.000 C 
ENDBRANCH  23  25
ENDBRANCH  15  23
ENDBRANCH  14  18
ENDBRANCH  13  14
ENDBRANCH   1  13
BRANCH  12  27
ATOM     27  C   UNL     1       5.569   5.424  15.037  0.00  0.00    +0.000 C 
BRANCH  27  28
ATOM     28  C   UNL     1       6.724   4.829  14.261  0.00  0.00    +0.000 C 
ATOM     29  O   UNL     1       7.790   5.379  14.046  0.00  0.00    +0.000 OA
BRANCH  28  30
ATOM     30  O   UNL     1       6.459   3.576  13.821  0.00  0.00    +0.000 OA
ATOM     31  H   UNL     1       5.886   3.546  13.032  0.00  0.00    +0.000 HD
ENDBRANCH  28  30
ENDBRANCH  27  28
ENDBRANCH  12  27
TORSDOF 9
ENDMDL
MODEL 9
REMARK VINA RESULT:      -7.6      5.255      8.680
REMARK  Name = 
REMARK  11 active torsions:
REMARK  status: ('A' for Active; 'I' for Inactive)
REMARK    1  A    between atoms: C_1  and  C_2
REMARK    2  A    between atoms: C_2  and  C_3
REMARK    3  A    between atoms: C_2  and  O_4
REMARK    4  A    between atoms: O_4  and  C_5
REMARK    5  A    between atoms: C_8  and  C_9
REMARK    6  A    between atoms: C_9  and  O_10
REMARK    7  A    between atoms: O_10  and  C_11
REMARK    8  A    between atoms: C_22  and  C_23
REMARK    9  A    between atoms: C_23  and  C_24
REMARK   10  A    between atoms: C_24  and  O_26
REMARK   11  A    between atoms: C_28  and  C_29
REMARK                            x       y       z     vdW  Elec       q    Type
REMARK                         _______ _______ _______ _____ _____    ______ ____
ROOT
ATOM      1  C   UNL     1       2.192   6.229  19.328  0.00  0.00    +0.000 A 
ATOM      2  C   UNL     1       2.350   6.929  18.131  0.00  0.00    +0.000 A 
ATOM      3  C   UNL     1       2.035   8.288  18.035  0.00  0.00    +0.000 A 
ATOM      4  C   UNL     1       1.559   8.920  19.189  0.00  0.00    +0.000 A 
ATOM      5  C   UNL     1       1.360   8.240  20.399  0.00  0.00    +0.000 A 
ATOM      6  C   UNL     1       1.662   6.865  20.457  0.00  0.00    +0.000 A 
ATOM      7  C   UNL     1       0.888   9.186  21.371  0.00  0.00    +0.000 A 
ATOM      8  C   UNL     1       0.848  10.400  20.739  0.00  0.00    +0.000 A 
ATOM      9  N   UNL     1       1.212  10.207  19.440  0.00  0.00    +0.000 N 
ATOM     10  C   UNL     1       1.224  11.417  18.650  0.00  0.00    +0.000 C 
ATOM     11  C   UNL     1       1.073  12.519  19.710  0.00  0.00    +0.000 C 
ATOM     12  C   UNL     1       0.589  11.836  21.029  0.00  0.00    +0.000 C 
ENDROOT
BRANCH   1  13
ATOM     13  O   UNL     1       2.586   4.916  19.296  0.00  0.00    +0.000 OA
BRANCH  13  14
ATOM     14  C   UNL     1       3.900   4.661  19.797  0.00  0.00    +0.000 C 
BRANCH  14  18
ATOM     15  C   UNL     1       6.650   4.743  16.445  0.00  0.00    +0.000 A 
ATOM     16  C   UNL     1       5.727   3.694  16.579  0.00  0.00    +0.000 A 
ATOM     17  C   UNL     1       4.828   3.647  17.654  0.00  0.00    +0.000 A 
ATOM     18  C   UNL     1       4.846   4.649  18.625  0.00  0.00    +0.000 A 
ATOM     19  C   UNL     1       5.739   5.716  18.471  0.00  0.00    +0.000 A 
ATOM     20  C   UNL     1       6.614   5.787  17.377  0.00  0.00    +0.000 A 
BRANCH  20  21
ATOM     21  C   UNL     1       7.376   6.989  17.268  0.00  0.00    +0.000 C 
ATOM     22  N   UNL     1       7.961   7.985  17.144  0.00  0.00    +0.000 NA
ENDBRANCH  20  21
BRANCH  15  23
ATOM     23  O   UNL     1       7.443   4.650  15.331  0.00  0.00    +0.000 OA
BRANCH  23  25
ATOM     24  C   UNL     1       8.022   5.491  13.152  0.00  0.00    +0.000 C 
ATOM     25  C   UNL     1       6.888   5.021  14.059  0.00  0.00    +0.000 C 
ATOM     26  C   UNL     1       6.220   3.791  13.448  0.00  0.00    +0.000 C 
ENDBRANCH  23  25
ENDBRANCH  15  23
ENDBRANCH  14  18
ENDBRANCH  13  14
ENDBRANCH   1  13
BRANCH  12  27
ATOM     27  C   UNL     1      -0.878  12.111  21.360  0.00  0.00    +0.000 C 
BRANCH  27  28
ATOM     28  C   UNL     1      -1.100  12.225  22.853  0.00  0.00    +0.000 C 
ATOM     29  O   UNL     1      -1.345  13.256  23.454  0.00  0.00    +0.000 OA
BRANCH  28  30
ATOM     30  O   UNL     1      -1.011  11.029  23.481  0.00  0.00    +0.000 OA
ATOM     31  H   UNL     1      -0.138  10.855  23.880  0.00  0.00    +0.000 HD
ENDBRANCH  28  30
ENDBRANCH  27  28
ENDBRANCH  12  27
TORSDOF 9
ENDMDL
