MODEL 1
REMARK VINA RESULT:      -6.2      0.000      0.000
REMARK  Name = 
REMARK  10 active torsions:
REMARK  status: ('A' for Active; 'I' for Inactive)
REMARK    1  A    between atoms: C_1  and  C_2
REMARK    2  A    between atoms: C_2  and  C_3
REMARK    3  A    between atoms: C_3  and  C_4
REMARK    4  A    between atoms: C_4  and  C_5
REMARK    5  A    between atoms: C_5  and  C_6
REMARK    6  A    between atoms: C_6  and  C_7
REMARK    7  A    between atoms: C_7  and  C_8
REMARK    8  A    between atoms: C_8  and  O_10
REMARK    9  A    between atoms: O_10  and  C_11
REMARK   10  A    between atoms: C_16  and  O_17
REMARK                            x       y       z     vdW  Elec       q    Type
REMARK                         _______ _______ _______ _____ _____    ______ ____
ROOT
ATOM      1  C   UNL     1       5.284   4.651  17.784  0.00  0.00    +0.000 C 
ATOM      2  O   UNL     1       6.274   4.284  18.403  0.00  0.00    +0.000 OA
ENDROOT
BRANCH   1   3
ATOM      3  C   UNL     1       5.422   5.074  16.351  0.00  0.00    +0.000 C 
BRANCH   3   4
ATOM      4  C   UNL     1       6.855   4.852  15.862  0.00  0.00    +0.000 C 
BRANCH   4   5
ATOM      5  C   UNL     1       6.932   4.876  14.330  0.00  0.00    +0.000 C 
BRANCH   5   6
ATOM      6  C   UNL     1       6.022   3.799  13.727  0.00  0.00    +0.000 C 
BRANCH   6   7
ATOM      7  C   UNL     1       6.444   3.445  12.297  0.00  0.00    +0.000 C 
BRANCH   7   9
ATOM      8  C   UNL     1       4.077   3.348  11.422  0.00  0.00    +0.000 C 
ATOM      9  C   UNL     1       5.378   2.576  11.616  0.00  0.00    +0.000 C 
ENDBRANCH   7   9
ENDBRANCH   6   7
ENDBRANCH   5   6
ENDBRANCH   4   5
ENDBRANCH   3   4
ENDBRANCH   1   3
BRANCH   1  10
ATOM     10  O   UNL     1       4.067   4.709  18.391  0.00  0.00    +0.000 OA
BRANCH  10  11
ATOM     11  C   UNL     1       3.051   3.781  18.225  0.00  0.00    +0.000 C 
ATOM     12  C   UNL     1       1.703   4.375  18.692  0.00  0.00    +0.000 C 
ATOM     13 SE   UNL     1       1.793   5.036  20.527  0.00  0.00    +0.000 Se
ATOM     14 SE   UNL     1       1.872   2.819  21.357  0.00  0.00    +0.000 Se
ATOM     15  C   UNL     1       3.585   2.543  20.463  0.00  0.00    +0.000 C 
ATOM     16  C   UNL     1       3.452   2.457  18.931  0.00  0.00    +0.000 C 
BRANCH  16  17
ATOM     17  O   UNL     1       2.614   1.391  18.553  0.00  0.00    +0.000 OA
ATOM     18  H   UNL     1       1.838   1.757  18.058  0.00  0.00    +0.000 HD
ENDBRANCH  16  17
ENDBRANCH  10  11
ENDBRANCH   1  10
TORSDOF 9
ENDMDL
MODEL 2
REMARK VINA RESULT:      -6.2      1.679      2.683
REMARK  Name = 
REMARK  10 active torsions:
REMARK  status: ('A' for Active; 'I' for Inactive)
REMARK    1  A    between atoms: C_1  and  C_2
REMARK    2  A    between atoms: C_2  and  C_3
REMARK    3  A    between atoms: C_3  and  C_4
REMARK    4  A    between atoms: C_4  and  C_5
REMARK    5  A    between atoms: C_5  and  C_6
REMARK    6  A    between atoms: C_6  and  C_7
REMARK    7  A    between atoms: C_7  and  C_8
REMARK    8  A    between atoms: C_8  and  O_10
REMARK    9  A    between atoms: O_10  and  C_11
REMARK   10  A    between atoms: C_16  and  O_17
REMARK                            x       y       z     vdW  Elec       q    Type
REMARK                         _______ _______ _______ _____ _____    ______ ____
ROOT
ATOM      1  C   UNL     1       6.418   4.487  16.476  0.00  0.00    +0.000 C 
ATOM      2  O   UNL     1       7.571   4.491  16.887  0.00  0.00    +0.000 OA
ENDROOT
BRANCH   1   3
ATOM      3  C   UNL     1       6.085   5.205  15.200  0.00  0.00    +0.000 C 
BRANCH   3   4
ATOM      4  C   UNL     1       5.357   4.268  14.232  0.00  0.00    +0.000 C 
BRANCH   4   5
ATOM      5  C   UNL     1       6.351   3.449  13.397  0.00  0.00    +0.000 C 
BRANCH   5   6
ATOM      6  C   UNL     1       5.698   2.977  12.092  0.00  0.00    +0.000 C 
BRANCH   6   7
ATOM      7  C   UNL     1       4.504   3.861  11.711  0.00  0.00    +0.000 C 
BRANCH   7   9
ATOM      8  C   UNL     1       3.062   4.037   9.646  0.00  0.00    +0.000 C 
ATOM      9  C   UNL     1       3.564   3.117  10.754  0.00  0.00    +0.000 C 
ENDBRANCH   7   9
ENDBRANCH   6   7
ENDBRANCH   5   6
ENDBRANCH   4   5
ENDBRANCH   3   4
ENDBRANCH   1   3
BRANCH   1  10
ATOM     10  O   UNL     1       5.431   3.867  17.178  0.00  0.00    +0.000 OA
BRANCH  10  11
ATOM     11  C   UNL     1       5.092   4.151  18.492  0.00  0.00    +0.000 C 
ATOM     12  C   UNL     1       4.598   2.872  19.205  0.00  0.00    +0.000 C 
ATOM     13 SE   UNL     1       3.129   2.020  18.241  0.00  0.00    +0.000 Se
ATOM     14 SE   UNL     1       1.654   3.758  18.886  0.00  0.00    +0.000 Se
ATOM     15  C   UNL     1       2.717   5.040  17.866  0.00  0.00    +0.000 C 
ATOM     16  C   UNL     1       4.083   5.331  18.513  0.00  0.00    +0.000 C 
BRANCH  16  17
ATOM     17  O   UNL     1       3.930   5.863  19.808  0.00  0.00    +0.000 OA
ATOM     18  H   UNL     1       4.466   5.320  20.439  0.00  0.00    +0.000 HD
ENDBRANCH  16  17
ENDBRANCH  10  11
ENDBRANCH   1  10
TORSDOF 9
ENDMDL
MODEL 3
REMARK VINA RESULT:      -6.0      3.578      6.585
REMARK  Name = 
REMARK  10 active torsions:
REMARK  status: ('A' for Active; 'I' for Inactive)
REMARK    1  A    between atoms: C_1  and  C_2
REMARK    2  A    between atoms: C_2  and  C_3
REMARK    3  A    between atoms: C_3  and  C_4
REMARK    4  A    between atoms: C_4  and  C_5
REMARK    5  A    between atoms: C_5  and  C_6
REMARK    6  A    between atoms: C_6  and  C_7
REMARK    7  A    between atoms: C_7  and  C_8
REMARK    8  A    between atoms: C_8  and  O_10
REMARK    9  A    between atoms: O_10  and  C_11
REMARK   10  A    between atoms: C_16  and  O_17
REMARK                            x       y       z     vdW  Elec       q    Type
REMARK                         _______ _______ _______ _____ _____    ______ ____
ROOT
ATOM      1  C   UNL     1       4.589   3.263  18.679  0.00  0.00    +0.000 C 
ATOM      2  O   UNL     1       5.050   2.842  19.732  0.00  0.00    +0.000 OA
ENDROOT
BRANCH   1   3
ATOM      3  C   UNL     1       3.588   2.436  17.927  0.00  0.00    +0.000 C 
BRANCH   3   4
ATOM      4  C   UNL     1       2.245   3.167  17.840  0.00  0.00    +0.000 C 
BRANCH   4   5
ATOM      5  C   UNL     1       1.122   2.346  18.486  0.00  0.00    +0.000 C 
BRANCH   5   6
ATOM      6  C   UNL     1       0.625   3.025  19.768  0.00  0.00    +0.000 C 
BRANCH   6   7
ATOM      7  C   UNL     1       1.345   4.356  20.012  0.00  0.00    +0.000 C 
BRANCH   7   9
ATOM      8  C   UNL     1       2.254   2.874  21.844  0.00  0.00    +0.000 C 
ATOM      9  C   UNL     1       2.161   4.300  21.310  0.00  0.00    +0.000 C 
ENDBRANCH   7   9
ENDBRANCH   6   7
ENDBRANCH   5   6
ENDBRANCH   4   5
ENDBRANCH   3   4
ENDBRANCH   1   3
BRANCH   1  10
ATOM     10  O   UNL     1       4.998   4.456  18.168  0.00  0.00    +0.000 OA
BRANCH  10  11
ATOM     11  C   UNL     1       5.875   4.607  17.105  0.00  0.00    +0.000 C 
ATOM     12  C   UNL     1       7.336   4.540  17.602  0.00  0.00    +0.000 C 
ATOM     13 SE   UNL     1       7.683   5.836  19.022  0.00  0.00    +0.000 Se
ATOM     14 SE   UNL     1       7.587   7.618  17.464  0.00  0.00    +0.000 Se
ATOM     15  C   UNL     1       5.708   7.214  17.115  0.00  0.00    +0.000 C 
ATOM     16  C   UNL     1       5.516   5.904  16.330  0.00  0.00    +0.000 C 
BRANCH  16  17
ATOM     17  O   UNL     1       6.162   5.960  15.080  0.00  0.00    +0.000 OA
ATOM     18  H   UNL     1       5.554   6.390  14.428  0.00  0.00    +0.000 HD
ENDBRANCH  16  17
ENDBRANCH  10  11
ENDBRANCH   1  10
TORSDOF 9
ENDMDL
MODEL 4
REMARK VINA RESULT:      -6.0      1.640      2.349
REMARK  Name = 
REMARK  10 active torsions:
REMARK  status: ('A' for Active; 'I' for Inactive)
REMARK    1  A    between atoms: C_1  and  C_2
REMARK    2  A    between atoms: C_2  and  C_3
REMARK    3  A    between atoms: C_3  and  C_4
REMARK    4  A    between atoms: C_4  and  C_5
REMARK    5  A    between atoms: C_5  and  C_6
REMARK    6  A    between atoms: C_6  and  C_7
REMARK    7  A    between atoms: C_7  and  C_8
REMARK    8  A    between atoms: C_8  and  O_10
REMARK    9  A    between atoms: O_10  and  C_11
REMARK   10  A    between atoms: C_16  and  O_17
REMARK                            x       y       z     vdW  Elec       q    Type
REMARK                         _______ _______ _______ _____ _____    ______ ____
ROOT
ATOM      1  C   UNL     1       6.369   4.833  18.726  0.00  0.00    +0.000 C 
ATOM      2  O   UNL     1       6.972   5.353  19.655  0.00  0.00    +0.000 OA
ENDROOT
BRANCH   1   3
ATOM      3  C   UNL     1       6.611   5.314  17.325  0.00  0.00    +0.000 C 
BRANCH   3   4
ATOM      4  C   UNL     1       5.604   4.682  16.360  0.00  0.00    +0.000 C 
BRANCH   4   5
ATOM      5  C   UNL     1       6.315   3.950  15.214  0.00  0.00    +0.000 C 
BRANCH   5   6
ATOM      6  C   UNL     1       5.622   4.238  13.877  0.00  0.00    +0.000 C 
BRANCH   6   7
ATOM      7  C   UNL     1       6.446   3.717  12.694  0.00  0.00    +0.000 C 
BRANCH   7   9
ATOM      8  C   UNL     1       4.299   3.271  11.441  0.00  0.00    +0.000 C 
ATOM      9  C   UNL     1       5.641   2.695  11.882  0.00  0.00    +0.000 C 
ENDBRANCH   7   9
ENDBRANCH   6   7
ENDBRANCH   5   6
ENDBRANCH   4   5
ENDBRANCH   3   4
ENDBRANCH   1   3
BRANCH   1  10
ATOM     10  O   UNL     1       5.460   3.846  18.953  0.00  0.00    +0.000 OA
BRANCH  10  11
ATOM     11  C   UNL     1       4.492   3.870  19.945  0.00  0.00    +0.000 C 
ATOM     12  C   UNL     1       3.851   2.473  20.101  0.00  0.00    +0.000 C 
ATOM     13 SE   UNL     1       3.142   1.803  18.409  0.00  0.00    +0.000 Se
ATOM     14 SE   UNL     1       1.367   3.368  18.495  0.00  0.00    +0.000 Se
ATOM     15  C   UNL     1       2.650   4.834  18.364  0.00  0.00    +0.000 C 
ATOM     16  C   UNL     1       3.484   5.013  19.646  0.00  0.00    +0.000 C 
BRANCH  16  17
ATOM     17  O   UNL     1       2.661   5.285  20.755  0.00  0.00    +0.000 OA
ATOM     18  H   UNL     1       1.732   5.025  20.531  0.00  0.00    +0.000 HD
ENDBRANCH  16  17
ENDBRANCH  10  11
ENDBRANCH   1  10
TORSDOF 9
ENDMDL
MODEL 5
REMARK VINA RESULT:      -6.0      1.692      2.416
REMARK  Name = 
REMARK  10 active torsions:
REMARK  status: ('A' for Active; 'I' for Inactive)
REMARK    1  A    between atoms: C_1  and  C_2
REMARK    2  A    between atoms: C_2  and  C_3
REMARK    3  A    between atoms: C_3  and  C_4
REMARK    4  A    between atoms: C_4  and  C_5
REMARK    5  A    between atoms: C_5  and  C_6
REMARK    6  A    between atoms: C_6  and  C_7
REMARK    7  A    between atoms: C_7  and  C_8
REMARK    8  A    between atoms: C_8  and  O_10
REMARK    9  A    between atoms: O_10  and  C_11
REMARK   10  A    between atoms: C_16  and  O_17
REMARK                            x       y       z     vdW  Elec       q    Type
REMARK                         _______ _______ _______ _____ _____    ______ ____
ROOT
ATOM      1  C   UNL     1       6.569   4.281  15.971  0.00  0.00    +0.000 C 
ATOM      2  O   UNL     1       7.685   4.275  16.474  0.00  0.00    +0.000 OA
ENDROOT
BRANCH   1   3
ATOM      3  C   UNL     1       6.333   5.045  14.701  0.00  0.00    +0.000 C 
BRANCH   3   4
ATOM      4  C   UNL     1       5.451   4.237  13.745  0.00  0.00    +0.000 C 
BRANCH   4   5
ATOM      5  C   UNL     1       6.287   3.262  12.905  0.00  0.00    +0.000 C 
BRANCH   5   6
ATOM      6  C   UNL     1       5.513   2.827  11.655  0.00  0.00    +0.000 C 
BRANCH   6   7
ATOM      7  C   UNL     1       4.145   3.515  11.574  0.00  0.00    +0.000 C 
BRANCH   7   9
ATOM      8  C   UNL     1       2.853   4.301   9.552  0.00  0.00    +0.000 C 
ATOM      9  C   UNL     1       3.400   3.091  10.302  0.00  0.00    +0.000 C 
ENDBRANCH   7   9
ENDBRANCH   6   7
ENDBRANCH   5   6
ENDBRANCH   4   5
ENDBRANCH   3   4
ENDBRANCH   1   3
BRANCH   1  10
ATOM     10  O   UNL     1       5.534   3.628  16.567  0.00  0.00    +0.000 OA
BRANCH  10  11
ATOM     11  C   UNL     1       4.258   4.143  16.731  0.00  0.00    +0.000 C 
ATOM     12  C   UNL     1       4.302   5.415  17.606  0.00  0.00    +0.000 C 
ATOM     13 SE   UNL     1       5.182   5.091  19.320  0.00  0.00    +0.000 Se
ATOM     14 SE   UNL     1       3.326   3.826  20.071  0.00  0.00    +0.000 Se
ATOM     15  C   UNL     1       3.659   2.503  18.674  0.00  0.00    +0.000 C 
ATOM     16  C   UNL     1       3.323   3.025  17.265  0.00  0.00    +0.000 C 
BRANCH  16  17
ATOM     17  O   UNL     1       1.966   3.389  17.170  0.00  0.00    +0.000 OA
ATOM     18  H   UNL     1       1.610   3.529  18.083  0.00  0.00    +0.000 HD
ENDBRANCH  16  17
ENDBRANCH  10  11
ENDBRANCH   1  10
TORSDOF 9
ENDMDL
MODEL 6
REMARK VINA RESULT:      -5.9      1.907      2.611
REMARK  Name = 
REMARK  10 active torsions:
REMARK  status: ('A' for Active; 'I' for Inactive)
REMARK    1  A    between atoms: C_1  and  C_2
REMARK    2  A    between atoms: C_2  and  C_3
REMARK    3  A    between atoms: C_3  and  C_4
REMARK    4  A    between atoms: C_4  and  C_5
REMARK    5  A    between atoms: C_5  and  C_6
REMARK    6  A    between atoms: C_6  and  C_7
REMARK    7  A    between atoms: C_7  and  C_8
REMARK    8  A    between atoms: C_8  and  O_10
REMARK    9  A    between atoms: O_10  and  C_11
REMARK   10  A    between atoms: C_16  and  O_17
REMARK                            x       y       z     vdW  Elec       q    Type
REMARK                         _______ _______ _______ _____ _____    ______ ____
ROOT
ATOM      1  C   UNL     1       6.885   4.869  18.264  0.00  0.00    +0.000 C 
ATOM      2  O   UNL     1       7.521   5.067  19.291  0.00  0.00    +0.000 OA
ENDROOT
BRANCH   1   3
ATOM      3  C   UNL     1       7.614   4.539  16.994  0.00  0.00    +0.000 C 
BRANCH   3   4
ATOM      4  C   UNL     1       6.784   4.954  15.777  0.00  0.00    +0.000 C 
BRANCH   4   5
ATOM      5  C   UNL     1       6.058   3.750  15.161  0.00  0.00    +0.000 C 
BRANCH   5   6
ATOM      6  C   UNL     1       5.476   4.114  13.789  0.00  0.00    +0.000 C 
BRANCH   6   7
ATOM      7  C   UNL     1       6.346   3.570  12.650  0.00  0.00    +0.000 C 
BRANCH   7   9
ATOM      8  C   UNL     1       6.472   1.562  11.123  0.00  0.00    +0.000 C 
ATOM      9  C   UNL     1       5.551   2.581  11.787  0.00  0.00    +0.000 C 
ENDBRANCH   7   9
ENDBRANCH   6   7
ENDBRANCH   5   6
ENDBRANCH   4   5
ENDBRANCH   3   4
ENDBRANCH   1   3
BRANCH   1  10
ATOM     10  O   UNL     1       5.528   4.977  18.255  0.00  0.00    +0.000 OA
BRANCH  10  11
ATOM     11  C   UNL     1       4.709   4.794  19.357  0.00  0.00    +0.000 C 
ATOM     12  C   UNL     1       4.359   3.298  19.522  0.00  0.00    +0.000 C 
ATOM     13 SE   UNL     1       3.573   2.550  17.897  0.00  0.00    +0.000 Se
ATOM     14 SE   UNL     1       1.567   3.752  18.275  0.00  0.00    +0.000 Se
ATOM     15  C   UNL     1       2.533   5.435  18.061  0.00  0.00    +0.000 C 
ATOM     16  C   UNL     1       3.479   5.734  19.239  0.00  0.00    +0.000 C 
BRANCH  16  17
ATOM     17  O   UNL     1       2.769   5.820  20.451  0.00  0.00    +0.000 OA
ATOM     18  H   UNL     1       3.359   5.517  21.186  0.00  0.00    +0.000 HD
ENDBRANCH  16  17
ENDBRANCH  10  11
ENDBRANCH   1  10
TORSDOF 9
ENDMDL
MODEL 7
REMARK VINA RESULT:      -5.8      1.270      1.530
REMARK  Name = 
REMARK  10 active torsions:
REMARK  status: ('A' for Active; 'I' for Inactive)
REMARK    1  A    between atoms: C_1  and  C_2
REMARK    2  A    between atoms: C_2  and  C_3
REMARK    3  A    between atoms: C_3  and  C_4
REMARK    4  A    between atoms: C_4  and  C_5
REMARK    5  A    between atoms: C_5  and  C_6
REMARK    6  A    between atoms: C_6  and  C_7
REMARK    7  A    between atoms: C_7  and  C_8
REMARK    8  A    between atoms: C_8  and  O_10
REMARK    9  A    between atoms: O_10  and  C_11
REMARK   10  A    between atoms: C_16  and  O_17
REMARK                            x       y       z     vdW  Elec       q    Type
REMARK                         _______ _______ _______ _____ _____    ______ ____
ROOT
ATOM      1  C   UNL     1       5.893   5.385  18.733  0.00  0.00    +0.000 C 
ATOM      2  O   UNL     1       6.866   5.311  19.473  0.00  0.00    +0.000 OA
ENDROOT
BRANCH   1   3
ATOM      3  C   UNL     1       5.936   6.300  17.544  0.00  0.00    +0.000 C 
BRANCH   3   4
ATOM      4  C   UNL     1       6.959   5.801  16.520  0.00  0.00    +0.000 C 
BRANCH   4   5
ATOM      5  C   UNL     1       6.850   4.284  16.318  0.00  0.00    +0.000 C 
BRANCH   5   6
ATOM      6  C   UNL     1       5.928   3.961  15.136  0.00  0.00    +0.000 C 
BRANCH   6   7
ATOM      7  C   UNL     1       6.512   4.473  13.814  0.00  0.00    +0.000 C 
BRANCH   7   9
ATOM      8  C   UNL     1       4.901   3.506  12.126  0.00  0.00    +0.000 C 
ATOM      9  C   UNL     1       6.314   3.439  12.698  0.00  0.00    +0.000 C 
ENDBRANCH   7   9
ENDBRANCH   6   7
ENDBRANCH   5   6
ENDBRANCH   4   5
ENDBRANCH   3   4
ENDBRANCH   1   3
BRANCH   1  10
ATOM     10  O   UNL     1       4.765   4.671  18.995  0.00  0.00    +0.000 OA
BRANCH  10  11
ATOM     11  C   UNL     1       3.617   4.684  18.217  0.00  0.00    +0.000 C 
ATOM     12  C   UNL     1       2.522   5.538  18.893  0.00  0.00    +0.000 C 
ATOM     13 SE   UNL     1       2.158   4.945  20.719  0.00  0.00    +0.000 Se
ATOM     14 SE   UNL     1       1.082   2.997  19.906  0.00  0.00    +0.000 Se
ATOM     15  C   UNL     1       2.767   2.388  19.129  0.00  0.00    +0.000 C 
ATOM     16  C   UNL     1       3.196   3.222  17.907  0.00  0.00    +0.000 C 
BRANCH  16  17
ATOM     17  O   UNL     1       2.229   3.163  16.886  0.00  0.00    +0.000 OA
ATOM     18  H   UNL     1       1.597   2.428  17.090  0.00  0.00    +0.000 HD
ENDBRANCH  16  17
ENDBRANCH  10  11
ENDBRANCH   1  10
TORSDOF 9
ENDMDL
MODEL 8
REMARK VINA RESULT:      -5.8      1.895      2.738
REMARK  Name = 
REMARK  10 active torsions:
REMARK  status: ('A' for Active; 'I' for Inactive)
REMARK    1  A    between atoms: C_1  and  C_2
REMARK    2  A    between atoms: C_2  and  C_3
REMARK    3  A    between atoms: C_3  and  C_4
REMARK    4  A    between atoms: C_4  and  C_5
REMARK    5  A    between atoms: C_5  and  C_6
REMARK    6  A    between atoms: C_6  and  C_7
REMARK    7  A    between atoms: C_7  and  C_8
REMARK    8  A    between atoms: C_8  and  O_10
REMARK    9  A    between atoms: O_10  and  C_11
REMARK   10  A    between atoms: C_16  and  O_17
REMARK                            x       y       z     vdW  Elec       q    Type
REMARK                         _______ _______ _______ _____ _____    ______ ____
ROOT
ATOM      1  C   UNL     1       6.782   4.853  18.084  0.00  0.00    +0.000 C 
ATOM      2  O   UNL     1       7.632   4.798  18.963  0.00  0.00    +0.000 OA
ENDROOT
BRANCH   1   3
ATOM      3  C   UNL     1       7.038   5.679  16.857  0.00  0.00    +0.000 C 
BRANCH   3   4
ATOM      4  C   UNL     1       5.717   6.153  16.246  0.00  0.00    +0.000 C 
BRANCH   4   5
ATOM      5  C   UNL     1       5.359   5.342  14.994  0.00  0.00    +0.000 C 
BRANCH   5   6
ATOM      6  C   UNL     1       6.560   4.509  14.529  0.00  0.00    +0.000 C 
BRANCH   6   7
ATOM      7  C   UNL     1       6.225   3.695  13.274  0.00  0.00    +0.000 C 
BRANCH   7   9
ATOM      8  C   UNL     1       7.928   5.370  12.456  0.00  0.00    +0.000 C 
ATOM      9  C   UNL     1       7.043   4.189  12.074  0.00  0.00    +0.000 C 
ENDBRANCH   7   9
ENDBRANCH   6   7
ENDBRANCH   5   6
ENDBRANCH   4   5
ENDBRANCH   3   4
ENDBRANCH   1   3
BRANCH   1  10
ATOM     10  O   UNL     1       5.596   4.200  18.223  0.00  0.00    +0.000 OA
BRANCH  10  11
ATOM     11  C   UNL     1       4.812   4.210  19.366  0.00  0.00    +0.000 C 
ATOM     12  C   UNL     1       4.297   2.786  19.674  0.00  0.00    +0.000 C 
ATOM     13 SE   UNL     1       3.354   2.007  18.150  0.00  0.00    +0.000 Se
ATOM     14 SE   UNL     1       1.523   3.471  18.494  0.00  0.00    +0.000 Se
ATOM     15  C   UNL     1       2.670   5.001  18.098  0.00  0.00    +0.000 C 
ATOM     16  C   UNL     1       3.698   5.280  19.210  0.00  0.00    +0.000 C 
BRANCH  16  17
ATOM     17  O   UNL     1       3.060   5.550  20.436  0.00  0.00    +0.000 OA
ATOM     18  H   UNL     1       2.113   5.269  20.369  0.00  0.00    +0.000 HD
ENDBRANCH  16  17
ENDBRANCH  10  11
ENDBRANCH   1  10
TORSDOF 9
ENDMDL
MODEL 9
REMARK VINA RESULT:      -5.8      3.939      5.634
REMARK  Name = 
REMARK  10 active torsions:
REMARK  status: ('A' for Active; 'I' for Inactive)
REMARK    1  A    between atoms: C_1  and  C_2
REMARK    2  A    between atoms: C_2  and  C_3
REMARK    3  A    between atoms: C_3  and  C_4
REMARK    4  A    between atoms: C_4  and  C_5
REMARK    5  A    between atoms: C_5  and  C_6
REMARK    6  A    between atoms: C_6  and  C_7
REMARK    7  A    between atoms: C_7  and  C_8
REMARK    8  A    between atoms: C_8  and  O_10
REMARK    9  A    between atoms: O_10  and  C_11
REMARK   10  A    between atoms: C_16  and  O_17
REMARK                            x       y       z     vdW  Elec       q    Type
REMARK                         _______ _______ _______ _____ _____    ______ ____
ROOT
ATOM      1  C   UNL     1       6.808   5.309  19.247  0.00  0.00    +0.000 C 
ATOM      2  O   UNL     1       7.444   5.397  20.289  0.00  0.00    +0.000 OA
ENDROOT
BRANCH   1   3
ATOM      3  C   UNL     1       7.486   5.593  17.939  0.00  0.00    +0.000 C 
BRANCH   3   4
ATOM      4  C   UNL     1       7.351   7.074  17.576  0.00  0.00    +0.000 C 
BRANCH   4   5
ATOM      5  C   UNL     1       8.305   7.941  18.407  0.00  0.00    +0.000 C 
BRANCH   5   6
ATOM      6  C   UNL     1       8.245   9.403  17.949  0.00  0.00    +0.000 C 
BRANCH   6   7
ATOM      7  C   UNL     1       9.155  10.296  18.801  0.00  0.00    +0.000 C 
BRANCH   7   9
ATOM      8  C   UNL     1       9.204  12.818  18.698  0.00  0.00    +0.000 C 
ATOM      9  C   UNL     1       9.611  11.523  18.002  0.00  0.00    +0.000 C 
ENDBRANCH   7   9
ENDBRANCH   6   7
ENDBRANCH   5   6
ENDBRANCH   4   5
ENDBRANCH   3   4
ENDBRANCH   1   3
BRANCH   1  10
ATOM     10  O   UNL     1       5.486   4.986  19.266  0.00  0.00    +0.000 OA
BRANCH  10  11
ATOM     11  C   UNL     1       4.879   4.070  18.422  0.00  0.00    +0.000 C 
ATOM     12  C   UNL     1       3.859   4.781  17.505  0.00  0.00    +0.000 C 
ATOM     13 SE   UNL     1       2.549   5.806  18.528  0.00  0.00    +0.000 Se
ATOM     14 SE   UNL     1       1.510   3.808  19.264  0.00  0.00    +0.000 Se
ATOM     15  C   UNL     1       3.140   3.309  20.217  0.00  0.00    +0.000 C 
ATOM     16  C   UNL     1       4.287   2.911  19.269  0.00  0.00    +0.000 C 
BRANCH  16  17
ATOM     17  O   UNL     1       3.926   1.811  18.469  0.00  0.00    +0.000 OA
ATOM     18  H   UNL     1       4.390   1.005  18.810  0.00  0.00    +0.000 HD
ENDBRANCH  16  17
ENDBRANCH  10  11
ENDBRANCH   1  10
TORSDOF 9
ENDMDL
