MODEL 1
REMARK VINA RESULT:      -8.3      0.000      0.000
REMARK  Name = 
REMARK  5 active torsions:
REMARK  status: ('A' for Active; 'I' for Inactive)
REMARK    1  A    between atoms: C_1  and  O_2
REMARK    2  A    between atoms: O_2  and  C_3
REMARK    3  A    between atoms: N_7  and  S_8
REMARK    4  A    between atoms: S_8  and  C_11
REMARK    5  A    between atoms: C_18  and  C_19
REMARK                            x       y       z     vdW  Elec       q    Type
REMARK                         _______ _______ _______ _____ _____    ______ ____
ROOT
ATOM      1  C   UNL     1       2.925   5.647  18.754  0.00  0.00    +0.000 A 
ATOM      2  C   UNL     1       3.032   6.549  17.693  0.00  0.00    +0.000 A 
ATOM      3  C   UNL     1       2.537   7.843  17.841  0.00  0.00    +0.000 A 
ATOM      4  C   UNL     1       1.937   8.211  19.046  0.00  0.00    +0.000 A 
ATOM      5  N   UNL     1       1.430   9.504  19.204  0.00  0.00    +0.000 N 
ATOM      6  C   UNL     1       0.806   9.941  20.340  0.00  0.00    +0.000 A 
ATOM      7  O   UNL     1       0.375  11.090  20.418  0.00  0.00    +0.000 OA
ATOM      8  C   UNL     1       0.667   8.968  21.464  0.00  0.00    +0.000 A 
ATOM      9  C   UNL     1      -0.063   9.402  22.695  0.00  0.00    +0.000 C 
ATOM     10  C   UNL     1       1.175   7.727  21.344  0.00  0.00    +0.000 A 
ATOM     11  C   UNL     1       1.830   7.304  20.110  0.00  0.00    +0.000 A 
ATOM     12  C   UNL     1       2.337   6.015  19.965  0.00  0.00    +0.000 A 
ATOM     13  H   UNL     1       1.509  10.181  18.458  0.00  0.00    +0.000 HD
ENDROOT
BRANCH   1  14
ATOM     14  S   UNL     1       3.649   4.049  18.598  0.00  0.00    +0.000 S 
ATOM     15  O   UNL     1       3.255   3.488  17.324  0.00  0.00    +0.000 OA
ATOM     16  O   UNL     1       3.382   3.344  19.833  0.00  0.00    +0.000 OA
BRANCH  14  21
ATOM     17  C   UNL     1       7.164   4.910  16.792  0.00  0.00    +0.000 C 
ATOM     18  C   UNL     1       7.612   6.051  17.704  0.00  0.00    +0.000 C 
ATOM     19  C   UNL     1       7.315   5.730  19.162  0.00  0.00    +0.000 C 
ATOM     20  C   UNL     1       5.823   5.473  19.369  0.00  0.00    +0.000 C 
ATOM     21  N   UNL     1       5.356   4.346  18.512  0.00  0.00    +0.000 NA
ATOM     22  C   UNL     1       5.710   4.525  17.071  0.00  0.00    +0.000 C 
BRANCH  17  24
ATOM     23  C   UNL     1       6.628   4.598  14.471  0.00  0.00    +0.000 C 
ATOM     24  O   UNL     1       7.338   5.366  15.438  0.00  0.00    +0.000 OA
ENDBRANCH  17  24
ENDBRANCH  14  21
ENDBRANCH   1  14
TORSDOF 3
ENDMDL
MODEL 2
REMARK VINA RESULT:      -8.1      1.015      1.916
REMARK  Name = 
REMARK  5 active torsions:
REMARK  status: ('A' for Active; 'I' for Inactive)
REMARK    1  A    between atoms: C_1  and  O_2
REMARK    2  A    between atoms: O_2  and  C_3
REMARK    3  A    between atoms: N_7  and  S_8
REMARK    4  A    between atoms: S_8  and  C_11
REMARK    5  A    between atoms: C_18  and  C_19
REMARK                            x       y       z     vdW  Elec       q    Type
REMARK                         _______ _______ _______ _____ _____    ______ ____
ROOT
ATOM      1  C   UNL     1       3.203   4.899  19.272  0.00  0.00    +0.000 A 
ATOM      2  C   UNL     1       2.582   4.715  20.509  0.00  0.00    +0.000 A 
ATOM      3  C   UNL     1       1.817   5.745  21.053  0.00  0.00    +0.000 A 
ATOM      4  C   UNL     1       1.692   6.945  20.352  0.00  0.00    +0.000 A 
ATOM      5  N   UNL     1       0.934   7.988  20.891  0.00  0.00    +0.000 N 
ATOM      6  C   UNL     1       0.777   9.205  20.285  0.00  0.00    +0.000 A 
ATOM      7  O   UNL     1       0.101  10.087  20.810  0.00  0.00    +0.000 OA
ATOM      8  C   UNL     1       1.464   9.412  18.975  0.00  0.00    +0.000 A 
ATOM      9  C   UNL     1       1.358  10.752  18.320  0.00  0.00    +0.000 C 
ATOM     10  C   UNL     1       2.175   8.410  18.424  0.00  0.00    +0.000 A 
ATOM     11  C   UNL     1       2.316   7.129  19.111  0.00  0.00    +0.000 A 
ATOM     12  C   UNL     1       3.069   6.094  18.562  0.00  0.00    +0.000 A 
ATOM     13  H   UNL     1       0.461   7.875  21.776  0.00  0.00    +0.000 HD
ENDROOT
BRANCH   1  14
ATOM     14  S   UNL     1       4.078   3.556  18.541  0.00  0.00    +0.000 S 
ATOM     15  O   UNL     1       3.603   3.383  17.185  0.00  0.00    +0.000 OA
ATOM     16  O   UNL     1       4.036   2.462  19.487  0.00  0.00    +0.000 OA
BRANCH  14  21
ATOM     17  C   UNL     1       7.374   5.015  16.708  0.00  0.00    +0.000 C 
ATOM     18  C   UNL     1       7.677   6.164  17.669  0.00  0.00    +0.000 C 
ATOM     19  C   UNL     1       7.473   5.731  19.114  0.00  0.00    +0.000 C 
ATOM     20  C   UNL     1       6.041   5.247  19.339  0.00  0.00    +0.000 C 
ATOM     21  N   UNL     1       5.719   4.106  18.434  0.00  0.00    +0.000 NA
ATOM     22  C   UNL     1       6.002   4.406  16.997  0.00  0.00    +0.000 C 
BRANCH  17  24
ATOM     23  C   UNL     1       6.720   4.804  14.407  0.00  0.00    +0.000 C 
ATOM     24  O   UNL     1       7.441   5.557  15.377  0.00  0.00    +0.000 OA
ENDBRANCH  17  24
ENDBRANCH  14  21
ENDBRANCH   1  14
TORSDOF 3
ENDMDL
MODEL 3
REMARK VINA RESULT:      -8.1      1.312      1.990
REMARK  Name = 
REMARK  5 active torsions:
REMARK  status: ('A' for Active; 'I' for Inactive)
REMARK    1  A    between atoms: C_1  and  O_2
REMARK    2  A    between atoms: O_2  and  C_3
REMARK    3  A    between atoms: N_7  and  S_8
REMARK    4  A    between atoms: S_8  and  C_11
REMARK    5  A    between atoms: C_18  and  C_19
REMARK                            x       y       z     vdW  Elec       q    Type
REMARK                         _______ _______ _______ _____ _____    ______ ____
ROOT
ATOM      1  C   UNL     1       2.513   6.566  18.878  0.00  0.00    +0.000 A 
ATOM      2  C   UNL     1       2.517   7.520  17.859  0.00  0.00    +0.000 A 
ATOM      3  C   UNL     1       1.975   8.781  18.099  0.00  0.00    +0.000 A 
ATOM      4  C   UNL     1       1.433   9.064  19.354  0.00  0.00    +0.000 A 
ATOM      5  N   UNL     1       0.880  10.323  19.604  0.00  0.00    +0.000 N 
ATOM      6  C   UNL     1       0.306  10.677  20.794  0.00  0.00    +0.000 A 
ATOM      7  O   UNL     1      -0.169  11.799  20.954  0.00  0.00    +0.000 OA
ATOM      8  C   UNL     1       0.278   9.647  21.875  0.00  0.00    +0.000 A 
ATOM      9  C   UNL     1      -0.396   9.989  23.166  0.00  0.00    +0.000 C 
ATOM     10  C   UNL     1       0.832   8.438  21.665  0.00  0.00    +0.000 A 
ATOM     11  C   UNL     1       1.430   8.105  20.375  0.00  0.00    +0.000 A 
ATOM     12  C   UNL     1       1.984   6.849  20.138  0.00  0.00    +0.000 A 
ATOM     13  H   UNL     1       0.884  11.037  18.889  0.00  0.00    +0.000 HD
ENDROOT
BRANCH   1  14
ATOM     14  S   UNL     1       3.297   5.012  18.602  0.00  0.00    +0.000 S 
ATOM     15  O   UNL     1       2.286   4.050  18.221  0.00  0.00    +0.000 OA
ATOM     16  O   UNL     1       4.162   4.769  19.737  0.00  0.00    +0.000 OA
BRANCH  14  21
ATOM     17  C   UNL     1       6.596   6.216  16.596  0.00  0.00    +0.000 C 
ATOM     18  C   UNL     1       6.871   4.928  15.821  0.00  0.00    +0.000 C 
ATOM     19  C   UNL     1       5.577   4.321  15.299  0.00  0.00    +0.000 C 
ATOM     20  C   UNL     1       4.613   4.025  16.447  0.00  0.00    +0.000 C 
ATOM     21  N   UNL     1       4.301   5.267  17.210  0.00  0.00    +0.000 NA
ATOM     22  C   UNL     1       5.526   5.993  17.666  0.00  0.00    +0.000 C 
BRANCH  17  24
ATOM     23  C   UNL     1       7.843   7.960  17.680  0.00  0.00    +0.000 C 
ATOM     24  O   UNL     1       7.846   6.627  17.179  0.00  0.00    +0.000 OA
ENDBRANCH  17  24
ENDBRANCH  14  21
ENDBRANCH   1  14
TORSDOF 3
ENDMDL
MODEL 4
REMARK VINA RESULT:      -8.1      2.610      4.025
REMARK  Name = 
REMARK  5 active torsions:
REMARK  status: ('A' for Active; 'I' for Inactive)
REMARK    1  A    between atoms: C_1  and  O_2
REMARK    2  A    between atoms: O_2  and  C_3
REMARK    3  A    between atoms: N_7  and  S_8
REMARK    4  A    between atoms: S_8  and  C_11
REMARK    5  A    between atoms: C_18  and  C_19
REMARK                            x       y       z     vdW  Elec       q    Type
REMARK                         _______ _______ _______ _____ _____    ______ ____
ROOT
ATOM      1  C   UNL     1       3.039   7.100  18.401  0.00  0.00    +0.000 A 
ATOM      2  C   UNL     1       2.707   8.051  17.434  0.00  0.00    +0.000 A 
ATOM      3  C   UNL     1       1.847   9.096  17.766  0.00  0.00    +0.000 A 
ATOM      4  C   UNL     1       1.328   9.167  19.060  0.00  0.00    +0.000 A 
ATOM      5  N   UNL     1       0.458  10.206  19.403  0.00  0.00    +0.000 N 
ATOM      6  C   UNL     1      -0.116  10.339  20.638  0.00  0.00    +0.000 A 
ATOM      7  O   UNL     1      -0.878  11.272  20.880  0.00  0.00    +0.000 OA
ATOM      8  C   UNL     1       0.218   9.306  21.664  0.00  0.00    +0.000 A 
ATOM      9  C   UNL     1      -0.441   9.396  23.004  0.00  0.00    +0.000 C 
ATOM     10  C   UNL     1       1.077   8.315  21.363  0.00  0.00    +0.000 A 
ATOM     11  C   UNL     1       1.661   8.212  20.029  0.00  0.00    +0.000 A 
ATOM     12  C   UNL     1       2.532   7.176  19.699  0.00  0.00    +0.000 A 
ATOM     13  H   UNL     1       0.214  10.916  18.727  0.00  0.00    +0.000 HD
ENDROOT
BRANCH   1  14
ATOM     14  S   UNL     1       4.211   5.846  18.005  0.00  0.00    +0.000 S 
ATOM     15  O   UNL     1       5.256   5.862  19.005  0.00  0.00    +0.000 OA
ATOM     16  O   UNL     1       4.526   5.993  16.600  0.00  0.00    +0.000 OA
BRANCH  14  21
ATOM     17  C   UNL     1       2.777   2.645  20.019  0.00  0.00    +0.000 C 
ATOM     18  C   UNL     1       1.312   2.752  19.598  0.00  0.00    +0.000 C 
ATOM     19  C   UNL     1       1.194   3.112  18.124  0.00  0.00    +0.000 C 
ATOM     20  C   UNL     1       1.903   4.433  17.830  0.00  0.00    +0.000 C 
ATOM     21  N   UNL     1       3.345   4.356  18.204  0.00  0.00    +0.000 NA
ATOM     22  C   UNL     1       3.557   3.896  19.610  0.00  0.00    +0.000 C 
BRANCH  17  24
ATOM     23  C   UNL     1       1.507   2.576  22.057  0.00  0.00    +0.000 C 
ATOM     24  O   UNL     1       2.789   2.460  21.446  0.00  0.00    +0.000 OA
ENDBRANCH  17  24
ENDBRANCH  14  21
ENDBRANCH   1  14
TORSDOF 3
ENDMDL
MODEL 5
REMARK VINA RESULT:      -8.0      1.851      7.179
REMARK  Name = 
REMARK  5 active torsions:
REMARK  status: ('A' for Active; 'I' for Inactive)
REMARK    1  A    between atoms: C_1  and  O_2
REMARK    2  A    between atoms: O_2  and  C_3
REMARK    3  A    between atoms: N_7  and  S_8
REMARK    4  A    between atoms: S_8  and  C_11
REMARK    5  A    between atoms: C_18  and  C_19
REMARK                            x       y       z     vdW  Elec       q    Type
REMARK                         _______ _______ _______ _____ _____    ______ ____
ROOT
ATOM      1  C   UNL     1       4.260   5.178  17.979  0.00  0.00    +0.000 A 
ATOM      2  C   UNL     1       5.333   5.985  18.364  0.00  0.00    +0.000 A 
ATOM      3  C   UNL     1       6.392   6.184  17.480  0.00  0.00    +0.000 A 
ATOM      4  C   UNL     1       6.362   5.566  16.229  0.00  0.00    +0.000 A 
ATOM      5  N   UNL     1       7.423   5.752  15.337  0.00  0.00    +0.000 N 
ATOM      6  C   UNL     1       7.488   5.167  14.103  0.00  0.00    +0.000 A 
ATOM      7  O   UNL     1       8.450   5.364  13.363  0.00  0.00    +0.000 OA
ATOM      8  C   UNL     1       6.353   4.283  13.703  0.00  0.00    +0.000 A 
ATOM      9  C   UNL     1       6.427   3.584  12.382  0.00  0.00    +0.000 C 
ATOM     10  C   UNL     1       5.308   4.114  14.534  0.00  0.00    +0.000 A 
ATOM     11  C   UNL     1       5.285   4.757  15.844  0.00  0.00    +0.000 A 
ATOM     12  C   UNL     1       4.220   4.570  16.723  0.00  0.00    +0.000 A 
ATOM     13  H   UNL     1       8.204   6.344  15.584  0.00  0.00    +0.000 HD
ENDROOT
BRANCH   1  14
ATOM     14  S   UNL     1       2.875   5.020  19.057  0.00  0.00    +0.000 S 
ATOM     15  O   UNL     1       3.261   4.196  20.182  0.00  0.00    +0.000 OA
ATOM     16  O   UNL     1       1.739   4.665  18.233  0.00  0.00    +0.000 OA
BRANCH  14  21
ATOM     17  C   UNL     1       1.821   8.920  18.874  0.00  0.00    +0.000 C 
ATOM     18  C   UNL     1       0.853   8.948  20.056  0.00  0.00    +0.000 C 
ATOM     19  C   UNL     1       1.397   8.136  21.223  0.00  0.00    +0.000 C 
ATOM     20  C   UNL     1       1.647   6.687  20.807  0.00  0.00    +0.000 C 
ATOM     21  N   UNL     1       2.610   6.620  19.670  0.00  0.00    +0.000 NA
ATOM     22  C   UNL     1       2.209   7.484  18.518  0.00  0.00    +0.000 C 
BRANCH  17  24
ATOM     23  C   UNL     1      -0.151  10.044  18.087  0.00  0.00    +0.000 C 
ATOM     24  O   UNL     1       1.157   9.574  17.777  0.00  0.00    +0.000 OA
ENDBRANCH  17  24
ENDBRANCH  14  21
ENDBRANCH   1  14
TORSDOF 3
ENDMDL
MODEL 6
REMARK VINA RESULT:      -7.7      2.510      3.590
REMARK  Name = 
REMARK  5 active torsions:
REMARK  status: ('A' for Active; 'I' for Inactive)
REMARK    1  A    between atoms: C_1  and  O_2
REMARK    2  A    between atoms: O_2  and  C_3
REMARK    3  A    between atoms: N_7  and  S_8
REMARK    4  A    between atoms: S_8  and  C_11
REMARK    5  A    between atoms: C_18  and  C_19
REMARK                            x       y       z     vdW  Elec       q    Type
REMARK                         _______ _______ _______ _____ _____    ______ ____
ROOT
ATOM      1  C   UNL     1       2.808   7.281  18.459  0.00  0.00    +0.000 A 
ATOM      2  C   UNL     1       2.414   8.233  17.516  0.00  0.00    +0.000 A 
ATOM      3  C   UNL     1       1.573   9.274  17.904  0.00  0.00    +0.000 A 
ATOM      4  C   UNL     1       1.135   9.341  19.228  0.00  0.00    +0.000 A 
ATOM      5  N   UNL     1       0.285  10.377  19.627  0.00  0.00    +0.000 N 
ATOM      6  C   UNL     1      -0.211  10.506  20.895  0.00  0.00    +0.000 A 
ATOM      7  O   UNL     1      -0.959  11.436  21.186  0.00  0.00    +0.000 OA
ATOM      8  C   UNL     1       0.190   9.472  21.896  0.00  0.00    +0.000 A 
ATOM      9  C   UNL     1      -0.385   9.557  23.274  0.00  0.00    +0.000 C 
ATOM     10  C   UNL     1       1.031   8.483  21.541  0.00  0.00    +0.000 A 
ATOM     11  C   UNL     1       1.531   8.385  20.173  0.00  0.00    +0.000 A 
ATOM     12  C   UNL     1       2.383   7.352  19.787  0.00  0.00    +0.000 A 
ATOM     13  H   UNL     1      -0.002  11.087  18.969  0.00  0.00    +0.000 HD
ENDROOT
BRANCH   1  14
ATOM     14  S   UNL     1       3.957   6.031  17.988  0.00  0.00    +0.000 S 
ATOM     15  O   UNL     1       4.832   5.766  19.109  0.00  0.00    +0.000 OA
ATOM     16  O   UNL     1       4.496   6.417  16.702  0.00  0.00    +0.000 OA
BRANCH  14  21
ATOM     17  C   UNL     1       3.124   2.074  18.070  0.00  0.00    +0.000 C 
ATOM     18  C   UNL     1       1.788   2.140  18.809  0.00  0.00    +0.000 C 
ATOM     19  C   UNL     1       0.947   3.306  18.309  0.00  0.00    +0.000 C 
ATOM     20  C   UNL     1       1.691   4.628  18.488  0.00  0.00    +0.000 C 
ATOM     21  N   UNL     1       2.990   4.609  17.756  0.00  0.00    +0.000 NA
ATOM     22  C   UNL     1       3.836   3.427  18.104  0.00  0.00    +0.000 C 
BRANCH  17  24
ATOM     23  C   UNL     1       4.586   1.490  19.884  0.00  0.00    +0.000 C 
ATOM     24  O   UNL     1       3.905   1.051  18.713  0.00  0.00    +0.000 OA
ENDBRANCH  17  24
ENDBRANCH  14  21
ENDBRANCH   1  14
TORSDOF 3
ENDMDL
MODEL 7
REMARK VINA RESULT:      -7.7      2.171      3.909
REMARK  Name = 
REMARK  5 active torsions:
REMARK  status: ('A' for Active; 'I' for Inactive)
REMARK    1  A    between atoms: C_1  and  O_2
REMARK    2  A    between atoms: O_2  and  C_3
REMARK    3  A    between atoms: N_7  and  S_8
REMARK    4  A    between atoms: S_8  and  C_11
REMARK    5  A    between atoms: C_18  and  C_19
REMARK                            x       y       z     vdW  Elec       q    Type
REMARK                         _______ _______ _______ _____ _____    ______ ____
ROOT
ATOM      1  C   UNL     1       3.870   6.283  18.541  0.00  0.00    +0.000 A 
ATOM      2  C   UNL     1       3.741   7.177  17.475  0.00  0.00    +0.000 A 
ATOM      3  C   UNL     1       2.846   8.240  17.577  0.00  0.00    +0.000 A 
ATOM      4  C   UNL     1       2.090   8.387  18.741  0.00  0.00    +0.000 A 
ATOM      5  N   UNL     1       1.183   9.445  18.851  0.00  0.00    +0.000 N 
ATOM      6  C   UNL     1       0.385   9.651  19.943  0.00  0.00    +0.000 A 
ATOM      7  O   UNL     1      -0.398  10.597  19.981  0.00  0.00    +0.000 OA
ATOM      8  C   UNL     1       0.504   8.679  21.071  0.00  0.00    +0.000 A 
ATOM      9  C   UNL     1      -0.399   8.847  22.252  0.00  0.00    +0.000 C 
ATOM     10  C   UNL     1       1.392   7.670  20.998  0.00  0.00    +0.000 A 
ATOM     11  C   UNL     1       2.219   7.489  19.809  0.00  0.00    +0.000 A 
ATOM     12  C   UNL     1       3.125   6.435  19.712  0.00  0.00    +0.000 A 
ATOM     13  H   UNL     1       1.082  10.115  18.102  0.00  0.00    +0.000 HD
ENDROOT
BRANCH   1  14
ATOM     14  S   UNL     1       5.080   5.006  18.449  0.00  0.00    +0.000 S 
ATOM     15  O   UNL     1       5.838   5.003  19.682  0.00  0.00    +0.000 OA
ATOM     16  O   UNL     1       5.744   5.147  17.171  0.00  0.00    +0.000 OA
BRANCH  14  21
ATOM     17  C   UNL     1       2.571   2.182  19.892  0.00  0.00    +0.000 C 
ATOM     18  C   UNL     1       1.607   2.111  18.708  0.00  0.00    +0.000 C 
ATOM     19  C   UNL     1       2.362   2.165  17.388  0.00  0.00    +0.000 C 
ATOM     20  C   UNL     1       3.192   3.445  17.289  0.00  0.00    +0.000 C 
ATOM     21  N   UNL     1       4.164   3.534  18.416  0.00  0.00    +0.000 NA
ATOM     22  C   UNL     1       3.519   3.374  19.755  0.00  0.00    +0.000 C 
BRANCH  17  24
ATOM     23  C   UNL     1       2.003   3.461  21.844  0.00  0.00    +0.000 C 
ATOM     24  O   UNL     1       1.765   2.283  21.080  0.00  0.00    +0.000 OA
ENDBRANCH  17  24
ENDBRANCH  14  21
ENDBRANCH   1  14
TORSDOF 3
ENDMDL
MODEL 8
REMARK VINA RESULT:      -7.7      2.433      7.299
REMARK  Name = 
REMARK  5 active torsions:
REMARK  status: ('A' for Active; 'I' for Inactive)
REMARK    1  A    between atoms: C_1  and  O_2
REMARK    2  A    between atoms: O_2  and  C_3
REMARK    3  A    between atoms: N_7  and  S_8
REMARK    4  A    between atoms: S_8  and  C_11
REMARK    5  A    between atoms: C_18  and  C_19
REMARK                            x       y       z     vdW  Elec       q    Type
REMARK                         _______ _______ _______ _____ _____    ______ ____
ROOT
ATOM      1  C   UNL     1       4.716   3.690  16.976  0.00  0.00    +0.000 A 
ATOM      2  C   UNL     1       5.624   4.506  17.655  0.00  0.00    +0.000 A 
ATOM      3  C   UNL     1       6.648   5.129  16.946  0.00  0.00    +0.000 A 
ATOM      4  C   UNL     1       6.752   4.920  15.570  0.00  0.00    +0.000 A 
ATOM      5  N   UNL     1       7.781   5.534  14.850  0.00  0.00    +0.000 N 
ATOM      6  C   UNL     1       7.971   5.366  13.505  0.00  0.00    +0.000 A 
ATOM      7  O   UNL     1       8.898   5.929  12.927  0.00  0.00    +0.000 OA
ATOM      8  C   UNL     1       7.017   4.471  12.785  0.00  0.00    +0.000 A 
ATOM      9  C   UNL     1       7.239   4.223  11.326  0.00  0.00    +0.000 C 
ATOM     10  C   UNL     1       6.002   3.894  13.453  0.00  0.00    +0.000 A 
ATOM     11  C   UNL     1       5.841   4.101  14.890  0.00  0.00    +0.000 A 
ATOM     12  C   UNL     1       4.809   3.489  15.597  0.00  0.00    +0.000 A 
ATOM     13  H   UNL     1       8.441   6.142  15.313  0.00  0.00    +0.000 HD
ENDROOT
BRANCH   1  14
ATOM     14  S   UNL     1       3.360   2.993  17.859  0.00  0.00    +0.000 S 
ATOM     15  O   UNL     1       3.756   1.694  18.356  0.00  0.00    +0.000 OA
ATOM     16  O   UNL     1       2.191   3.142  17.019  0.00  0.00    +0.000 OA
BRANCH  14  21
ATOM     17  C   UNL     1       2.565   6.445  19.811  0.00  0.00    +0.000 C 
ATOM     18  C   UNL     1       1.532   5.910  20.802  0.00  0.00    +0.000 C 
ATOM     19  C   UNL     1       1.954   4.553  21.348  0.00  0.00    +0.000 C 
ATOM     20  C   UNL     1       2.137   3.545  20.214  0.00  0.00    +0.000 C 
ATOM     21  N   UNL     1       3.160   4.023  19.240  0.00  0.00    +0.000 NA
ATOM     22  C   UNL     1       2.883   5.403  18.737  0.00  0.00    +0.000 C 
BRANCH  17  24
ATOM     23  C   UNL     1       2.522   7.957  17.945  0.00  0.00    +0.000 C 
ATOM     24  O   UNL     1       2.010   7.641  19.236  0.00  0.00    +0.000 OA
ENDBRANCH  17  24
ENDBRANCH  14  21
ENDBRANCH   1  14
TORSDOF 3
ENDMDL
MODEL 9
REMARK VINA RESULT:      -7.7      1.319      2.615
REMARK  Name = 
REMARK  5 active torsions:
REMARK  status: ('A' for Active; 'I' for Inactive)
REMARK    1  A    between atoms: C_1  and  O_2
REMARK    2  A    between atoms: O_2  and  C_3
REMARK    3  A    between atoms: N_7  and  S_8
REMARK    4  A    between atoms: S_8  and  C_11
REMARK    5  A    between atoms: C_18  and  C_19
REMARK                            x       y       z     vdW  Elec       q    Type
REMARK                         _______ _______ _______ _____ _____    ______ ____
ROOT
ATOM      1  C   UNL     1       2.792   5.219  18.744  0.00  0.00    +0.000 A 
ATOM      2  C   UNL     1       2.418   4.953  20.063  0.00  0.00    +0.000 A 
ATOM      3  C   UNL     1       1.840   5.964  20.829  0.00  0.00    +0.000 A 
ATOM      4  C   UNL     1       1.652   7.226  20.263  0.00  0.00    +0.000 A 
ATOM      5  N   UNL     1       1.081   8.250  21.024  0.00  0.00    +0.000 N 
ATOM      6  C   UNL     1       0.882   9.521  20.558  0.00  0.00    +0.000 A 
ATOM      7  O   UNL     1       0.379  10.382  21.276  0.00  0.00    +0.000 OA
ATOM      8  C   UNL     1       1.307   9.812  19.157  0.00  0.00    +0.000 A 
ATOM      9  C   UNL     1       1.155  11.209  18.643  0.00  0.00    +0.000 C 
ATOM     10  C   UNL     1       1.832   8.833  18.397  0.00  0.00    +0.000 A 
ATOM     11  C   UNL     1       2.028   7.492  18.939  0.00  0.00    +0.000 A 
ATOM     12  C   UNL     1       2.593   6.476  18.171  0.00  0.00    +0.000 A 
ATOM     13  H   UNL     1       0.786   8.080  21.975  0.00  0.00    +0.000 HD
ENDROOT
BRANCH   1  14
ATOM     14  S   UNL     1       3.421   3.908  17.749  0.00  0.00    +0.000 S 
ATOM     15  O   UNL     1       2.341   3.386  16.941  0.00  0.00    +0.000 OA
ATOM     16  O   UNL     1       4.177   3.040  18.626  0.00  0.00    +0.000 OA
BRANCH  14  21
ATOM     17  C   UNL     1       6.759   5.944  16.713  0.00  0.00    +0.000 C 
ATOM     18  C   UNL     1       7.268   5.001  15.624  0.00  0.00    +0.000 C 
ATOM     19  C   UNL     1       6.121   4.500  14.758  0.00  0.00    +0.000 C 
ATOM     20  C   UNL     1       5.077   3.775  15.607  0.00  0.00    +0.000 C 
ATOM     21  N   UNL     1       4.537   4.675  16.666  0.00  0.00    +0.000 NA
ATOM     22  C   UNL     1       5.609   5.306  17.495  0.00  0.00    +0.000 C 
BRANCH  17  24
ATOM     23  C   UNL     1       7.706   5.814  18.917  0.00  0.00    +0.000 C 
ATOM     24  O   UNL     1       7.878   6.238  17.568  0.00  0.00    +0.000 OA
ENDBRANCH  17  24
ENDBRANCH  14  21
ENDBRANCH   1  14
TORSDOF 3
ENDMDL
