MODEL 1
REMARK VINA RESULT:      -8.0      0.000      0.000
REMARK  Name = 
REMARK  8 active torsions:
REMARK  status: ('A' for Active; 'I' for Inactive)
REMARK    1  A    between atoms: C_1  and  C_2
REMARK    2  A    between atoms: C_2  and  C_3
REMARK    3  A    between atoms: C_8  and  C_9
REMARK    4  A    between atoms: C_10  and  C_11
REMARK    5  A    between atoms: N_13  and  S_14
REMARK    6  A    between atoms: S_14  and  C_17
REMARK    7  A    between atoms: C_26  and  O_27
REMARK    8  A    between atoms: O_27  and  C_28
REMARK                            x       y       z     vdW  Elec       q    Type
REMARK                         _______ _______ _______ _____ _____    ______ ____
ROOT
ATOM      1  C   UNL     1       3.435   6.577  19.045  0.00  0.00    +0.000 A 
ATOM      2  C   UNL     1       4.619   6.784  18.379  0.00  0.00    +0.000 A 
ATOM      3  N   UNL     1       5.340   5.614  18.447  0.00  0.00    +0.000 N 
ATOM      4  C   UNL     1       4.590   4.603  19.024  0.00  0.00    +0.000 A 
ATOM      5  C   UNL     1       4.843   3.242  19.270  0.00  0.00    +0.000 A 
ATOM      6  C   UNL     1       3.832   2.458  19.843  0.00  0.00    +0.000 A 
ATOM      7  C   UNL     1       2.597   3.005  20.168  0.00  0.00    +0.000 A 
ATOM      8  C   UNL     1       2.371   4.370  19.966  0.00  0.00    +0.000 A 
ATOM      9  C   UNL     1       3.375   5.194  19.401  0.00  0.00    +0.000 A 
ENDROOT
BRANCH   1  17
ATOM     10  C   UNL     1       0.507   9.447  22.580  0.00  0.00    +0.000 C 
ATOM     11  O   UNL     1       1.641   9.134  22.932  0.00  0.00    +0.000 OA
ATOM     12  N   UNL     1       0.005   9.276  21.302  0.00  0.00    +0.000 N 
ATOM     13  C   UNL     1       0.835   8.806  20.313  0.00  0.00    +0.000 A 
ATOM     14  N   UNL     1       0.876   9.278  19.092  0.00  0.00    +0.000 NA
ATOM     15  C   UNL     1       1.944   8.632  18.489  0.00  0.00    +0.000 A 
ATOM     16  C   UNL     1       2.365   9.044  17.130  0.00  0.00    +0.000 C 
ATOM     17  C   UNL     1       2.404   7.613  19.300  0.00  0.00    +0.000 A 
ATOM     18  N   UNL     1       1.716   7.773  20.478  0.00  0.00    +0.000 N 
ATOM     19  H   UNL     1      -0.723   9.900  20.981  0.00  0.00    +0.000 HD
ATOM     20  H   UNL     1       1.872   7.278  21.344  0.00  0.00    +0.000 HD
BRANCH  10  22
ATOM     21  C   UNL     1      -1.224  11.249  22.946  0.00  0.00    +0.000 C 
ATOM     22  C   UNL     1      -0.517  10.037  23.533  0.00  0.00    +0.000 C 
ENDBRANCH  10  22
ENDBRANCH   1  17
BRANCH   3  23
ATOM     23  S   UNL     1       6.892   5.458  17.730  0.00  0.00    +0.000 S 
ATOM     24  O   UNL     1       7.397   6.816  17.660  0.00  0.00    +0.000 OA
ATOM     25  O   UNL     1       7.593   4.415  18.454  0.00  0.00    +0.000 OA
BRANCH  23  26
ATOM     26  C   UNL     1       6.581   4.883  16.086  0.00  0.00    +0.000 A 
ATOM     27  C   UNL     1       5.405   4.170  15.821  0.00  0.00    +0.000 A 
ATOM     28  C   UNL     1       5.143   3.726  14.524  0.00  0.00    +0.000 A 
ATOM     29  C   UNL     1       6.048   4.001  13.497  0.00  0.00    +0.000 A 
ATOM     30  C   UNL     1       7.205   4.735  13.759  0.00  0.00    +0.000 A 
ATOM     31  C   UNL     1       7.474   5.182  15.054  0.00  0.00    +0.000 A 
ENDBRANCH  23  26
ENDBRANCH   3  23
BRANCH   7  32
ATOM     32  O   UNL     1       1.526   2.325  20.683  0.00  0.00    +0.000 OA
ATOM     33  C   UNL     1       1.268   2.486  22.072  0.00  0.00    +0.000 C 
ENDBRANCH   7  32
TORSDOF 5
ENDMDL
MODEL 2
REMARK VINA RESULT:      -7.9      2.674      8.047
REMARK  Name = 
REMARK  8 active torsions:
REMARK  status: ('A' for Active; 'I' for Inactive)
REMARK    1  A    between atoms: C_1  and  C_2
REMARK    2  A    between atoms: C_2  and  C_3
REMARK    3  A    between atoms: C_8  and  C_9
REMARK    4  A    between atoms: C_10  and  C_11
REMARK    5  A    between atoms: N_13  and  S_14
REMARK    6  A    between atoms: S_14  and  C_17
REMARK    7  A    between atoms: C_26  and  O_27
REMARK    8  A    between atoms: O_27  and  C_28
REMARK                            x       y       z     vdW  Elec       q    Type
REMARK                         _______ _______ _______ _____ _____    ______ ____
ROOT
ATOM      1  C   UNL     1       4.139   6.519  17.606  0.00  0.00    +0.000 A 
ATOM      2  C   UNL     1       3.603   7.780  17.492  0.00  0.00    +0.000 A 
ATOM      3  N   UNL     1       2.494   7.830  18.304  0.00  0.00    +0.000 N 
ATOM      4  C   UNL     1       2.375   6.673  19.054  0.00  0.00    +0.000 A 
ATOM      5  C   UNL     1       1.466   6.259  20.044  0.00  0.00    +0.000 A 
ATOM      6  C   UNL     1       1.654   5.013  20.657  0.00  0.00    +0.000 A 
ATOM      7  C   UNL     1       2.714   4.189  20.301  0.00  0.00    +0.000 A 
ATOM      8  C   UNL     1       3.584   4.586  19.280  0.00  0.00    +0.000 A 
ATOM      9  C   UNL     1       3.416   5.833  18.630  0.00  0.00    +0.000 A 
ENDROOT
BRANCH   1  17
ATOM     10  C   UNL     1       5.978   3.817  13.290  0.00  0.00    +0.000 C 
ATOM     11  O   UNL     1       4.937   4.451  13.139  0.00  0.00    +0.000 OA
ATOM     12  N   UNL     1       6.789   3.892  14.409  0.00  0.00    +0.000 N 
ATOM     13  C   UNL     1       6.483   4.793  15.400  0.00  0.00    +0.000 A 
ATOM     14  N   UNL     1       7.359   5.544  16.018  0.00  0.00    +0.000 NA
ATOM     15  C   UNL     1       6.611   6.399  16.812  0.00  0.00    +0.000 A 
ATOM     16  C   UNL     1       7.293   7.490  17.544  0.00  0.00    +0.000 C 
ATOM     17  C   UNL     1       5.288   6.004  16.820  0.00  0.00    +0.000 A 
ATOM     18  N   UNL     1       5.219   5.009  15.876  0.00  0.00    +0.000 N 
ATOM     19  H   UNL     1       7.777   3.700  14.305  0.00  0.00    +0.000 HD
ATOM     20  H   UNL     1       4.385   4.560  15.527  0.00  0.00    +0.000 HD
BRANCH  10  22
ATOM     21  C   UNL     1       5.369   2.160  11.486  0.00  0.00    +0.000 C 
ATOM     22  C   UNL     1       6.494   2.825  12.264  0.00  0.00    +0.000 C 
ENDBRANCH  10  22
ENDBRANCH   1  17
BRANCH   3  23
ATOM     23  S   UNL     1       1.533   9.246  18.446  0.00  0.00    +0.000 S 
ATOM     24  O   UNL     1       2.462  10.338  18.223  0.00  0.00    +0.000 OA
ATOM     25  O   UNL     1       0.362   9.053  17.613  0.00  0.00    +0.000 OA
BRANCH  23  26
ATOM     26  C   UNL     1       1.014   9.280  20.137  0.00  0.00    +0.000 A 
ATOM     27  C   UNL     1       1.977   9.207  21.151  0.00  0.00    +0.000 A 
ATOM     28  C   UNL     1       1.579   9.248  22.487  0.00  0.00    +0.000 A 
ATOM     29  C   UNL     1       0.226   9.373  22.808  0.00  0.00    +0.000 A 
ATOM     30  C   UNL     1      -0.729   9.473  21.796  0.00  0.00    +0.000 A 
ATOM     31  C   UNL     1      -0.338   9.431  20.456  0.00  0.00    +0.000 A 
ENDBRANCH  23  26
ENDBRANCH   3  23
BRANCH   7  32
ATOM     32  O   UNL     1       3.020   2.980  20.866  0.00  0.00    +0.000 OA
ATOM     33  C   UNL     1       2.045   2.408  21.728  0.00  0.00    +0.000 C 
ENDBRANCH   7  32
TORSDOF 5
ENDMDL
MODEL 3
REMARK VINA RESULT:      -7.8      3.031      3.943
REMARK  Name = 
REMARK  8 active torsions:
REMARK  status: ('A' for Active; 'I' for Inactive)
REMARK    1  A    between atoms: C_1  and  C_2
REMARK    2  A    between atoms: C_2  and  C_3
REMARK    3  A    between atoms: C_8  and  C_9
REMARK    4  A    between atoms: C_10  and  C_11
REMARK    5  A    between atoms: N_13  and  S_14
REMARK    6  A    between atoms: S_14  and  C_17
REMARK    7  A    between atoms: C_26  and  O_27
REMARK    8  A    between atoms: O_27  and  C_28
REMARK                            x       y       z     vdW  Elec       q    Type
REMARK                         _______ _______ _______ _____ _____    ______ ____
ROOT
ATOM      1  C   UNL     1       2.347   7.513  18.440  0.00  0.00    +0.000 A 
ATOM      2  C   UNL     1       3.374   7.675  17.541  0.00  0.00    +0.000 A 
ATOM      3  N   UNL     1       4.114   6.515  17.548  0.00  0.00    +0.000 N 
ATOM      4  C   UNL     1       3.510   5.546  18.331  0.00  0.00    +0.000 A 
ATOM      5  C   UNL     1       3.830   4.207  18.618  0.00  0.00    +0.000 A 
ATOM      6  C   UNL     1       2.965   3.464  19.433  0.00  0.00    +0.000 A 
ATOM      7  C   UNL     1       1.808   4.029  19.955  0.00  0.00    +0.000 A 
ATOM      8  C   UNL     1       1.523   5.376  19.706  0.00  0.00    +0.000 A 
ATOM      9  C   UNL     1       2.382   6.159  18.898  0.00  0.00    +0.000 A 
ENDROOT
BRANCH   1  17
ATOM     10  C   UNL     1      -1.974  10.516  17.168  0.00  0.00    +0.000 C 
ATOM     11  O   UNL     1      -1.938   9.380  16.702  0.00  0.00    +0.000 OA
ATOM     12  N   UNL     1      -1.096  11.004  18.119  0.00  0.00    +0.000 N 
ATOM     13  C   UNL     1      -0.160  10.158  18.665  0.00  0.00    +0.000 A 
ATOM     14  N   UNL     1       0.148  10.114  19.937  0.00  0.00    +0.000 NA
ATOM     15  C   UNL     1       1.003   9.031  20.066  0.00  0.00    +0.000 A 
ATOM     16  C   UNL     1       1.432   8.605  21.418  0.00  0.00    +0.000 C 
ATOM     17  C   UNL     1       1.369   8.562  18.820  0.00  0.00    +0.000 A 
ATOM     18  N   UNL     1       0.578   9.263  17.942  0.00  0.00    +0.000 N 
ATOM     19  H   UNL     1      -1.412  11.739  18.738  0.00  0.00    +0.000 HD
ATOM     20  H   UNL     1       0.488   9.106  16.949  0.00  0.00    +0.000 HD
BRANCH  10  22
ATOM     21  C   UNL     1      -4.381  11.274  17.249  0.00  0.00    +0.000 C 
ATOM     22  C   UNL     1      -2.983  11.557  16.719  0.00  0.00    +0.000 C 
ENDBRANCH  10  22
ENDBRANCH   1  17
BRANCH   3  23
ATOM     23  S   UNL     1       5.498   6.312  16.552  0.00  0.00    +0.000 S 
ATOM     24  O   UNL     1       5.743   4.882  16.559  0.00  0.00    +0.000 OA
ATOM     25  O   UNL     1       5.250   7.042  15.324  0.00  0.00    +0.000 OA
BRANCH  23  26
ATOM     26  C   UNL     1       6.811   7.117  17.423  0.00  0.00    +0.000 A 
ATOM     27  C   UNL     1       7.083   8.465  17.159  0.00  0.00    +0.000 A 
ATOM     28  C   UNL     1       8.106   9.112  17.851  0.00  0.00    +0.000 A 
ATOM     29  C   UNL     1       8.846   8.419  18.811  0.00  0.00    +0.000 A 
ATOM     30  C   UNL     1       8.555   7.084  19.092  0.00  0.00    +0.000 A 
ATOM     31  C   UNL     1       7.533   6.428  18.401  0.00  0.00    +0.000 A 
ENDBRANCH  23  26
ENDBRANCH   3  23
BRANCH   7  32
ATOM     32  O   UNL     1       0.870   3.385  20.717  0.00  0.00    +0.000 OA
ATOM     33  C   UNL     1       1.351   2.599  21.801  0.00  0.00    +0.000 C 
ENDBRANCH   7  32
TORSDOF 5
ENDMDL
MODEL 4
REMARK VINA RESULT:      -7.5      4.543      9.672
REMARK  Name = 
REMARK  8 active torsions:
REMARK  status: ('A' for Active; 'I' for Inactive)
REMARK    1  A    between atoms: C_1  and  C_2
REMARK    2  A    between atoms: C_2  and  C_3
REMARK    3  A    between atoms: C_8  and  C_9
REMARK    4  A    between atoms: C_10  and  C_11
REMARK    5  A    between atoms: N_13  and  S_14
REMARK    6  A    between atoms: S_14  and  C_17
REMARK    7  A    between atoms: C_26  and  O_27
REMARK    8  A    between atoms: O_27  and  C_28
REMARK                            x       y       z     vdW  Elec       q    Type
REMARK                         _______ _______ _______ _____ _____    ______ ____
ROOT
ATOM      1  C   UNL     1       0.156   9.878  19.918  0.00  0.00    +0.000 A 
ATOM      2  C   UNL     1       0.092  10.645  21.057  0.00  0.00    +0.000 A 
ATOM      3  N   UNL     1      -0.908  11.572  20.873  0.00  0.00    +0.000 N 
ATOM      4  C   UNL     1      -1.591  11.337  19.693  0.00  0.00    +0.000 A 
ATOM      5  C   UNL     1      -2.701  11.953  19.086  0.00  0.00    +0.000 A 
ATOM      6  C   UNL     1      -3.190  11.432  17.881  0.00  0.00    +0.000 A 
ATOM      7  C   UNL     1      -2.597  10.326  17.284  0.00  0.00    +0.000 A 
ATOM      8  C   UNL     1      -1.464   9.750  17.867  0.00  0.00    +0.000 A 
ATOM      9  C   UNL     1      -0.935  10.259  19.078  0.00  0.00    +0.000 A 
ENDROOT
BRANCH   1  17
ATOM     10  C   UNL     1       1.878   4.800  20.660  0.00  0.00    +0.000 C 
ATOM     11  O   UNL     1       0.662   4.970  20.643  0.00  0.00    +0.000 OA
ATOM     12  N   UNL     1       2.812   5.765  20.330  0.00  0.00    +0.000 N 
ATOM     13  C   UNL     1       2.382   6.983  19.862  0.00  0.00    +0.000 A 
ATOM     14  N   UNL     1       2.923   7.627  18.859  0.00  0.00    +0.000 NA
ATOM     15  C   UNL     1       2.091   8.712  18.632  0.00  0.00    +0.000 A 
ATOM     16  C   UNL     1       2.337   9.579  17.457  0.00  0.00    +0.000 C 
ATOM     17  C   UNL     1       1.166   8.824  19.652  0.00  0.00    +0.000 A 
ATOM     18  N   UNL     1       1.337   7.684  20.399  0.00  0.00    +0.000 N 
ATOM     19  H   UNL     1       3.708   5.467  19.967  0.00  0.00    +0.000 HD
ATOM     20  H   UNL     1       0.758   7.366  21.163  0.00  0.00    +0.000 HD
BRANCH  10  22
ATOM     21  C   UNL     1       1.514   2.530  21.706  0.00  0.00    +0.000 C 
ATOM     22  C   UNL     1       2.519   3.493  21.092  0.00  0.00    +0.000 C 
ENDBRANCH  10  22
ENDBRANCH   1  17
BRANCH   3  23
ATOM     23  S   UNL     1      -1.309  12.729  22.077  0.00  0.00    +0.000 S 
ATOM     24  O   UNL     1      -2.650  12.365  22.495  0.00  0.00    +0.000 OA
ATOM     25  O   UNL     1      -0.201  12.775  23.011  0.00  0.00    +0.000 OA
BRANCH  23  26
ATOM     26  C   UNL     1      -1.381  14.275  21.220  0.00  0.00    +0.000 A 
ATOM     27  C   UNL     1      -0.337  14.628  20.356  0.00  0.00    +0.000 A 
ATOM     28  C   UNL     1      -0.392  15.838  19.664  0.00  0.00    +0.000 A 
ATOM     29  C   UNL     1      -1.490  16.686  19.828  0.00  0.00    +0.000 A 
ATOM     30  C   UNL     1      -2.541  16.319  20.669  0.00  0.00    +0.000 A 
ATOM     31  C   UNL     1      -2.492  15.109  21.366  0.00  0.00    +0.000 A 
ENDBRANCH  23  26
ENDBRANCH   3  23
BRANCH   7  32
ATOM     32  O   UNL     1      -3.021   9.706  16.138  0.00  0.00    +0.000 OA
ATOM     33  C   UNL     1      -3.015  10.482  14.947  0.00  0.00    +0.000 C 
ENDBRANCH   7  32
TORSDOF 5
ENDMDL
MODEL 5
REMARK VINA RESULT:      -7.5      2.295      3.108
REMARK  Name = 
REMARK  8 active torsions:
REMARK  status: ('A' for Active; 'I' for Inactive)
REMARK    1  A    between atoms: C_1  and  C_2
REMARK    2  A    between atoms: C_2  and  C_3
REMARK    3  A    between atoms: C_8  and  C_9
REMARK    4  A    between atoms: C_10  and  C_11
REMARK    5  A    between atoms: N_13  and  S_14
REMARK    6  A    between atoms: S_14  and  C_17
REMARK    7  A    between atoms: C_26  and  O_27
REMARK    8  A    between atoms: O_27  and  C_28
REMARK                            x       y       z     vdW  Elec       q    Type
REMARK                         _______ _______ _______ _____ _____    ______ ____
ROOT
ATOM      1  C   UNL     1       2.914   7.338  18.566  0.00  0.00    +0.000 A 
ATOM      2  C   UNL     1       4.077   7.635  17.897  0.00  0.00    +0.000 A 
ATOM      3  N   UNL     1       4.860   6.503  17.911  0.00  0.00    +0.000 N 
ATOM      4  C   UNL     1       4.172   5.431  18.454  0.00  0.00    +0.000 A 
ATOM      5  C   UNL     1       4.500   4.077  18.642  0.00  0.00    +0.000 A 
ATOM      6  C   UNL     1       3.538   3.218  19.193  0.00  0.00    +0.000 A 
ATOM      7  C   UNL     1       2.279   3.684  19.551  0.00  0.00    +0.000 A 
ATOM      8  C   UNL     1       1.979   5.043  19.407  0.00  0.00    +0.000 A 
ATOM      9  C   UNL     1       2.931   5.941  18.866  0.00  0.00    +0.000 A 
ENDROOT
BRANCH   1  17
ATOM     10  C   UNL     1      -1.465  10.080  16.949  0.00  0.00    +0.000 C 
ATOM     11  O   UNL     1      -1.305   8.964  16.462  0.00  0.00    +0.000 OA
ATOM     12  N   UNL     1      -0.718  10.598  17.993  0.00  0.00    +0.000 N 
ATOM     13  C   UNL     1       0.217   9.801  18.608  0.00  0.00    +0.000 A 
ATOM     14  N   UNL     1       0.404   9.739  19.902  0.00  0.00    +0.000 NA
ATOM     15  C   UNL     1       1.317   8.712  20.088  0.00  0.00    +0.000 A 
ATOM     16  C   UNL     1       1.643   8.276  21.465  0.00  0.00    +0.000 C 
ATOM     17  C   UNL     1       1.832   8.307  18.873  0.00  0.00    +0.000 A 
ATOM     18  N   UNL     1       1.082   8.979  17.939  0.00  0.00    +0.000 N 
ATOM     19  H   UNL     1      -1.143  11.291  18.595  0.00  0.00    +0.000 HD
ATOM     20  H   UNL     1       1.099   8.847  16.938  0.00  0.00    +0.000 HD
BRANCH  10  22
ATOM     21  C   UNL     1      -3.110  10.618  15.111  0.00  0.00    +0.000 C 
ATOM     22  C   UNL     1      -2.497  11.064  16.429  0.00  0.00    +0.000 C 
ENDBRANCH  10  22
ENDBRANCH   1  17
BRANCH   3  23
ATOM     23  S   UNL     1       6.410   6.459  17.174  0.00  0.00    +0.000 S 
ATOM     24  O   UNL     1       6.654   7.828  16.761  0.00  0.00    +0.000 OA
ATOM     25  O   UNL     1       7.297   5.764  18.087  0.00  0.00    +0.000 OA
BRANCH  23  26
ATOM     26  C   UNL     1       6.201   5.459  15.730  0.00  0.00    +0.000 A 
ATOM     27  C   UNL     1       7.315   5.165  14.934  0.00  0.00    +0.000 A 
ATOM     28  C   UNL     1       7.164   4.365  13.801  0.00  0.00    +0.000 A 
ATOM     29  C   UNL     1       5.908   3.852  13.473  0.00  0.00    +0.000 A 
ATOM     30  C   UNL     1       4.805   4.123  14.283  0.00  0.00    +0.000 A 
ATOM     31  C   UNL     1       4.948   4.925  15.417  0.00  0.00    +0.000 A 
ENDBRANCH  23  26
ENDBRANCH   3  23
BRANCH   7  32
ATOM     32  O   UNL     1       1.252   2.928  20.048  0.00  0.00    +0.000 OA
ATOM     33  C   UNL     1       1.251   2.684  21.449  0.00  0.00    +0.000 C 
ENDBRANCH   7  32
TORSDOF 5
ENDMDL
MODEL 6
REMARK VINA RESULT:      -7.5      4.602      8.999
REMARK  Name = 
REMARK  8 active torsions:
REMARK  status: ('A' for Active; 'I' for Inactive)
REMARK    1  A    between atoms: C_1  and  C_2
REMARK    2  A    between atoms: C_2  and  C_3
REMARK    3  A    between atoms: C_8  and  C_9
REMARK    4  A    between atoms: C_10  and  C_11
REMARK    5  A    between atoms: N_13  and  S_14
REMARK    6  A    between atoms: S_14  and  C_17
REMARK    7  A    between atoms: C_26  and  O_27
REMARK    8  A    between atoms: O_27  and  C_28
REMARK                            x       y       z     vdW  Elec       q    Type
REMARK                         _______ _______ _______ _____ _____    ______ ____
ROOT
ATOM      1  C   UNL     1       1.077   9.884  19.212  0.00  0.00    +0.000 A 
ATOM      2  C   UNL     1       1.496  10.921  20.011  0.00  0.00    +0.000 A 
ATOM      3  N   UNL     1       0.758  12.030  19.667  0.00  0.00    +0.000 N 
ATOM      4  C   UNL     1      -0.233  11.703  18.758  0.00  0.00    +0.000 A 
ATOM      5  C   UNL     1      -1.260  12.446  18.148  0.00  0.00    +0.000 A 
ATOM      6  C   UNL     1      -2.149  11.791  17.285  0.00  0.00    +0.000 A 
ATOM      7  C   UNL     1      -2.030  10.431  17.028  0.00  0.00    +0.000 A 
ATOM      8  C   UNL     1      -0.976   9.710  17.599  0.00  0.00    +0.000 A 
ATOM      9  C   UNL     1      -0.051  10.343  18.465  0.00  0.00    +0.000 A 
ENDROOT
BRANCH   1  17
ATOM     10  C   UNL     1       4.613   6.422  17.019  0.00  0.00    +0.000 C 
ATOM     11  O   UNL     1       4.944   7.605  17.040  0.00  0.00    +0.000 OA
ATOM     12  N   UNL     1       3.506   5.903  17.665  0.00  0.00    +0.000 N 
ATOM     13  C   UNL     1       2.750   6.725  18.466  0.00  0.00    +0.000 A 
ATOM     14  N   UNL     1       2.275   6.388  19.638  0.00  0.00    +0.000 NA
ATOM     15  C   UNL     1       1.721   7.549  20.153  0.00  0.00    +0.000 A 
ATOM     16  C   UNL     1       1.217   7.554  21.546  0.00  0.00    +0.000 C 
ATOM     17  C   UNL     1       1.681   8.529  19.182  0.00  0.00    +0.000 A 
ATOM     18  N   UNL     1       2.386   8.000  18.129  0.00  0.00    +0.000 N 
ATOM     19  H   UNL     1       3.524   4.934  17.953  0.00  0.00    +0.000 HD
ATOM     20  H   UNL     1       2.663   8.476  17.283  0.00  0.00    +0.000 HD
BRANCH  10  22
ATOM     21  C   UNL     1       4.890   3.960  16.533  0.00  0.00    +0.000 C 
ATOM     22  C   UNL     1       5.375   5.369  16.233  0.00  0.00    +0.000 C 
ENDBRANCH  10  22
ENDBRANCH   1  17
BRANCH   3  23
ATOM     23  S   UNL     1       0.980  13.547  20.440  0.00  0.00    +0.000 S 
ATOM     24  O   UNL     1      -0.364  14.067  20.610  0.00  0.00    +0.000 OA
ATOM     25  O   UNL     1       1.865  13.326  21.567  0.00  0.00    +0.000 OA
BRANCH  23  26
ATOM     26  C   UNL     1       1.829  14.546  19.252  0.00  0.00    +0.000 A 
ATOM     27  C   UNL     1       1.347  15.830  18.968  0.00  0.00    +0.000 A 
ATOM     28  C   UNL     1       2.018  16.631  18.044  0.00  0.00    +0.000 A 
ATOM     29  C   UNL     1       3.171  16.156  17.416  0.00  0.00    +0.000 A 
ATOM     30  C   UNL     1       3.664  14.887  17.721  0.00  0.00    +0.000 A 
ATOM     31  C   UNL     1       2.996  14.078  18.644  0.00  0.00    +0.000 A 
ENDBRANCH  23  26
ENDBRANCH   3  23
BRANCH   7  32
ATOM     32  O   UNL     1      -2.869   9.683  16.246  0.00  0.00    +0.000 OA
ATOM     33  C   UNL     1      -2.999  10.074  14.885  0.00  0.00    +0.000 C 
ENDBRANCH   7  32
TORSDOF 5
ENDMDL
MODEL 7
REMARK VINA RESULT:      -7.4      4.233      9.400
REMARK  Name = 
REMARK  8 active torsions:
REMARK  status: ('A' for Active; 'I' for Inactive)
REMARK    1  A    between atoms: C_1  and  C_2
REMARK    2  A    between atoms: C_2  and  C_3
REMARK    3  A    between atoms: C_8  and  C_9
REMARK    4  A    between atoms: C_10  and  C_11
REMARK    5  A    between atoms: N_13  and  S_14
REMARK    6  A    between atoms: S_14  and  C_17
REMARK    7  A    between atoms: C_26  and  O_27
REMARK    8  A    between atoms: O_27  and  C_28
REMARK                            x       y       z     vdW  Elec       q    Type
REMARK                         _______ _______ _______ _____ _____    ______ ____
ROOT
ATOM      1  C   UNL     1       0.414   9.475  19.983  0.00  0.00    +0.000 A 
ATOM      2  C   UNL     1       0.250  10.074  21.210  0.00  0.00    +0.000 A 
ATOM      3  N   UNL     1      -0.657  11.096  21.051  0.00  0.00    +0.000 N 
ATOM      4  C   UNL     1      -1.196  11.087  19.776  0.00  0.00    +0.000 A 
ATOM      5  C   UNL     1      -2.177  11.871  19.143  0.00  0.00    +0.000 A 
ATOM      6  C   UNL     1      -2.537  11.568  17.823  0.00  0.00    +0.000 A 
ATOM      7  C   UNL     1      -1.943  10.514  17.139  0.00  0.00    +0.000 A 
ATOM      8  C   UNL     1      -0.933   9.772  17.759  0.00  0.00    +0.000 A 
ATOM      9  C   UNL     1      -0.534  10.059  19.087  0.00  0.00    +0.000 A 
ENDROOT
BRANCH   1  17
ATOM     10  C   UNL     1       2.008   4.347  20.669  0.00  0.00    +0.000 C 
ATOM     11  O   UNL     1       0.798   4.554  20.694  0.00  0.00    +0.000 OA
ATOM     12  N   UNL     1       2.959   5.284  20.305  0.00  0.00    +0.000 N 
ATOM     13  C   UNL     1       2.549   6.515  19.851  0.00  0.00    +0.000 A 
ATOM     14  N   UNL     1       3.072   7.142  18.829  0.00  0.00    +0.000 NA
ATOM     15  C   UNL     1       2.266   8.252  18.631  0.00  0.00    +0.000 A 
ATOM     16  C   UNL     1       2.496   9.112  17.447  0.00  0.00    +0.000 C 
ATOM     17  C   UNL     1       1.382   8.391  19.683  0.00  0.00    +0.000 A 
ATOM     18  N   UNL     1       1.545   7.247  20.424  0.00  0.00    +0.000 N 
ATOM     19  H   UNL     1       3.832   4.960  19.911  0.00  0.00    +0.000 HD
ATOM     20  H   UNL     1       0.984   6.946  21.208  0.00  0.00    +0.000 HD
BRANCH  10  22
ATOM     21  C   UNL     1       3.767   2.607  20.164  0.00  0.00    +0.000 C 
ATOM     22  C   UNL     1       2.625   3.022  21.079  0.00  0.00    +0.000 C 
ENDBRANCH  10  22
ENDBRANCH   1  17
BRANCH   3  23
ATOM     23  S   UNL     1      -1.137  12.098  22.359  0.00  0.00    +0.000 S 
ATOM     24  O   UNL     1      -2.546  12.355  22.122  0.00  0.00    +0.000 OA
ATOM     25  O   UNL     1      -0.669  11.465  23.577  0.00  0.00    +0.000 OA
BRANCH  23  26
ATOM     26  C   UNL     1      -0.240  13.606  22.135  0.00  0.00    +0.000 A 
ATOM     27  C   UNL     1      -0.639  14.751  22.835  0.00  0.00    +0.000 A 
ATOM     28  C   UNL     1       0.071  15.941  22.677  0.00  0.00    +0.000 A 
ATOM     29  C   UNL     1       1.181  15.983  21.831  0.00  0.00    +0.000 A 
ATOM     30  C   UNL     1       1.593  14.834  21.156  0.00  0.00    +0.000 A 
ATOM     31  C   UNL     1       0.886  13.640  21.308  0.00  0.00    +0.000 A 
ENDBRANCH  23  26
ENDBRANCH   3  23
BRANCH   7  32
ATOM     32  O   UNL     1      -2.253  10.100  15.872  0.00  0.00    +0.000 OA
ATOM     33  C   UNL     1      -3.325  10.769  15.220  0.00  0.00    +0.000 C 
ENDBRANCH   7  32
TORSDOF 5
ENDMDL
MODEL 8
REMARK VINA RESULT:      -7.4      3.753      9.576
REMARK  Name = 
REMARK  8 active torsions:
REMARK  status: ('A' for Active; 'I' for Inactive)
REMARK    1  A    between atoms: C_1  and  C_2
REMARK    2  A    between atoms: C_2  and  C_3
REMARK    3  A    between atoms: C_8  and  C_9
REMARK    4  A    between atoms: C_10  and  C_11
REMARK    5  A    between atoms: N_13  and  S_14
REMARK    6  A    between atoms: S_14  and  C_17
REMARK    7  A    between atoms: C_26  and  O_27
REMARK    8  A    between atoms: O_27  and  C_28
REMARK                            x       y       z     vdW  Elec       q    Type
REMARK                         _______ _______ _______ _____ _____    ______ ____
ROOT
ATOM      1  C   UNL     1       1.097   9.736  19.199  0.00  0.00    +0.000 A 
ATOM      2  C   UNL     1       1.458  10.725  20.083  0.00  0.00    +0.000 A 
ATOM      3  N   UNL     1       0.683  11.828  19.806  0.00  0.00    +0.000 N 
ATOM      4  C   UNL     1      -0.275  11.533  18.852  0.00  0.00    +0.000 A 
ATOM      5  C   UNL     1      -1.317  12.281  18.275  0.00  0.00    +0.000 A 
ATOM      6  C   UNL     1      -2.162  11.660  17.345  0.00  0.00    +0.000 A 
ATOM      7  C   UNL     1      -1.984  10.329  16.990  0.00  0.00    +0.000 A 
ATOM      8  C   UNL     1      -0.914   9.607  17.530  0.00  0.00    +0.000 A 
ATOM      9  C   UNL     1      -0.033  10.207  18.462  0.00  0.00    +0.000 A 
ENDROOT
BRANCH   1  17
ATOM     10  C   UNL     1       4.893   6.619  16.923  0.00  0.00    +0.000 C 
ATOM     11  O   UNL     1       5.174   7.805  17.075  0.00  0.00    +0.000 OA
ATOM     12  N   UNL     1       3.770   6.004  17.446  0.00  0.00    +0.000 N 
ATOM     13  C   UNL     1       2.935   6.720  18.270  0.00  0.00    +0.000 A 
ATOM     14  N   UNL     1       2.405   6.257  19.374  0.00  0.00    +0.000 NA
ATOM     15  C   UNL     1       1.775   7.345  19.958  0.00  0.00    +0.000 A 
ATOM     16  C   UNL     1       1.188   7.200  21.310  0.00  0.00    +0.000 C 
ATOM     17  C   UNL     1       1.755   8.411  19.082  0.00  0.00    +0.000 A 
ATOM     18  N   UNL     1       2.543   8.008  18.031  0.00  0.00    +0.000 N 
ATOM     19  H   UNL     1       3.808   5.013  17.644  0.00  0.00    +0.000 HD
ATOM     20  H   UNL     1       2.851   8.572  17.252  0.00  0.00    +0.000 HD
BRANCH  10  22
ATOM     21  C   UNL     1       5.150   4.273  16.027  0.00  0.00    +0.000 C 
ATOM     22  C   UNL     1       5.741   5.673  16.093  0.00  0.00    +0.000 C 
ENDBRANCH  10  22
ENDBRANCH   1  17
BRANCH   3  23
ATOM     23  S   UNL     1       0.829  13.289  20.695  0.00  0.00    +0.000 S 
ATOM     24  O   UNL     1       2.105  13.172  21.378  0.00  0.00    +0.000 OA
ATOM     25  O   UNL     1       0.547  14.377  19.779  0.00  0.00    +0.000 OA
BRANCH  23  26
ATOM     26  C   UNL     1      -0.466  13.224  21.899  0.00  0.00    +0.000 A 
ATOM     27  C   UNL     1      -1.137  12.015  22.117  0.00  0.00    +0.000 A 
ATOM     28  C   UNL     1      -2.150  11.950  23.075  0.00  0.00    +0.000 A 
ATOM     29  C   UNL     1      -2.482  13.085  23.817  0.00  0.00    +0.000 A 
ATOM     30  C   UNL     1      -1.793  14.281  23.616  0.00  0.00    +0.000 A 
ATOM     31  C   UNL     1      -0.779  14.354  22.658  0.00  0.00    +0.000 A 
ENDBRANCH  23  26
ENDBRANCH   3  23
BRANCH   7  32
ATOM     32  O   UNL     1      -2.776   9.611  16.134  0.00  0.00    +0.000 OA
ATOM     33  C   UNL     1      -3.042  10.191  14.863  0.00  0.00    +0.000 C 
ENDBRANCH   7  32
TORSDOF 5
ENDMDL
MODEL 9
REMARK VINA RESULT:      -7.3      2.355      3.054
REMARK  Name = 
REMARK  8 active torsions:
REMARK  status: ('A' for Active; 'I' for Inactive)
REMARK    1  A    between atoms: C_1  and  C_2
REMARK    2  A    between atoms: C_2  and  C_3
REMARK    3  A    between atoms: C_8  and  C_9
REMARK    4  A    between atoms: C_10  and  C_11
REMARK    5  A    between atoms: N_13  and  S_14
REMARK    6  A    between atoms: S_14  and  C_17
REMARK    7  A    between atoms: C_26  and  O_27
REMARK    8  A    between atoms: O_27  and  C_28
REMARK                            x       y       z     vdW  Elec       q    Type
REMARK                         _______ _______ _______ _____ _____    ______ ____
ROOT
ATOM      1  C   UNL     1       2.888   7.392  18.593  0.00  0.00    +0.000 A 
ATOM      2  C   UNL     1       4.077   7.694  17.971  0.00  0.00    +0.000 A 
ATOM      3  N   UNL     1       4.844   6.552  17.971  0.00  0.00    +0.000 N 
ATOM      4  C   UNL     1       4.125   5.472  18.455  0.00  0.00    +0.000 A 
ATOM      5  C   UNL     1       4.429   4.108  18.607  0.00  0.00    +0.000 A 
ATOM      6  C   UNL     1       3.440   3.245  19.097  0.00  0.00    +0.000 A 
ATOM      7  C   UNL     1       2.177   3.716  19.431  0.00  0.00    +0.000 A 
ATOM      8  C   UNL     1       1.898   5.082  19.324  0.00  0.00    +0.000 A 
ATOM      9  C   UNL     1       2.879   5.985  18.845  0.00  0.00    +0.000 A 
ENDROOT
BRANCH   1  17
ATOM     10  C   UNL     1      -1.481  10.146  16.972  0.00  0.00    +0.000 C 
ATOM     11  O   UNL     1      -1.325   9.029  16.487  0.00  0.00    +0.000 OA
ATOM     12  N   UNL     1      -0.733  10.662  18.015  0.00  0.00    +0.000 N 
ATOM     13  C   UNL     1       0.200   9.863  18.631  0.00  0.00    +0.000 A 
ATOM     14  N   UNL     1       0.387   9.802  19.925  0.00  0.00    +0.000 NA
ATOM     15  C   UNL     1       1.296   8.773  20.113  0.00  0.00    +0.000 A 
ATOM     16  C   UNL     1       1.621   8.337  21.490  0.00  0.00    +0.000 C 
ATOM     17  C   UNL     1       1.810   8.365  18.898  0.00  0.00    +0.000 A 
ATOM     18  N   UNL     1       1.063   9.038  17.964  0.00  0.00    +0.000 N 
ATOM     19  H   UNL     1      -1.155  11.357  18.616  0.00  0.00    +0.000 HD
ATOM     20  H   UNL     1       1.079   8.905  16.963  0.00  0.00    +0.000 HD
BRANCH  10  22
ATOM     21  C   UNL     1      -3.174  10.654  15.169  0.00  0.00    +0.000 C 
ATOM     22  C   UNL     1      -2.510  11.133  16.451  0.00  0.00    +0.000 C 
ENDBRANCH  10  22
ENDBRANCH   1  17
BRANCH   3  23
ATOM     23  S   UNL     1       6.416   6.512  17.282  0.00  0.00    +0.000 S 
ATOM     24  O   UNL     1       6.662   7.878  16.860  0.00  0.00    +0.000 OA
ATOM     25  O   UNL     1       7.280   5.834  18.229  0.00  0.00    +0.000 OA
BRANCH  23  26
ATOM     26  C   UNL     1       6.259   5.494  15.843  0.00  0.00    +0.000 A 
ATOM     27  C   UNL     1       4.985   5.081  15.432  0.00  0.00    +0.000 A 
ATOM     28  C   UNL     1       4.850   4.291  14.291  0.00  0.00    +0.000 A 
ATOM     29  C   UNL     1       5.981   3.924  13.558  0.00  0.00    +0.000 A 
ATOM     30  C   UNL     1       7.245   4.359  13.955  0.00  0.00    +0.000 A 
ATOM     31  C   UNL     1       7.389   5.150  15.098  0.00  0.00    +0.000 A 
ENDBRANCH  23  26
ENDBRANCH   3  23
BRANCH   7  32
ATOM     32  O   UNL     1       1.124   2.957  19.869  0.00  0.00    +0.000 OA
ATOM     33  C   UNL     1       0.519   2.088  18.921  0.00  0.00    +0.000 C 
ENDBRANCH   7  32
TORSDOF 5
ENDMDL
