MODEL 1
REMARK VINA RESULT:      -8.6      0.000      0.000
REMARK  Name = 
REMARK  7 active torsions:
REMARK  status: ('A' for Active; 'I' for Inactive)
REMARK    1  A    between atoms: C_2  and  C_3
REMARK    2  A    between atoms: C_3  and  C_4
REMARK    3  A    between atoms: C_4  and  C_5
REMARK    4  A    between atoms: C_7  and  O_8
REMARK    5  A    between atoms: N_19  and  C_20
REMARK    6  A    between atoms: C_20  and  C_21
REMARK    7  A    between atoms: C_21  and  C_22
REMARK                            x       y       z     vdW  Elec       q    Type
REMARK                         _______ _______ _______ _____ _____    ______ ____
ROOT
ATOM      1  C   UNL     1       4.097   5.785  17.862  0.00  0.00    +0.000 A 
ATOM      2  N   UNL     1       3.749   5.243  19.047  0.00  0.00    +0.000 NA
ATOM      3  C   UNL     1       2.920   5.940  19.830  0.00  0.00    +0.000 A 
ATOM      4  C   UNL     1       2.421   7.178  19.459  0.00  0.00    +0.000 A 
ATOM      5  C   UNL     1       1.553   8.138  20.081  0.00  0.00    +0.000 A 
ATOM      6  C   UNL     1       1.328   9.229  19.263  0.00  0.00    +0.000 A 
ATOM      7  S   UNL     1       2.180   9.129  17.792  0.00  0.00    +0.000 S 
ATOM      8  C   UNL     1       2.840   7.614  18.211  0.00  0.00    +0.000 A 
ATOM      9  N   UNL     1       3.673   6.964  17.378  0.00  0.00    +0.000 NA
ATOM     10  C   UNL     1       0.466  10.404  19.613  0.00  0.00    +0.000 C 
ATOM     11  C   UNL     1      -0.440  10.057  20.806  0.00  0.00    +0.000 C 
ATOM     12  C   UNL     1       0.356   9.360  21.920  0.00  0.00    +0.000 C 
ATOM     13  C   UNL     1       0.914   8.013  21.435  0.00  0.00    +0.000 C 
ENDROOT
BRANCH   3  14
ATOM     14  O   UNL     1       2.613   5.342  21.017  0.00  0.00    +0.000 OA
ATOM     15  H   UNL     1       2.940   6.005  21.649  0.00  0.00    +0.000 HD
ENDBRANCH   3  14
BRANCH   1  16
ATOM     16  C   UNL     1       5.099   5.025  17.027  0.00  0.00    +0.000 C 
BRANCH  16  17
ATOM     17  C   UNL     1       6.085   5.949  16.316  0.00  0.00    +0.000 C 
BRANCH  17  19
ATOM     18  O   UNL     1       7.760   5.797  18.049  0.00  0.00    +0.000 OA
ATOM     19  C   UNL     1       7.103   6.506  17.293  0.00  0.00    +0.000 C 
ATOM     20  N   UNL     1       7.253   7.875  17.225  0.00  0.00    +0.000 N 
ATOM     21  H   UNL     1       6.664   8.406  16.596  0.00  0.00    +0.000 HD
BRANCH  20  22
ATOM     22  C   UNL     1       8.177   8.582  18.100  0.00  0.00    +0.000 C 
BRANCH  22  23
ATOM     23  C   UNL     1       8.341  10.052  17.702  0.00  0.00    +0.000 C 
BRANCH  23  24
ATOM     24  C   UNL     1       9.415  10.757  18.492  0.00  0.00    +0.000 A 
ATOM     25  C   UNL     1      10.530  11.305  17.843  0.00  0.00    +0.000 A 
ATOM     26  C   UNL     1      11.522  11.963  18.571  0.00  0.00    +0.000 A 
ATOM     27  C   UNL     1      11.415  12.076  19.955  0.00  0.00    +0.000 A 
ATOM     28  C   UNL     1      10.315  11.529  20.613  0.00  0.00    +0.000 A 
ATOM     29  C   UNL     1       9.321  10.871  19.886  0.00  0.00    +0.000 A 
ENDBRANCH  23  24
ENDBRANCH  22  23
ENDBRANCH  20  22
ENDBRANCH  17  19
ENDBRANCH  16  17
ENDBRANCH   1  16
TORSDOF 7
ENDMDL
MODEL 2
REMARK VINA RESULT:      -8.2      4.600      7.013
REMARK  Name = 
REMARK  7 active torsions:
REMARK  status: ('A' for Active; 'I' for Inactive)
REMARK    1  A    between atoms: C_2  and  C_3
REMARK    2  A    between atoms: C_3  and  C_4
REMARK    3  A    between atoms: C_4  and  C_5
REMARK    4  A    between atoms: C_7  and  O_8
REMARK    5  A    between atoms: N_19  and  C_20
REMARK    6  A    between atoms: C_20  and  C_21
REMARK    7  A    between atoms: C_21  and  C_22
REMARK                            x       y       z     vdW  Elec       q    Type
REMARK                         _______ _______ _______ _____ _____    ______ ____
ROOT
ATOM      1  C   UNL     1       1.936   7.992  19.382  0.00  0.00    +0.000 A 
ATOM      2  N   UNL     1       1.523   8.864  18.439  0.00  0.00    +0.000 NA
ATOM      3  C   UNL     1       0.710   9.853  18.820  0.00  0.00    +0.000 A 
ATOM      4  C   UNL     1       0.291  10.001  20.133  0.00  0.00    +0.000 A 
ATOM      5  C   UNL     1      -0.568  10.927  20.815  0.00  0.00    +0.000 A 
ATOM      6  C   UNL     1      -0.636  10.659  22.169  0.00  0.00    +0.000 A 
ATOM      7  S   UNL     1       0.277   9.291  22.611  0.00  0.00    +0.000 S 
ATOM      8  C   UNL     1       0.801   9.052  21.007  0.00  0.00    +0.000 A 
ATOM      9  N   UNL     1       1.619   8.032  20.687  0.00  0.00    +0.000 NA
ATOM     10  C   UNL     1      -1.442  11.441  23.161  0.00  0.00    +0.000 C 
ATOM     11  C   UNL     1      -1.851  12.795  22.559  0.00  0.00    +0.000 C 
ATOM     12  C   UNL     1      -2.392  12.625  21.131  0.00  0.00    +0.000 C 
ATOM     13  C   UNL     1      -1.303  12.081  20.194  0.00  0.00    +0.000 C 
ENDROOT
BRANCH   3  14
ATOM     14  O   UNL     1       0.321  10.694  17.820  0.00  0.00    +0.000 OA
ATOM     15  H   UNL     1       0.407  10.114  17.045  0.00  0.00    +0.000 HD
ENDBRANCH   3  14
BRANCH   1  16
ATOM     16  C   UNL     1       2.785   6.833  18.922  0.00  0.00    +0.000 C 
BRANCH  16  17
ATOM     17  C   UNL     1       3.702   7.208  17.760  0.00  0.00    +0.000 C 
BRANCH  17  19
ATOM     18  O   UNL     1       5.136   6.015  16.227  0.00  0.00    +0.000 OA
ATOM     19  C   UNL     1       4.297   5.968  17.120  0.00  0.00    +0.000 C 
ATOM     20  N   UNL     1       3.840   4.785  17.662  0.00  0.00    +0.000 N 
ATOM     21  H   UNL     1       3.129   4.813  18.382  0.00  0.00    +0.000 HD
BRANCH  20  22
ATOM     22  C   UNL     1       4.293   3.495  17.161  0.00  0.00    +0.000 C 
BRANCH  22  23
ATOM     23  C   UNL     1       3.410   2.343  17.648  0.00  0.00    +0.000 C 
BRANCH  23  24
ATOM     24  C   UNL     1       2.713   2.649  18.951  0.00  0.00    +0.000 A 
ATOM     25  C   UNL     1       1.390   3.112  18.956  0.00  0.00    +0.000 A 
ATOM     26  C   UNL     1       0.740   3.391  20.159  0.00  0.00    +0.000 A 
ATOM     27  C   UNL     1       1.407   3.217  21.370  0.00  0.00    +0.000 A 
ATOM     28  C   UNL     1       2.725   2.765  21.377  0.00  0.00    +0.000 A 
ATOM     29  C   UNL     1       3.376   2.485  20.174  0.00  0.00    +0.000 A 
ENDBRANCH  23  24
ENDBRANCH  22  23
ENDBRANCH  20  22
ENDBRANCH  17  19
ENDBRANCH  16  17
ENDBRANCH   1  16
TORSDOF 7
ENDMDL
MODEL 3
REMARK VINA RESULT:      -8.0      3.481      5.198
REMARK  Name = 
REMARK  7 active torsions:
REMARK  status: ('A' for Active; 'I' for Inactive)
REMARK    1  A    between atoms: C_2  and  C_3
REMARK    2  A    between atoms: C_3  and  C_4
REMARK    3  A    between atoms: C_4  and  C_5
REMARK    4  A    between atoms: C_7  and  O_8
REMARK    5  A    between atoms: N_19  and  C_20
REMARK    6  A    between atoms: C_20  and  C_21
REMARK    7  A    between atoms: C_21  and  C_22
REMARK                            x       y       z     vdW  Elec       q    Type
REMARK                         _______ _______ _______ _____ _____    ______ ____
ROOT
ATOM      1  C   UNL     1       2.030   7.266  19.974  0.00  0.00    +0.000 A 
ATOM      2  N   UNL     1       2.208   7.901  18.798  0.00  0.00    +0.000 NA
ATOM      3  C   UNL     1       1.653   9.107  18.652  0.00  0.00    +0.000 A 
ATOM      4  C   UNL     1       0.915   9.708  19.660  0.00  0.00    +0.000 A 
ATOM      5  C   UNL     1       0.206  10.950  19.781  0.00  0.00    +0.000 A 
ATOM      6  C   UNL     1      -0.352  11.099  21.037  0.00  0.00    +0.000 A 
ATOM      7  S   UNL     1      -0.074   9.751  22.040  0.00  0.00    +0.000 S 
ATOM      8  C   UNL     1       0.822   8.960  20.824  0.00  0.00    +0.000 A 
ATOM      9  N   UNL     1       1.353   7.742  21.034  0.00  0.00    +0.000 NA
ATOM     10  C   UNL     1      -1.152  12.283  21.488  0.00  0.00    +0.000 C 
ATOM     11  C   UNL     1      -0.930  13.466  20.531  0.00  0.00    +0.000 C 
ATOM     12  C   UNL     1      -1.029  13.016  19.065  0.00  0.00    +0.000 C 
ATOM     13  C   UNL     1       0.080  12.009  18.724  0.00  0.00    +0.000 C 
ENDROOT
BRANCH   3  14
ATOM     14  O   UNL     1       1.862   9.693  17.438  0.00  0.00    +0.000 OA
ATOM     15  H   UNL     1       2.738   9.340  17.209  0.00  0.00    +0.000 HD
ENDBRANCH   3  14
BRANCH   1  16
ATOM     16  C   UNL     1       2.591   5.871  20.095  0.00  0.00    +0.000 C 
BRANCH  16  17
ATOM     17  C   UNL     1       1.646   4.812  19.533  0.00  0.00    +0.000 C 
BRANCH  17  19
ATOM     18  O   UNL     1       1.523   3.917  17.294  0.00  0.00    +0.000 OA
ATOM     19  C   UNL     1       2.213   4.198  18.267  0.00  0.00    +0.000 C 
ATOM     20  N   UNL     1       3.581   4.023  18.295  0.00  0.00    +0.000 N 
ATOM     21  H   UNL     1       4.092   4.254  19.139  0.00  0.00    +0.000 HD
BRANCH  20  22
ATOM     22  C   UNL     1       4.295   3.434  17.171  0.00  0.00    +0.000 C 
BRANCH  22  23
ATOM     23  C   UNL     1       4.944   4.494  16.278  0.00  0.00    +0.000 C 
BRANCH  23  24
ATOM     24  C   UNL     1       5.982   5.315  17.003  0.00  0.00    +0.000 A 
ATOM     25  C   UNL     1       6.842   4.713  17.932  0.00  0.00    +0.000 A 
ATOM     26  C   UNL     1       7.806   5.469  18.599  0.00  0.00    +0.000 A 
ATOM     27  C   UNL     1       7.919   6.835  18.352  0.00  0.00    +0.000 A 
ATOM     28  C   UNL     1       7.065   7.447  17.436  0.00  0.00    +0.000 A 
ATOM     29  C   UNL     1       6.100   6.692  16.767  0.00  0.00    +0.000 A 
ENDBRANCH  23  24
ENDBRANCH  22  23
ENDBRANCH  20  22
ENDBRANCH  17  19
ENDBRANCH  16  17
ENDBRANCH   1  16
TORSDOF 7
ENDMDL
MODEL 4
REMARK VINA RESULT:      -8.0      4.788      7.101
REMARK  Name = 
REMARK  7 active torsions:
REMARK  status: ('A' for Active; 'I' for Inactive)
REMARK    1  A    between atoms: C_2  and  C_3
REMARK    2  A    between atoms: C_3  and  C_4
REMARK    3  A    between atoms: C_4  and  C_5
REMARK    4  A    between atoms: C_7  and  O_8
REMARK    5  A    between atoms: N_19  and  C_20
REMARK    6  A    between atoms: C_20  and  C_21
REMARK    7  A    between atoms: C_21  and  C_22
REMARK                            x       y       z     vdW  Elec       q    Type
REMARK                         _______ _______ _______ _____ _____    ______ ____
ROOT
ATOM      1  C   UNL     1       1.673   8.181  19.836  0.00  0.00    +0.000 A 
ATOM      2  N   UNL     1       1.435   9.084  18.862  0.00  0.00    +0.000 NA
ATOM      3  C   UNL     1       0.668  10.134  19.163  0.00  0.00    +0.000 A 
ATOM      4  C   UNL     1       0.123  10.315  20.425  0.00  0.00    +0.000 A 
ATOM      5  C   UNL     1      -0.729  11.306  21.018  0.00  0.00    +0.000 A 
ATOM      6  C   UNL     1      -0.963  11.045  22.355  0.00  0.00    +0.000 A 
ATOM      7  S   UNL     1      -0.216   9.607  22.880  0.00  0.00    +0.000 S 
ATOM      8  C   UNL     1       0.458   9.327  21.339  0.00  0.00    +0.000 A 
ATOM      9  N   UNL     1       1.221   8.245  21.100  0.00  0.00    +0.000 NA
ATOM     10  C   UNL     1      -1.807  11.888  23.262  0.00  0.00    +0.000 C 
ATOM     11  C   UNL     1      -2.039  13.271  22.632  0.00  0.00    +0.000 C 
ATOM     12  C   UNL     1      -2.434  13.146  21.152  0.00  0.00    +0.000 C 
ATOM     13  C   UNL     1      -1.297  12.516  20.333  0.00  0.00    +0.000 C 
ENDROOT
BRANCH   3  14
ATOM     14  O   UNL     1       0.457  11.005  18.134  0.00  0.00    +0.000 OA
ATOM     15  H   UNL     1      -0.497  11.167  18.219  0.00  0.00    +0.000 HD
ENDBRANCH   3  14
BRANCH   1  16
ATOM     16  C   UNL     1       2.472   6.957  19.459  0.00  0.00    +0.000 C 
BRANCH  16  17
ATOM     17  C   UNL     1       3.140   7.096  18.093  0.00  0.00    +0.000 C 
BRANCH  17  19
ATOM     18  O   UNL     1       4.457   5.622  16.706  0.00  0.00    +0.000 OA
ATOM     19  C   UNL     1       4.077   5.933  17.830  0.00  0.00    +0.000 C 
ATOM     20  N   UNL     1       4.497   5.283  18.973  0.00  0.00    +0.000 N 
ATOM     21  H   UNL     1       4.128   5.573  19.870  0.00  0.00    +0.000 HD
BRANCH  20  22
ATOM     22  C   UNL     1       5.388   4.134  18.909  0.00  0.00    +0.000 C 
BRANCH  22  23
ATOM     23  C   UNL     1       4.777   2.891  19.561  0.00  0.00    +0.000 C 
BRANCH  23  24
ATOM     24  C   UNL     1       3.274   2.967  19.675  0.00  0.00    +0.000 A 
ATOM     25  C   UNL     1       2.462   2.659  18.576  0.00  0.00    +0.000 A 
ATOM     26  C   UNL     1       1.072   2.723  18.680  0.00  0.00    +0.000 A 
ATOM     27  C   UNL     1       0.478   3.103  19.882  0.00  0.00    +0.000 A 
ATOM     28  C   UNL     1       1.275   3.419  20.980  0.00  0.00    +0.000 A 
ATOM     29  C   UNL     1       2.666   3.355  20.877  0.00  0.00    +0.000 A 
ENDBRANCH  23  24
ENDBRANCH  22  23
ENDBRANCH  20  22
ENDBRANCH  17  19
ENDBRANCH  16  17
ENDBRANCH   1  16
TORSDOF 7
ENDMDL
MODEL 5
REMARK VINA RESULT:      -8.0      3.258      4.671
REMARK  Name = 
REMARK  7 active torsions:
REMARK  status: ('A' for Active; 'I' for Inactive)
REMARK    1  A    between atoms: C_2  and  C_3
REMARK    2  A    between atoms: C_3  and  C_4
REMARK    3  A    between atoms: C_4  and  C_5
REMARK    4  A    between atoms: C_7  and  O_8
REMARK    5  A    between atoms: N_19  and  C_20
REMARK    6  A    between atoms: C_20  and  C_21
REMARK    7  A    between atoms: C_21  and  C_22
REMARK                            x       y       z     vdW  Elec       q    Type
REMARK                         _______ _______ _______ _____ _____    ______ ____
ROOT
ATOM      1  C   UNL     1       2.638   7.696  18.529  0.00  0.00    +0.000 A 
ATOM      2  N   UNL     1       2.368   8.827  17.846  0.00  0.00    +0.000 NA
ATOM      3  C   UNL     1       1.599   9.743  18.442  0.00  0.00    +0.000 A 
ATOM      4  C   UNL     1       1.087   9.563  19.717  0.00  0.00    +0.000 A 
ATOM      5  C   UNL     1       0.244  10.341  20.580  0.00  0.00    +0.000 A 
ATOM      6  C   UNL     1       0.048   9.719  21.798  0.00  0.00    +0.000 A 
ATOM      7  S   UNL     1       0.821   8.204  21.891  0.00  0.00    +0.000 S 
ATOM      8  C   UNL     1       1.455   8.368  20.317  0.00  0.00    +0.000 A 
ATOM      9  N   UNL     1       2.220   7.405  19.773  0.00  0.00    +0.000 NA
ATOM     10  C   UNL     1      -0.778  10.269  22.922  0.00  0.00    +0.000 C 
ATOM     11  C   UNL     1      -1.039  11.768  22.701  0.00  0.00    +0.000 C 
ATOM     12  C   UNL     1      -1.472  12.047  21.254  0.00  0.00    +0.000 C 
ATOM     13  C   UNL     1      -0.353  11.684  20.266  0.00  0.00    +0.000 C 
ENDROOT
BRANCH   3  14
ATOM     14  O   UNL     1       1.355  10.860  17.697  0.00  0.00    +0.000 OA
ATOM     15  H   UNL     1       0.411  11.003  17.880  0.00  0.00    +0.000 HD
ENDBRANCH   3  14
BRANCH   1  16
ATOM     16  C   UNL     1       3.437   6.635  17.812  0.00  0.00    +0.000 C 
BRANCH  16  17
ATOM     17  C   UNL     1       3.093   5.225  18.289  0.00  0.00    +0.000 C 
BRANCH  17  19
ATOM     18  O   UNL     1       3.871   2.994  17.793  0.00  0.00    +0.000 OA
ATOM     19  C   UNL     1       3.866   4.185  17.501  0.00  0.00    +0.000 C 
ATOM     20  N   UNL     1       4.527   4.693  16.403  0.00  0.00    +0.000 N 
ATOM     21  H   UNL     1       4.503   5.690  16.229  0.00  0.00    +0.000 HD
BRANCH  20  22
ATOM     22  C   UNL     1       5.331   3.841  15.539  0.00  0.00    +0.000 C 
BRANCH  22  23
ATOM     23  C   UNL     1       6.782   4.320  15.442  0.00  0.00    +0.000 C 
BRANCH  23  24
ATOM     24  C   UNL     1       7.197   5.173  16.616  0.00  0.00    +0.000 A 
ATOM     25  C   UNL     1       7.149   6.571  16.529  0.00  0.00    +0.000 A 
ATOM     26  C   UNL     1       7.527   7.362  17.614  0.00  0.00    +0.000 A 
ATOM     27  C   UNL     1       7.963   6.767  18.795  0.00  0.00    +0.000 A 
ATOM     28  C   UNL     1       8.023   5.378  18.891  0.00  0.00    +0.000 A 
ATOM     29  C   UNL     1       7.644   4.585  17.807  0.00  0.00    +0.000 A 
ENDBRANCH  23  24
ENDBRANCH  22  23
ENDBRANCH  20  22
ENDBRANCH  17  19
ENDBRANCH  16  17
ENDBRANCH   1  16
TORSDOF 7
ENDMDL
MODEL 6
REMARK VINA RESULT:      -8.0      3.160      5.023
REMARK  Name = 
REMARK  7 active torsions:
REMARK  status: ('A' for Active; 'I' for Inactive)
REMARK    1  A    between atoms: C_2  and  C_3
REMARK    2  A    between atoms: C_3  and  C_4
REMARK    3  A    between atoms: C_4  and  C_5
REMARK    4  A    between atoms: C_7  and  O_8
REMARK    5  A    between atoms: N_19  and  C_20
REMARK    6  A    between atoms: C_20  and  C_21
REMARK    7  A    between atoms: C_21  and  C_22
REMARK                            x       y       z     vdW  Elec       q    Type
REMARK                         _______ _______ _______ _____ _____    ______ ____
ROOT
ATOM      1  C   UNL     1       2.012   8.114  19.059  0.00  0.00    +0.000 A 
ATOM      2  N   UNL     1       1.600   9.086  18.218  0.00  0.00    +0.000 NA
ATOM      3  C   UNL     1       0.784  10.024  18.705  0.00  0.00    +0.000 A 
ATOM      4  C   UNL     1       0.361  10.023  20.026  0.00  0.00    +0.000 A 
ATOM      5  C   UNL     1      -0.502  10.865  20.804  0.00  0.00    +0.000 A 
ATOM      6  C   UNL     1      -0.572  10.448  22.120  0.00  0.00    +0.000 A 
ATOM      7  S   UNL     1       0.342   9.040  22.408  0.00  0.00    +0.000 S 
ATOM      8  C   UNL     1       0.871   8.983  20.789  0.00  0.00    +0.000 A 
ATOM      9  N   UNL     1       1.692   8.007  20.359  0.00  0.00    +0.000 NA
ATOM     10  C   UNL     1      -1.383  11.112  23.191  0.00  0.00    +0.000 C 
ATOM     11  C   UNL     1      -1.794  12.524  22.743  0.00  0.00    +0.000 C 
ATOM     12  C   UNL     1      -2.330  12.514  21.304  0.00  0.00    +0.000 C 
ATOM     13  C   UNL     1      -1.238  12.080  20.314  0.00  0.00    +0.000 C 
ENDROOT
BRANCH   3  14
ATOM     14  O   UNL     1       0.395  10.972  17.804  0.00  0.00    +0.000 OA
ATOM     15  H   UNL     1       0.967  10.755  17.049  0.00  0.00    +0.000 HD
ENDBRANCH   3  14
BRANCH   1  16
ATOM     16  C   UNL     1       2.865   7.016  18.474  0.00  0.00    +0.000 C 
BRANCH  16  17
ATOM     17  C   UNL     1       2.882   5.763  19.348  0.00  0.00    +0.000 C 
BRANCH  17  19
ATOM     18  O   UNL     1       3.586   3.469  19.083  0.00  0.00    +0.000 OA
ATOM     19  C   UNL     1       3.511   4.598  18.609  0.00  0.00    +0.000 C 
ATOM     20  N   UNL     1       3.952   4.912  17.340  0.00  0.00    +0.000 N 
ATOM     21  H   UNL     1       3.883   5.869  17.016  0.00  0.00    +0.000 HD
BRANCH  20  22
ATOM     22  C   UNL     1       4.596   3.919  16.492  0.00  0.00    +0.000 C 
BRANCH  22  23
ATOM     23  C   UNL     1       5.922   4.423  15.917  0.00  0.00    +0.000 C 
BRANCH  23  24
ATOM     24  C   UNL     1       6.673   5.319  16.871  0.00  0.00    +0.000 A 
ATOM     25  C   UNL     1       7.284   4.785  18.014  0.00  0.00    +0.000 A 
ATOM     26  C   UNL     1       7.983   5.610  18.896  0.00  0.00    +0.000 A 
ATOM     27  C   UNL     1       8.076   6.978  18.648  0.00  0.00    +0.000 A 
ATOM     28  C   UNL     1       7.467   7.521  17.519  0.00  0.00    +0.000 A 
ATOM     29  C   UNL     1       6.767   6.697  16.636  0.00  0.00    +0.000 A 
ENDBRANCH  23  24
ENDBRANCH  22  23
ENDBRANCH  20  22
ENDBRANCH  17  19
ENDBRANCH  16  17
ENDBRANCH   1  16
TORSDOF 7
ENDMDL
MODEL 7
REMARK VINA RESULT:      -8.0      3.332      4.952
REMARK  Name = 
REMARK  7 active torsions:
REMARK  status: ('A' for Active; 'I' for Inactive)
REMARK    1  A    between atoms: C_2  and  C_3
REMARK    2  A    between atoms: C_3  and  C_4
REMARK    3  A    between atoms: C_4  and  C_5
REMARK    4  A    between atoms: C_7  and  O_8
REMARK    5  A    between atoms: N_19  and  C_20
REMARK    6  A    between atoms: C_20  and  C_21
REMARK    7  A    between atoms: C_21  and  C_22
REMARK                            x       y       z     vdW  Elec       q    Type
REMARK                         _______ _______ _______ _____ _____    ______ ____
ROOT
ATOM      1  C   UNL     1       2.163   7.274  19.745  0.00  0.00    +0.000 A 
ATOM      2  N   UNL     1       2.248   8.029  18.630  0.00  0.00    +0.000 NA
ATOM      3  C   UNL     1       1.608   9.201  18.624  0.00  0.00    +0.000 A 
ATOM      4  C   UNL     1       0.876   9.650  19.712  0.00  0.00    +0.000 A 
ATOM      5  C   UNL     1       0.092  10.822  19.980  0.00  0.00    +0.000 A 
ATOM      6  C   UNL     1      -0.419  10.811  21.264  0.00  0.00    +0.000 A 
ATOM      7  S   UNL     1      -0.009   9.397  22.119  0.00  0.00    +0.000 S 
ATOM      8  C   UNL     1       0.884   8.790  20.800  0.00  0.00    +0.000 A 
ATOM      9  N   UNL     1       1.503   7.598  20.870  0.00  0.00    +0.000 NA
ATOM     10  C   UNL     1      -1.275  11.888  21.858  0.00  0.00    +0.000 C 
ATOM     11  C   UNL     1      -1.175  13.169  21.013  0.00  0.00    +0.000 C 
ATOM     12  C   UNL     1      -1.307  12.855  19.515  0.00  0.00    +0.000 C 
ATOM     13  C   UNL     1      -0.150  11.966  19.037  0.00  0.00    +0.000 C 
ENDROOT
BRANCH   3  14
ATOM     14  O   UNL     1       1.725   9.913  17.466  0.00  0.00    +0.000 OA
ATOM     15  H   UNL     1       2.152  10.725  17.788  0.00  0.00    +0.000 HD
ENDBRANCH   3  14
BRANCH   1  16
ATOM     16  C   UNL     1       2.821   5.916  19.707  0.00  0.00    +0.000 C 
BRANCH  16  17
ATOM     17  C   UNL     1       1.906   4.841  19.124  0.00  0.00    +0.000 C 
BRANCH  17  19
ATOM     18  O   UNL     1       2.386   2.739  18.039  0.00  0.00    +0.000 OA
ATOM     19  C   UNL     1       2.677   3.919  18.200  0.00  0.00    +0.000 C 
ATOM     20  N   UNL     1       3.709   4.539  17.524  0.00  0.00    +0.000 N 
ATOM     21  H   UNL     1       3.913   5.511  17.719  0.00  0.00    +0.000 HD
BRANCH  20  22
ATOM     22  C   UNL     1       4.564   3.803  16.605  0.00  0.00    +0.000 C 
BRANCH  22  23
ATOM     23  C   UNL     1       5.580   4.712  15.907  0.00  0.00    +0.000 C 
BRANCH  23  24
ATOM     24  C   UNL     1       6.469   5.451  16.877  0.00  0.00    +0.000 A 
ATOM     25  C   UNL     1       6.692   6.827  16.729  0.00  0.00    +0.000 A 
ATOM     26  C   UNL     1       7.509   7.513  17.627  0.00  0.00    +0.000 A 
ATOM     27  C   UNL     1       8.117   6.833  18.680  0.00  0.00    +0.000 A 
ATOM     28  C   UNL     1       7.909   5.464  18.833  0.00  0.00    +0.000 A 
ATOM     29  C   UNL     1       7.091   4.775  17.935  0.00  0.00    +0.000 A 
ENDBRANCH  23  24
ENDBRANCH  22  23
ENDBRANCH  20  22
ENDBRANCH  17  19
ENDBRANCH  16  17
ENDBRANCH   1  16
TORSDOF 7
ENDMDL
MODEL 8
REMARK VINA RESULT:      -8.0      4.614      7.057
REMARK  Name = 
REMARK  7 active torsions:
REMARK  status: ('A' for Active; 'I' for Inactive)
REMARK    1  A    between atoms: C_2  and  C_3
REMARK    2  A    between atoms: C_3  and  C_4
REMARK    3  A    between atoms: C_4  and  C_5
REMARK    4  A    between atoms: C_7  and  O_8
REMARK    5  A    between atoms: N_19  and  C_20
REMARK    6  A    between atoms: C_20  and  C_21
REMARK    7  A    between atoms: C_21  and  C_22
REMARK                            x       y       z     vdW  Elec       q    Type
REMARK                         _______ _______ _______ _____ _____    ______ ____
ROOT
ATOM      1  C   UNL     1       1.439   8.398  20.214  0.00  0.00    +0.000 A 
ATOM      2  N   UNL     1       1.452   8.511  21.558  0.00  0.00    +0.000 NA
ATOM      3  C   UNL     1       0.703   9.471  22.108  0.00  0.00    +0.000 A 
ATOM      4  C   UNL     1      -0.070  10.333  21.346  0.00  0.00    +0.000 A 
ATOM      5  C   UNL     1      -0.935  11.438  21.648  0.00  0.00    +0.000 A 
ATOM      6  C   UNL     1      -1.515  11.959  20.507  0.00  0.00    +0.000 A 
ATOM      7  S   UNL     1      -0.995  11.169  19.090  0.00  0.00    +0.000 S 
ATOM      8  C   UNL     1      -0.009  10.100  19.981  0.00  0.00    +0.000 A 
ATOM      9  N   UNL     1       0.725   9.155  19.365  0.00  0.00    +0.000 NA
ATOM     10  C   UNL     1      -2.470  13.113  20.477  0.00  0.00    +0.000 C 
ATOM     11  C   UNL     1      -3.026  13.375  21.887  0.00  0.00    +0.000 C 
ATOM     12  C   UNL     1      -1.902  13.367  22.934  0.00  0.00    +0.000 C 
ATOM     13  C   UNL     1      -1.238  11.984  23.015  0.00  0.00    +0.000 C 
ENDROOT
BRANCH   3  14
ATOM     14  O   UNL     1       0.766   9.539  23.469  0.00  0.00    +0.000 OA
ATOM     15  H   UNL     1      -0.038   9.054  23.717  0.00  0.00    +0.000 HD
ENDBRANCH   3  14
BRANCH   1  16
ATOM     16  C   UNL     1       2.353   7.365  19.602  0.00  0.00    +0.000 C 
BRANCH  16  17
ATOM     17  C   UNL     1       2.794   7.740  18.189  0.00  0.00    +0.000 C 
BRANCH  17  19
ATOM     18  O   UNL     1       4.900   7.091  17.204  0.00  0.00    +0.000 OA
ATOM     19  C   UNL     1       3.814   6.751  17.661  0.00  0.00    +0.000 C 
ATOM     20  N   UNL     1       3.428   5.431  17.780  0.00  0.00    +0.000 N 
ATOM     21  H   UNL     1       2.509   5.217  18.145  0.00  0.00    +0.000 HD
BRANCH  20  22
ATOM     22  C   UNL     1       4.278   4.346  17.312  0.00  0.00    +0.000 C 
BRANCH  22  23
ATOM     23  C   UNL     1       3.662   2.971  17.582  0.00  0.00    +0.000 C 
BRANCH  23  24
ATOM     24  C   UNL     1       2.837   2.936  18.845  0.00  0.00    +0.000 A 
ATOM     25  C   UNL     1       1.438   3.000  18.781  0.00  0.00    +0.000 A 
ATOM     26  C   UNL     1       0.672   2.962  19.947  0.00  0.00    +0.000 A 
ATOM     27  C   UNL     1       1.295   2.867  21.190  0.00  0.00    +0.000 A 
ATOM     28  C   UNL     1       2.685   2.811  21.266  0.00  0.00    +0.000 A 
ATOM     29  C   UNL     1       3.453   2.848  20.100  0.00  0.00    +0.000 A 
ENDBRANCH  23  24
ENDBRANCH  22  23
ENDBRANCH  20  22
ENDBRANCH  17  19
ENDBRANCH  16  17
ENDBRANCH   1  16
TORSDOF 7
ENDMDL
MODEL 9
REMARK VINA RESULT:      -7.9      4.374      6.803
REMARK  Name = 
REMARK  7 active torsions:
REMARK  status: ('A' for Active; 'I' for Inactive)
REMARK    1  A    between atoms: C_2  and  C_3
REMARK    2  A    between atoms: C_3  and  C_4
REMARK    3  A    between atoms: C_4  and  C_5
REMARK    4  A    between atoms: C_7  and  O_8
REMARK    5  A    between atoms: N_19  and  C_20
REMARK    6  A    between atoms: C_20  and  C_21
REMARK    7  A    between atoms: C_21  and  C_22
REMARK                            x       y       z     vdW  Elec       q    Type
REMARK                         _______ _______ _______ _____ _____    ______ ____
ROOT
ATOM      1  C   UNL     1       1.735   8.574  18.382  0.00  0.00    +0.000 A 
ATOM      2  N   UNL     1       1.912   8.179  19.659  0.00  0.00    +0.000 NA
ATOM      3  C   UNL     1       1.224   8.818  20.609  0.00  0.00    +0.000 A 
ATOM      4  C   UNL     1       0.350   9.854  20.318  0.00  0.00    +0.000 A 
ATOM      5  C   UNL     1      -0.487  10.713  21.106  0.00  0.00    +0.000 A 
ATOM      6  C   UNL     1      -1.212  11.585  20.316  0.00  0.00    +0.000 A 
ATOM      7  S   UNL     1      -0.859  11.413  18.659  0.00  0.00    +0.000 S 
ATOM      8  C   UNL     1       0.244  10.150  18.967  0.00  0.00    +0.000 A 
ATOM      9  N   UNL     1       0.910   9.549  17.964  0.00  0.00    +0.000 NA
ATOM     10  C   UNL     1      -2.180  12.608  20.829  0.00  0.00    +0.000 C 
ATOM     11  C   UNL     1      -2.560  12.292  22.285  0.00  0.00    +0.000 C 
ATOM     12  C   UNL     1      -1.315  11.962  23.122  0.00  0.00    +0.000 C 
ATOM     13  C   UNL     1      -0.626  10.691  22.602  0.00  0.00    +0.000 C 
ENDROOT
BRANCH   3  14
ATOM     14  O   UNL     1       1.454   8.378  21.880  0.00  0.00    +0.000 OA
ATOM     15  H   UNL     1       0.548   8.189  22.178  0.00  0.00    +0.000 HD
ENDBRANCH   3  14
BRANCH   1  16
ATOM     16  C   UNL     1       2.581   7.900  17.330  0.00  0.00    +0.000 C 
BRANCH  16  17
ATOM     17  C   UNL     1       3.909   7.392  17.887  0.00  0.00    +0.000 C 
BRANCH  17  19
ATOM     18  O   UNL     1       5.100   6.137  16.204  0.00  0.00    +0.000 OA
ATOM     19  C   UNL     1       4.348   6.129  17.172  0.00  0.00    +0.000 C 
ATOM     20  N   UNL     1       3.858   4.969  17.735  0.00  0.00    +0.000 N 
ATOM     21  H   UNL     1       3.222   5.031  18.520  0.00  0.00    +0.000 HD
BRANCH  20  22
ATOM     22  C   UNL     1       4.165   3.662  17.170  0.00  0.00    +0.000 C 
BRANCH  22  23
ATOM     23  C   UNL     1       3.083   2.627  17.488  0.00  0.00    +0.000 C 
BRANCH  23  24
ATOM     24  C   UNL     1       2.534   2.763  18.886  0.00  0.00    +0.000 A 
ATOM     25  C   UNL     1       1.211   3.179  19.092  0.00  0.00    +0.000 A 
ATOM     26  C   UNL     1       0.699   3.301  20.384  0.00  0.00    +0.000 A 
ATOM     27  C   UNL     1       1.502   3.014  21.485  0.00  0.00    +0.000 A 
ATOM     28  C   UNL     1       2.821   2.607  21.294  0.00  0.00    +0.000 A 
ATOM     29  C   UNL     1       3.335   2.484  20.001  0.00  0.00    +0.000 A 
ENDBRANCH  23  24
ENDBRANCH  22  23
ENDBRANCH  20  22
ENDBRANCH  17  19
ENDBRANCH  16  17
ENDBRANCH   1  16
TORSDOF 7
ENDMDL
