MODEL 1
REMARK VINA RESULT:      -5.7      0.000      0.000
REMARK  Name = 
REMARK  17 active torsions:
REMARK  status: ('A' for Active; 'I' for Inactive)
REMARK    1  A    between atoms: C_1  and  C_2
REMARK    2  A    between atoms: C_2  and  O_3
REMARK    3  A    between atoms: O_3  and  C_4
REMARK    4  A    between atoms: C_4  and  C_5
REMARK    5  A    between atoms: C_5  and  O_6
REMARK    6  A    between atoms: O_6  and  C_7
REMARK    7  A    between atoms: C_7  and  C_8
REMARK    8  A    between atoms: C_8  and  O_9
REMARK    9  A    between atoms: O_9  and  C_10
REMARK   10  A    between atoms: C_10  and  C_11
REMARK   11  A    between atoms: C_11  and  O_12
REMARK   12  A    between atoms: O_12  and  C_13
REMARK   13  A    between atoms: C_13  and  C_14
REMARK   14  A    between atoms: C_14  and  O_15
REMARK   15  A    between atoms: O_15  and  C_16
REMARK   16  A    between atoms: C_20  and  C_21
REMARK   17  A    between atoms: N_25  and  C_26
REMARK                            x       y       z     vdW  Elec       q    Type
REMARK                         _______ _______ _______ _____ _____    ______ ____
ROOT
ATOM      1  C   UNL     1       2.307   7.583  17.766  0.00  0.00    +0.000 C 
ENDROOT
BRANCH   1   2
ATOM      2  C   UNL     1       2.121   9.092  17.838  0.00  0.00    +0.000 C 
BRANCH   2   3
ATOM      3  O   UNL     1       1.237   9.382  18.889  0.00  0.00    +0.000 OA
BRANCH   3   4
ATOM      4  C   UNL     1       0.578  10.610  18.644  0.00  0.00    +0.000 C 
BRANCH   4   5
ATOM      5  C   UNL     1       1.585  11.744  18.757  0.00  0.00    +0.000 C 
BRANCH   5   6
ATOM      6  O   UNL     1       1.308  12.492  19.926  0.00  0.00    +0.000 OA
BRANCH   6   7
ATOM      7  C   UNL     1      -0.026  12.946  19.885  0.00  0.00    +0.000 C 
BRANCH   7   8
ATOM      8  C   UNL     1      -0.438  13.381  21.283  0.00  0.00    +0.000 C 
BRANCH   8   9
ATOM      9  O   UNL     1      -0.014  12.407  22.215  0.00  0.00    +0.000 OA
BRANCH   9  10
ATOM     10  C   UNL     1      -1.128  11.943  22.947  0.00  0.00    +0.000 C 
BRANCH  10  11
ATOM     11  C   UNL     1      -1.045  10.428  23.064  0.00  0.00    +0.000 C 
BRANCH  11  12
ATOM     12  O   UNL     1       0.275  10.078  23.412  0.00  0.00    +0.000 OA
BRANCH  12  14
ATOM     13  C   UNL     1      -0.312   8.451  21.784  0.00  0.00    +0.000 C 
ATOM     14  C   UNL     1       0.822   9.237  22.424  0.00  0.00    +0.000 C 
ENDBRANCH  12  14
ENDBRANCH  11  12
ENDBRANCH  10  11
ENDBRANCH   9  10
ENDBRANCH   8   9
ENDBRANCH   7   8
ENDBRANCH   6   7
ENDBRANCH   5   6
ENDBRANCH   4   5
ENDBRANCH   3   4
ENDBRANCH   2   3
ENDBRANCH   1   2
BRANCH   1  15
ATOM     15  O   UNL     1       3.641   7.259  17.931  0.00  0.00    +0.000 OA
BRANCH  15  16
ATOM     16  C   UNL     1       4.260   6.284  17.223  0.00  0.00    +0.000 A 
ATOM     17  N   UNL     1       5.241   6.586  16.328  0.00  0.00    +0.000 NA
ATOM     18  S   UNL     1       5.700   5.113  15.764  0.00  0.00    +0.000 S 
ATOM     19  N   UNL     1       4.729   4.068  16.584  0.00  0.00    +0.000 NA
ATOM     20  C   UNL     1       3.963   4.881  17.364  0.00  0.00    +0.000 A 
BRANCH  20  21
ATOM     21  C   UNL     1       2.943   4.283  18.287  0.00  0.00    +0.000 C 
ATOM     22  C   UNL     1       1.895   3.619  17.756  0.00  0.00    +0.000 C 
ATOM     23  C   UNL     1       0.833   2.944  18.563  0.00  0.00    +0.000 C 
ATOM     24  C   UNL     1       0.842   3.306  20.051  0.00  0.00    +0.000 C 
ATOM     25  N   UNL     1       2.176   3.606  20.590  0.00  0.00    +0.000 NA
ATOM     26  C   UNL     1       2.772   2.663  21.541  0.00  0.00    +0.000 C 
ATOM     27  C   UNL     1       3.119   4.406  19.785  0.00  0.00    +0.000 C 
ENDBRANCH  20  21
ENDBRANCH  15  16
ENDBRANCH   1  15
TORSDOF 15
ENDMDL
MODEL 2
REMARK VINA RESULT:      -5.7      6.069      8.014
REMARK  Name = 
REMARK  17 active torsions:
REMARK  status: ('A' for Active; 'I' for Inactive)
REMARK    1  A    between atoms: C_1  and  C_2
REMARK    2  A    between atoms: C_2  and  O_3
REMARK    3  A    between atoms: O_3  and  C_4
REMARK    4  A    between atoms: C_4  and  C_5
REMARK    5  A    between atoms: C_5  and  O_6
REMARK    6  A    between atoms: O_6  and  C_7
REMARK    7  A    between atoms: C_7  and  C_8
REMARK    8  A    between atoms: C_8  and  O_9
REMARK    9  A    between atoms: O_9  and  C_10
REMARK   10  A    between atoms: C_10  and  C_11
REMARK   11  A    between atoms: C_11  and  O_12
REMARK   12  A    between atoms: O_12  and  C_13
REMARK   13  A    between atoms: C_13  and  C_14
REMARK   14  A    between atoms: C_14  and  O_15
REMARK   15  A    between atoms: O_15  and  C_16
REMARK   16  A    between atoms: C_20  and  C_21
REMARK   17  A    between atoms: N_25  and  C_26
REMARK                            x       y       z     vdW  Elec       q    Type
REMARK                         _______ _______ _______ _____ _____    ______ ____
ROOT
ATOM      1  C   UNL     1       7.489   5.712  18.912  0.00  0.00    +0.000 C 
ENDROOT
BRANCH   1   2
ATOM      2  C   UNL     1       7.270   6.966  18.078  0.00  0.00    +0.000 C 
BRANCH   2   3
ATOM      3  O   UNL     1       8.386   7.804  18.231  0.00  0.00    +0.000 OA
BRANCH   3   4
ATOM      4  C   UNL     1       8.022   9.149  17.985  0.00  0.00    +0.000 C 
BRANCH   4   5
ATOM      5  C   UNL     1       9.200  10.051  18.317  0.00  0.00    +0.000 C 
BRANCH   5   6
ATOM      6  O   UNL     1       8.714  11.251  18.889  0.00  0.00    +0.000 OA
BRANCH   6   7
ATOM      7  C   UNL     1       9.023  12.332  18.040  0.00  0.00    +0.000 C 
BRANCH   7   8
ATOM      8  C   UNL     1      10.485  12.705  18.234  0.00  0.00    +0.000 C 
BRANCH   8   9
ATOM      9  O   UNL     1      11.089  12.883  16.968  0.00  0.00    +0.000 OA
BRANCH   9  10
ATOM     10  C   UNL     1      12.228  13.704  17.105  0.00  0.00    +0.000 C 
BRANCH  10  11
ATOM     11  C   UNL     1      11.804  15.040  17.699  0.00  0.00    +0.000 C 
BRANCH  11  12
ATOM     12  O   UNL     1      11.496  15.921  16.643  0.00  0.00    +0.000 OA
BRANCH  12  14
ATOM     13  C   UNL     1       9.926  16.315  18.381  0.00  0.00    +0.000 C 
ATOM     14  C   UNL     1      10.435  16.767  17.021  0.00  0.00    +0.000 C 
ENDBRANCH  12  14
ENDBRANCH  11  12
ENDBRANCH  10  11
ENDBRANCH   9  10
ENDBRANCH   8   9
ENDBRANCH   7   8
ENDBRANCH   6   7
ENDBRANCH   5   6
ENDBRANCH   4   5
ENDBRANCH   3   4
ENDBRANCH   2   3
ENDBRANCH   1   2
BRANCH   1  15
ATOM     15  O   UNL     1       6.972   4.609  18.259  0.00  0.00    +0.000 OA
BRANCH  15  16
ATOM     16  C   UNL     1       6.707   4.593  16.930  0.00  0.00    +0.000 A 
ATOM     17  N   UNL     1       7.713   4.685  16.016  0.00  0.00    +0.000 NA
ATOM     18  S   UNL     1       6.922   4.584  14.579  0.00  0.00    +0.000 S 
ATOM     19  N   UNL     1       5.345   4.426  15.018  0.00  0.00    +0.000 NA
ATOM     20  C   UNL     1       5.382   4.458  16.379  0.00  0.00    +0.000 A 
BRANCH  20  21
ATOM     21  C   UNL     1       4.110   4.324  17.163  0.00  0.00    +0.000 C 
ATOM     22  C   UNL     1       3.560   3.101  17.308  0.00  0.00    +0.000 C 
ATOM     23  C   UNL     1       2.321   2.826  18.097  0.00  0.00    +0.000 C 
ATOM     24  C   UNL     1       1.532   4.077  18.494  0.00  0.00    +0.000 C 
ATOM     25  N   UNL     1       2.363   5.269  18.716  0.00  0.00    +0.000 NA
ATOM     26  C   UNL     1       2.497   5.782  20.082  0.00  0.00    +0.000 C 
ATOM     27  C   UNL     1       3.486   5.548  17.800  0.00  0.00    +0.000 C 
ENDBRANCH  20  21
ENDBRANCH  15  16
ENDBRANCH   1  15
TORSDOF 15
ENDMDL
MODEL 3
REMARK VINA RESULT:      -5.5      6.200      7.757
REMARK  Name = 
REMARK  17 active torsions:
REMARK  status: ('A' for Active; 'I' for Inactive)
REMARK    1  A    between atoms: C_1  and  C_2
REMARK    2  A    between atoms: C_2  and  O_3
REMARK    3  A    between atoms: O_3  and  C_4
REMARK    4  A    between atoms: C_4  and  C_5
REMARK    5  A    between atoms: C_5  and  O_6
REMARK    6  A    between atoms: O_6  and  C_7
REMARK    7  A    between atoms: C_7  and  C_8
REMARK    8  A    between atoms: C_8  and  O_9
REMARK    9  A    between atoms: O_9  and  C_10
REMARK   10  A    between atoms: C_10  and  C_11
REMARK   11  A    between atoms: C_11  and  O_12
REMARK   12  A    between atoms: O_12  and  C_13
REMARK   13  A    between atoms: C_13  and  C_14
REMARK   14  A    between atoms: C_14  and  O_15
REMARK   15  A    between atoms: O_15  and  C_16
REMARK   16  A    between atoms: C_20  and  C_21
REMARK   17  A    between atoms: N_25  and  C_26
REMARK                            x       y       z     vdW  Elec       q    Type
REMARK                         _______ _______ _______ _____ _____    ______ ____
ROOT
ATOM      1  C   UNL     1       8.031   7.040  18.118  0.00  0.00    +0.000 C 
ENDROOT
BRANCH   1   2
ATOM      2  C   UNL     1       7.897   8.525  17.810  0.00  0.00    +0.000 C 
BRANCH   2   3
ATOM      3  O   UNL     1       8.674   9.244  18.733  0.00  0.00    +0.000 OA
BRANCH   3   4
ATOM      4  C   UNL     1       9.030  10.502  18.191  0.00  0.00    +0.000 C 
BRANCH   4   5
ATOM      5  C   UNL     1       9.967  11.211  19.157  0.00  0.00    +0.000 C 
BRANCH   5   6
ATOM      6  O   UNL     1       9.259  11.515  20.345  0.00  0.00    +0.000 OA
BRANCH   6   7
ATOM      7  C   UNL     1       9.018  12.902  20.402  0.00  0.00    +0.000 C 
BRANCH   7   8
ATOM      8  C   UNL     1      10.111  13.555  21.236  0.00  0.00    +0.000 C 
BRANCH   8   9
ATOM      9  O   UNL     1      11.093  14.093  20.374  0.00  0.00    +0.000 OA
BRANCH   9  10
ATOM     10  C   UNL     1      10.957  15.496  20.327  0.00  0.00    +0.000 C 
BRANCH  10  11
ATOM     11  C   UNL     1      10.764  15.926  18.880  0.00  0.00    +0.000 C 
BRANCH  11  12
ATOM     12  O   UNL     1      10.719  14.771  18.073  0.00  0.00    +0.000 OA
BRANCH  12  14
ATOM     13  C   UNL     1      12.318  13.423  16.947  0.00  0.00    +0.000 C 
ATOM     14  C   UNL     1      11.744  14.822  17.109  0.00  0.00    +0.000 C 
ENDBRANCH  12  14
ENDBRANCH  11  12
ENDBRANCH  10  11
ENDBRANCH   9  10
ENDBRANCH   8   9
ENDBRANCH   7   8
ENDBRANCH   6   7
ENDBRANCH   5   6
ENDBRANCH   4   5
ENDBRANCH   3   4
ENDBRANCH   2   3
ENDBRANCH   1   2
BRANCH   1  15
ATOM     15  O   UNL     1       6.832   6.395  17.885  0.00  0.00    +0.000 OA
BRANCH  15  16
ATOM     16  C   UNL     1       6.577   5.691  16.756  0.00  0.00    +0.000 A 
ATOM     17  N   UNL     1       7.493   5.628  15.750  0.00  0.00    +0.000 NA
ATOM     18  S   UNL     1       6.768   4.654  14.644  0.00  0.00    +0.000 S 
ATOM     19  N   UNL     1       5.328   4.279  15.346  0.00  0.00    +0.000 NA
ATOM     20  C   UNL     1       5.362   4.947  16.533  0.00  0.00    +0.000 A 
BRANCH  20  21
ATOM     21  C   UNL     1       4.207   4.839  17.483  0.00  0.00    +0.000 C 
ATOM     22  C   UNL     1       3.463   5.938  17.731  0.00  0.00    +0.000 C 
ATOM     23  C   UNL     1       2.264   5.955  18.623  0.00  0.00    +0.000 C 
ATOM     24  C   UNL     1       2.099   4.702  19.487  0.00  0.00    +0.000 C 
ATOM     25  N   UNL     1       2.604   3.470  18.865  0.00  0.00    +0.000 NA
ATOM     26  C   UNL     1       1.637   2.450  18.450  0.00  0.00    +0.000 C 
ATOM     27  C   UNL     1       3.877   3.506  18.119  0.00  0.00    +0.000 C 
ENDBRANCH  20  21
ENDBRANCH  15  16
ENDBRANCH   1  15
TORSDOF 15
ENDMDL
MODEL 4
REMARK VINA RESULT:      -5.5      5.046      6.764
REMARK  Name = 
REMARK  17 active torsions:
REMARK  status: ('A' for Active; 'I' for Inactive)
REMARK    1  A    between atoms: C_1  and  C_2
REMARK    2  A    between atoms: C_2  and  O_3
REMARK    3  A    between atoms: O_3  and  C_4
REMARK    4  A    between atoms: C_4  and  C_5
REMARK    5  A    between atoms: C_5  and  O_6
REMARK    6  A    between atoms: O_6  and  C_7
REMARK    7  A    between atoms: C_7  and  C_8
REMARK    8  A    between atoms: C_8  and  O_9
REMARK    9  A    between atoms: O_9  and  C_10
REMARK   10  A    between atoms: C_10  and  C_11
REMARK   11  A    between atoms: C_11  and  O_12
REMARK   12  A    between atoms: O_12  and  C_13
REMARK   13  A    between atoms: C_13  and  C_14
REMARK   14  A    between atoms: C_14  and  O_15
REMARK   15  A    between atoms: O_15  and  C_16
REMARK   16  A    between atoms: C_20  and  C_21
REMARK   17  A    between atoms: N_25  and  C_26
REMARK                            x       y       z     vdW  Elec       q    Type
REMARK                         _______ _______ _______ _____ _____    ______ ____
ROOT
ATOM      1  C   UNL     1       8.032   7.866  17.512  0.00  0.00    +0.000 C 
ENDROOT
BRANCH   1   2
ATOM      2  C   UNL     1       8.148   9.329  17.918  0.00  0.00    +0.000 C 
BRANCH   2   3
ATOM      3  O   UNL     1       8.900   9.404  19.102  0.00  0.00    +0.000 OA
BRANCH   3   4
ATOM      4  C   UNL     1       9.489  10.685  19.222  0.00  0.00    +0.000 C 
BRANCH   4   5
ATOM      5  C   UNL     1       9.379  11.148  20.667  0.00  0.00    +0.000 C 
BRANCH   5   6
ATOM      6  O   UNL     1      10.048  12.387  20.806  0.00  0.00    +0.000 OA
BRANCH   6   7
ATOM      7  C   UNL     1      10.131  13.016  19.547  0.00  0.00    +0.000 C 
BRANCH   7   8
ATOM      8  C   UNL     1       9.183  14.206  19.531  0.00  0.00    +0.000 C 
BRANCH   8   9
ATOM      9  O   UNL     1       9.340  14.907  18.313  0.00  0.00    +0.000 OA
BRANCH   9  10
ATOM     10  C   UNL     1       8.208  15.720  18.092  0.00  0.00    +0.000 C 
BRANCH  10  11
ATOM     11  C   UNL     1       6.995  14.828  17.872  0.00  0.00    +0.000 C 
BRANCH  11  12
ATOM     12  O   UNL     1       5.835  15.568  18.177  0.00  0.00    +0.000 OA
BRANCH  12  14
ATOM     13  C   UNL     1       3.560  15.647  17.500  0.00  0.00    +0.000 C 
ATOM     14  C   UNL     1       4.694  14.762  17.994  0.00  0.00    +0.000 C 
ENDBRANCH  12  14
ENDBRANCH  11  12
ENDBRANCH  10  11
ENDBRANCH   9  10
ENDBRANCH   8   9
ENDBRANCH   7   8
ENDBRANCH   6   7
ENDBRANCH   5   6
ENDBRANCH   4   5
ENDBRANCH   3   4
ENDBRANCH   2   3
ENDBRANCH   1   2
BRANCH   1  15
ATOM     15  O   UNL     1       6.705   7.529  17.325  0.00  0.00    +0.000 OA
BRANCH  15  16
ATOM     16  C   UNL     1       6.309   6.357  16.772  0.00  0.00    +0.000 A 
ATOM     17  N   UNL     1       7.110   5.695  15.891  0.00  0.00    +0.000 NA
ATOM     18  S   UNL     1       6.241   4.347  15.536  0.00  0.00    +0.000 S 
ATOM     19  N   UNL     1       4.875   4.522  16.435  0.00  0.00    +0.000 NA
ATOM     20  C   UNL     1       5.056   5.711  17.073  0.00  0.00    +0.000 A 
BRANCH  20  21
ATOM     21  C   UNL     1       4.007   6.219  18.017  0.00  0.00    +0.000 C 
ATOM     22  C   UNL     1       3.296   7.313  17.673  0.00  0.00    +0.000 C 
ATOM     23  C   UNL     1       2.198   7.896  18.502  0.00  0.00    +0.000 C 
ATOM     24  C   UNL     1       2.121   7.345  19.929  0.00  0.00    +0.000 C 
ATOM     25  N   UNL     1       2.554   5.947  20.059  0.00  0.00    +0.000 NA
ATOM     26  C   UNL     1       1.546   4.929  20.368  0.00  0.00    +0.000 C 
ATOM     27  C   UNL     1       3.742   5.486  19.315  0.00  0.00    +0.000 C 
ENDBRANCH  20  21
ENDBRANCH  15  16
ENDBRANCH   1  15
TORSDOF 15
ENDMDL
MODEL 5
REMARK VINA RESULT:      -5.5      2.724      4.472
REMARK  Name = 
REMARK  17 active torsions:
REMARK  status: ('A' for Active; 'I' for Inactive)
REMARK    1  A    between atoms: C_1  and  C_2
REMARK    2  A    between atoms: C_2  and  O_3
REMARK    3  A    between atoms: O_3  and  C_4
REMARK    4  A    between atoms: C_4  and  C_5
REMARK    5  A    between atoms: C_5  and  O_6
REMARK    6  A    between atoms: O_6  and  C_7
REMARK    7  A    between atoms: C_7  and  C_8
REMARK    8  A    between atoms: C_8  and  O_9
REMARK    9  A    between atoms: O_9  and  C_10
REMARK   10  A    between atoms: C_10  and  C_11
REMARK   11  A    between atoms: C_11  and  O_12
REMARK   12  A    between atoms: O_12  and  C_13
REMARK   13  A    between atoms: C_13  and  C_14
REMARK   14  A    between atoms: C_14  and  O_15
REMARK   15  A    between atoms: O_15  and  C_16
REMARK   16  A    between atoms: C_20  and  C_21
REMARK   17  A    between atoms: N_25  and  C_26
REMARK                            x       y       z     vdW  Elec       q    Type
REMARK                         _______ _______ _______ _____ _____    ______ ____
ROOT
ATOM      1  C   UNL     1       2.546   7.231  19.435  0.00  0.00    +0.000 C 
ENDROOT
BRANCH   1   2
ATOM      2  C   UNL     1       1.862   8.363  18.681  0.00  0.00    +0.000 C 
BRANCH   2   3
ATOM      3  O   UNL     1       1.021   9.047  19.573  0.00  0.00    +0.000 OA
BRANCH   3   4
ATOM      4  C   UNL     1       1.176   8.530  20.881  0.00  0.00    +0.000 C 
BRANCH   4   5
ATOM      5  C   UNL     1       1.173   9.682  21.874  0.00  0.00    +0.000 C 
BRANCH   5   6
ATOM      6  O   UNL     1       0.385   9.322  22.993  0.00  0.00    +0.000 OA
BRANCH   6   7
ATOM      7  C   UNL     1      -0.802  10.083  22.992  0.00  0.00    +0.000 C 
BRANCH   7   8
ATOM      8  C   UNL     1      -0.514  11.439  22.366  0.00  0.00    +0.000 C 
BRANCH   8   9
ATOM      9  O   UNL     1      -1.735  12.111  22.134  0.00  0.00    +0.000 OA
BRANCH   9  10
ATOM     10  C   UNL     1      -2.542  12.029  23.288  0.00  0.00    +0.000 C 
BRANCH  10  11
ATOM     11  C   UNL     1      -3.884  12.685  23.000  0.00  0.00    +0.000 C 
BRANCH  11  12
ATOM     12  O   UNL     1      -4.809  12.256  23.973  0.00  0.00    +0.000 OA
BRANCH  12  14
ATOM     13  C   UNL     1      -6.573  12.696  22.444  0.00  0.00    +0.000 C 
ATOM     14  C   UNL     1      -6.015  12.970  23.832  0.00  0.00    +0.000 C 
ENDBRANCH  12  14
ENDBRANCH  11  12
ENDBRANCH  10  11
ENDBRANCH   9  10
ENDBRANCH   8   9
ENDBRANCH   7   8
ENDBRANCH   6   7
ENDBRANCH   5   6
ENDBRANCH   4   5
ENDBRANCH   3   4
ENDBRANCH   2   3
ENDBRANCH   1   2
BRANCH   1  15
ATOM     15  O   UNL     1       2.220   6.015  18.865  0.00  0.00    +0.000 OA
BRANCH  15  16
ATOM     16  C   UNL     1       2.394   4.829  19.499  0.00  0.00    +0.000 A 
ATOM     17  N   UNL     1       1.472   4.372  20.390  0.00  0.00    +0.000 NA
ATOM     18  S   UNL     1       2.087   2.920  20.852  0.00  0.00    +0.000 S 
ATOM     19  N   UNL     1       3.483   2.801  19.989  0.00  0.00    +0.000 NA
ATOM     20  C   UNL     1       3.524   3.962  19.277  0.00  0.00    +0.000 A 
BRANCH  20  21
ATOM     21  C   UNL     1       4.666   4.222  18.340  0.00  0.00    +0.000 C 
ATOM     22  C   UNL     1       4.518   3.920  17.033  0.00  0.00    +0.000 C 
ATOM     23  C   UNL     1       5.560   4.167  15.991  0.00  0.00    +0.000 C 
ATOM     24  C   UNL     1       6.943   4.517  16.549  0.00  0.00    +0.000 C 
ATOM     25  N   UNL     1       6.911   5.245  17.825  0.00  0.00    +0.000 NA
ATOM     26  C   UNL     1       7.331   6.649  17.838  0.00  0.00    +0.000 C 
ATOM     27  C   UNL     1       5.943   4.842  18.864  0.00  0.00    +0.000 C 
ENDBRANCH  20  21
ENDBRANCH  15  16
ENDBRANCH   1  15
TORSDOF 15
ENDMDL
MODEL 6
REMARK VINA RESULT:      -5.4      1.644      2.577
REMARK  Name = 
REMARK  17 active torsions:
REMARK  status: ('A' for Active; 'I' for Inactive)
REMARK    1  A    between atoms: C_1  and  C_2
REMARK    2  A    between atoms: C_2  and  O_3
REMARK    3  A    between atoms: O_3  and  C_4
REMARK    4  A    between atoms: C_4  and  C_5
REMARK    5  A    between atoms: C_5  and  O_6
REMARK    6  A    between atoms: O_6  and  C_7
REMARK    7  A    between atoms: C_7  and  C_8
REMARK    8  A    between atoms: C_8  and  O_9
REMARK    9  A    between atoms: O_9  and  C_10
REMARK   10  A    between atoms: C_10  and  C_11
REMARK   11  A    between atoms: C_11  and  O_12
REMARK   12  A    between atoms: O_12  and  C_13
REMARK   13  A    between atoms: C_13  and  C_14
REMARK   14  A    between atoms: C_14  and  O_15
REMARK   15  A    between atoms: O_15  and  C_16
REMARK   16  A    between atoms: C_20  and  C_21
REMARK   17  A    between atoms: N_25  and  C_26
REMARK                            x       y       z     vdW  Elec       q    Type
REMARK                         _______ _______ _______ _____ _____    ______ ____
ROOT
ATOM      1  C   UNL     1       3.520   7.270  17.449  0.00  0.00    +0.000 C 
ENDROOT
BRANCH   1   2
ATOM      2  C   UNL     1       2.700   6.808  18.646  0.00  0.00    +0.000 C 
BRANCH   2   3
ATOM      3  O   UNL     1       1.970   7.903  19.135  0.00  0.00    +0.000 OA
BRANCH   3   4
ATOM      4  C   UNL     1       1.956   8.944  18.176  0.00  0.00    +0.000 C 
BRANCH   4   5
ATOM      5  C   UNL     1       0.716   9.798  18.388  0.00  0.00    +0.000 C 
BRANCH   5   6
ATOM      6  O   UNL     1       0.238   9.598  19.704  0.00  0.00    +0.000 OA
BRANCH   6   7
ATOM      7  C   UNL     1       0.612  10.693  20.508  0.00  0.00    +0.000 C 
BRANCH   7   8
ATOM      8  C   UNL     1       0.964  10.183  21.898  0.00  0.00    +0.000 C 
BRANCH   8   9
ATOM      9  O   UNL     1       0.008  10.662  22.823  0.00  0.00    +0.000 OA
BRANCH   9  10
ATOM     10  C   UNL     1      -0.896  11.519  22.162  0.00  0.00    +0.000 C 
BRANCH  10  11
ATOM     11  C   UNL     1      -1.322  12.621  23.120  0.00  0.00    +0.000 C 
BRANCH  11  12
ATOM     12  O   UNL     1      -2.345  13.373  22.510  0.00  0.00    +0.000 OA
BRANCH  12  14
ATOM     13  C   UNL     1      -4.245  12.802  23.817  0.00  0.00    +0.000 C 
ATOM     14  C   UNL     1      -3.537  12.623  22.482  0.00  0.00    +0.000 C 
ENDBRANCH  12  14
ENDBRANCH  11  12
ENDBRANCH  10  11
ENDBRANCH   9  10
ENDBRANCH   8   9
ENDBRANCH   7   8
ENDBRANCH   6   7
ENDBRANCH   5   6
ENDBRANCH   4   5
ENDBRANCH   3   4
ENDBRANCH   2   3
ENDBRANCH   1   2
BRANCH   1  15
ATOM     15  O   UNL     1       4.790   6.728  17.506  0.00  0.00    +0.000 OA
BRANCH  15  16
ATOM     16  C   UNL     1       5.266   5.857  16.584  0.00  0.00    +0.000 A 
ATOM     17  N   UNL     1       6.036   6.289  15.546  0.00  0.00    +0.000 NA
ATOM     18  S   UNL     1       6.394   4.902  14.743  0.00  0.00    +0.000 S 
ATOM     19  N   UNL     1       5.631   3.740  15.623  0.00  0.00    +0.000 NA
ATOM     20  C   UNL     1       5.029   4.436  16.627  0.00  0.00    +0.000 A 
BRANCH  20  21
ATOM     21  C   UNL     1       4.231   3.706  17.666  0.00  0.00    +0.000 C 
ATOM     22  C   UNL     1       3.083   3.100  17.299  0.00  0.00    +0.000 C 
ATOM     23  C   UNL     1       2.219   2.307  18.226  0.00  0.00    +0.000 C 
ATOM     24  C   UNL     1       2.562   2.472  19.709  0.00  0.00    +0.000 C 
ATOM     25  N   UNL     1       3.987   2.721  19.974  0.00  0.00    +0.000 NA
ATOM     26  C   UNL     1       4.766   1.673  20.637  0.00  0.00    +0.000 C 
ATOM     27  C   UNL     1       4.737   3.636  19.091  0.00  0.00    +0.000 C 
ENDBRANCH  20  21
ENDBRANCH  15  16
ENDBRANCH   1  15
TORSDOF 15
ENDMDL
MODEL 7
REMARK VINA RESULT:      -5.4      3.097      4.691
REMARK  Name = 
REMARK  17 active torsions:
REMARK  status: ('A' for Active; 'I' for Inactive)
REMARK    1  A    between atoms: C_1  and  C_2
REMARK    2  A    between atoms: C_2  and  O_3
REMARK    3  A    between atoms: O_3  and  C_4
REMARK    4  A    between atoms: C_4  and  C_5
REMARK    5  A    between atoms: C_5  and  O_6
REMARK    6  A    between atoms: O_6  and  C_7
REMARK    7  A    between atoms: C_7  and  C_8
REMARK    8  A    between atoms: C_8  and  O_9
REMARK    9  A    between atoms: O_9  and  C_10
REMARK   10  A    between atoms: C_10  and  C_11
REMARK   11  A    between atoms: C_11  and  O_12
REMARK   12  A    between atoms: O_12  and  C_13
REMARK   13  A    between atoms: C_13  and  C_14
REMARK   14  A    between atoms: C_14  and  O_15
REMARK   15  A    between atoms: O_15  and  C_16
REMARK   16  A    between atoms: C_20  and  C_21
REMARK   17  A    between atoms: N_25  and  C_26
REMARK                            x       y       z     vdW  Elec       q    Type
REMARK                         _______ _______ _______ _____ _____    ______ ____
ROOT
ATOM      1  C   UNL     1       1.838   7.782  18.232  0.00  0.00    +0.000 C 
ENDROOT
BRANCH   1   2
ATOM      2  C   UNL     1       1.819   9.284  18.480  0.00  0.00    +0.000 C 
BRANCH   2   3
ATOM      3  O   UNL     1       0.538   9.644  18.930  0.00  0.00    +0.000 OA
BRANCH   3   4
ATOM      4  C   UNL     1       0.610  10.137  20.255  0.00  0.00    +0.000 C 
BRANCH   4   5
ATOM      5  C   UNL     1       0.018   9.104  21.202  0.00  0.00    +0.000 C 
BRANCH   5   6
ATOM      6  O   UNL     1      -0.599   9.773  22.285  0.00  0.00    +0.000 OA
BRANCH   6   7
ATOM      7  C   UNL     1      -0.774  11.132  21.956  0.00  0.00    +0.000 C 
BRANCH   7   8
ATOM      8  C   UNL     1      -1.498  11.823  23.102  0.00  0.00    +0.000 C 
BRANCH   8   9
ATOM      9  O   UNL     1      -2.840  12.062  22.725  0.00  0.00    +0.000 OA
BRANCH   9  10
ATOM     10  C   UNL     1      -3.570  12.503  23.848  0.00  0.00    +0.000 C 
BRANCH  10  11
ATOM     11  C   UNL     1      -4.980  12.869  23.408  0.00  0.00    +0.000 C 
BRANCH  11  12
ATOM     12  O   UNL     1      -5.896  12.124  24.177  0.00  0.00    +0.000 OA
BRANCH  12  14
ATOM     13  C   UNL     1      -7.545  13.833  24.214  0.00  0.00    +0.000 C 
ATOM     14  C   UNL     1      -7.211  12.418  23.768  0.00  0.00    +0.000 C 
ENDBRANCH  12  14
ENDBRANCH  11  12
ENDBRANCH  10  11
ENDBRANCH   9  10
ENDBRANCH   8   9
ENDBRANCH   7   8
ENDBRANCH   6   7
ENDBRANCH   5   6
ENDBRANCH   4   5
ENDBRANCH   3   4
ENDBRANCH   2   3
ENDBRANCH   1   2
BRANCH   1  15
ATOM     15  O   UNL     1       2.854   7.193  18.962  0.00  0.00    +0.000 OA
BRANCH  15  16
ATOM     16  C   UNL     1       2.718   6.001  19.591  0.00  0.00    +0.000 A 
ATOM     17  N   UNL     1       1.709   5.792  20.481  0.00  0.00    +0.000 NA
ATOM     18  S   UNL     1       1.931   4.230  20.938  0.00  0.00    +0.000 S 
ATOM     19  N   UNL     1       3.251   3.760  20.076  0.00  0.00    +0.000 NA
ATOM     20  C   UNL     1       3.588   4.874  19.367  0.00  0.00    +0.000 A 
BRANCH  20  21
ATOM     21  C   UNL     1       4.760   4.836  18.432  0.00  0.00    +0.000 C 
ATOM     22  C   UNL     1       4.615   4.242  17.230  0.00  0.00    +0.000 C 
ATOM     23  C   UNL     1       5.688   4.172  16.192  0.00  0.00    +0.000 C 
ATOM     24  C   UNL     1       7.081   4.562  16.695  0.00  0.00    +0.000 C 
ATOM     25  N   UNL     1       7.076   5.573  17.762  0.00  0.00    +0.000 NA
ATOM     26  C   UNL     1       7.586   6.913  17.456  0.00  0.00    +0.000 C 
ATOM     27  C   UNL     1       6.067   5.487  18.835  0.00  0.00    +0.000 C 
ENDBRANCH  20  21
ENDBRANCH  15  16
ENDBRANCH   1  15
TORSDOF 15
ENDMDL
MODEL 8
REMARK VINA RESULT:      -5.4      3.241      3.928
REMARK  Name = 
REMARK  17 active torsions:
REMARK  status: ('A' for Active; 'I' for Inactive)
REMARK    1  A    between atoms: C_1  and  C_2
REMARK    2  A    between atoms: C_2  and  O_3
REMARK    3  A    between atoms: O_3  and  C_4
REMARK    4  A    between atoms: C_4  and  C_5
REMARK    5  A    between atoms: C_5  and  O_6
REMARK    6  A    between atoms: O_6  and  C_7
REMARK    7  A    between atoms: C_7  and  C_8
REMARK    8  A    between atoms: C_8  and  O_9
REMARK    9  A    between atoms: O_9  and  C_10
REMARK   10  A    between atoms: C_10  and  C_11
REMARK   11  A    between atoms: C_11  and  O_12
REMARK   12  A    between atoms: O_12  and  C_13
REMARK   13  A    between atoms: C_13  and  C_14
REMARK   14  A    between atoms: C_14  and  O_15
REMARK   15  A    between atoms: O_15  and  C_16
REMARK   16  A    between atoms: C_20  and  C_21
REMARK   17  A    between atoms: N_25  and  C_26
REMARK                            x       y       z     vdW  Elec       q    Type
REMARK                         _______ _______ _______ _____ _____    ______ ____
ROOT
ATOM      1  C   UNL     1       2.140   8.192  17.498  0.00  0.00    +0.000 C 
ENDROOT
BRANCH   1   2
ATOM      2  C   UNL     1       1.862   9.529  18.171  0.00  0.00    +0.000 C 
BRANCH   2   3
ATOM      3  O   UNL     1       1.347   9.283  19.454  0.00  0.00    +0.000 OA
BRANCH   3   4
ATOM      4  C   UNL     1       0.684  10.434  19.940  0.00  0.00    +0.000 C 
BRANCH   4   5
ATOM      5  C   UNL     1      -0.813  10.271  19.730  0.00  0.00    +0.000 C 
BRANCH   5   6
ATOM      6  O   UNL     1      -1.366  11.522  19.368  0.00  0.00    +0.000 OA
BRANCH   6   7
ATOM      7  C   UNL     1      -1.757  11.486  18.014  0.00  0.00    +0.000 C 
BRANCH   7   8
ATOM      8  C   UNL     1      -2.111  10.053  17.645  0.00  0.00    +0.000 C 
BRANCH   8   9
ATOM      9  O   UNL     1      -3.474   9.992  17.278  0.00  0.00    +0.000 OA
BRANCH   9  10
ATOM     10  C   UNL     1      -4.087  11.235  17.542  0.00  0.00    +0.000 C 
BRANCH  10  11
ATOM     11  C   UNL     1      -5.434  10.990  18.207  0.00  0.00    +0.000 C 
BRANCH  11  12
ATOM     12  O   UNL     1      -6.398  11.800  17.574  0.00  0.00    +0.000 OA
BRANCH  12  14
ATOM     13  C   UNL     1      -7.336  11.381  19.716  0.00  0.00    +0.000 C 
ATOM     14  C   UNL     1      -7.273  12.340  18.537  0.00  0.00    +0.000 C 
ENDBRANCH  12  14
ENDBRANCH  11  12
ENDBRANCH  10  11
ENDBRANCH   9  10
ENDBRANCH   8   9
ENDBRANCH   7   8
ENDBRANCH   6   7
ENDBRANCH   5   6
ENDBRANCH   4   5
ENDBRANCH   3   4
ENDBRANCH   2   3
ENDBRANCH   1   2
BRANCH   1  15
ATOM     15  O   UNL     1       3.152   7.526  18.164  0.00  0.00    +0.000 OA
BRANCH  15  16
ATOM     16  C   UNL     1       3.981   6.642  17.558  0.00  0.00    +0.000 A 
ATOM     17  N   UNL     1       5.010   7.073  16.777  0.00  0.00    +0.000 NA
ATOM     18  S   UNL     1       5.735   5.675  16.308  0.00  0.00    +0.000 S 
ATOM     19  N   UNL     1       4.828   4.510  17.034  0.00  0.00    +0.000 NA
ATOM     20  C   UNL     1       3.868   5.212  17.698  0.00  0.00    +0.000 A 
BRANCH  20  21
ATOM     21  C   UNL     1       2.838   4.484  18.509  0.00  0.00    +0.000 C 
ATOM     22  C   UNL     1       1.914   3.738  17.869  0.00  0.00    +0.000 C 
ATOM     23  C   UNL     1       0.861   2.932  18.558  0.00  0.00    +0.000 C 
ATOM     24  C   UNL     1       0.703   3.241  20.050  0.00  0.00    +0.000 C 
ATOM     25  N   UNL     1       1.947   3.652  20.715  0.00  0.00    +0.000 NA
ATOM     26  C   UNL     1       2.551   2.742  21.691  0.00  0.00    +0.000 C 
ATOM     27  C   UNL     1       2.869   4.571  20.020  0.00  0.00    +0.000 C 
ENDBRANCH  20  21
ENDBRANCH  15  16
ENDBRANCH   1  15
TORSDOF 15
ENDMDL
MODEL 9
REMARK VINA RESULT:      -5.4      3.160      4.634
REMARK  Name = 
REMARK  17 active torsions:
REMARK  status: ('A' for Active; 'I' for Inactive)
REMARK    1  A    between atoms: C_1  and  C_2
REMARK    2  A    between atoms: C_2  and  O_3
REMARK    3  A    between atoms: O_3  and  C_4
REMARK    4  A    between atoms: C_4  and  C_5
REMARK    5  A    between atoms: C_5  and  O_6
REMARK    6  A    between atoms: O_6  and  C_7
REMARK    7  A    between atoms: C_7  and  C_8
REMARK    8  A    between atoms: C_8  and  O_9
REMARK    9  A    between atoms: O_9  and  C_10
REMARK   10  A    between atoms: C_10  and  C_11
REMARK   11  A    between atoms: C_11  and  O_12
REMARK   12  A    between atoms: O_12  and  C_13
REMARK   13  A    between atoms: C_13  and  C_14
REMARK   14  A    between atoms: C_14  and  O_15
REMARK   15  A    between atoms: O_15  and  C_16
REMARK   16  A    between atoms: C_20  and  C_21
REMARK   17  A    between atoms: N_25  and  C_26
REMARK                            x       y       z     vdW  Elec       q    Type
REMARK                         _______ _______ _______ _____ _____    ______ ____
ROOT
ATOM      1  C   UNL     1       1.837   6.522  20.439  0.00  0.00    +0.000 C 
ENDROOT
BRANCH   1   2
ATOM      2  C   UNL     1       1.875   7.944  19.898  0.00  0.00    +0.000 C 
BRANCH   2   3
ATOM      3  O   UNL     1       2.266   7.897  18.550  0.00  0.00    +0.000 OA
BRANCH   3   4
ATOM      4  C   UNL     1       1.670   8.962  17.834  0.00  0.00    +0.000 C 
BRANCH   4   5
ATOM      5  C   UNL     1       1.257  10.049  18.814  0.00  0.00    +0.000 C 
BRANCH   5   6
ATOM      6  O   UNL     1      -0.027  10.525  18.460  0.00  0.00    +0.000 OA
BRANCH   6   7
ATOM      7  C   UNL     1      -0.411  11.543  19.356  0.00  0.00    +0.000 C 
BRANCH   7   8
ATOM      8  C   UNL     1      -1.701  12.175  18.855  0.00  0.00    +0.000 C 
BRANCH   8   9
ATOM      9  O   UNL     1      -2.796  11.379  19.261  0.00  0.00    +0.000 OA
BRANCH   9  10
ATOM     10  C   UNL     1      -3.998  12.080  19.027  0.00  0.00    +0.000 C 
BRANCH  10  11
ATOM     11  C   UNL     1      -4.473  11.787  17.612  0.00  0.00    +0.000 C 
BRANCH  11  12
ATOM     12  O   UNL     1      -4.155  10.449  17.302  0.00  0.00    +0.000 OA
BRANCH  12  14
ATOM     13  C   UNL     1      -2.656  10.790  15.492  0.00  0.00    +0.000 C 
ATOM     14  C   UNL     1      -4.034  10.299  15.907  0.00  0.00    +0.000 C 
ENDBRANCH  12  14
ENDBRANCH  11  12
ENDBRANCH  10  11
ENDBRANCH   9  10
ENDBRANCH   8   9
ENDBRANCH   7   8
ENDBRANCH   6   7
ENDBRANCH   5   6
ENDBRANCH   4   5
ENDBRANCH   3   4
ENDBRANCH   2   3
ENDBRANCH   1   2
BRANCH   1  15
ATOM     15  O   UNL     1       2.660   5.705  19.688  0.00  0.00    +0.000 OA
BRANCH  15  16
ATOM     16  C   UNL     1       2.284   4.481  19.245  0.00  0.00    +0.000 A 
ATOM     17  N   UNL     1       1.067   3.964  19.570  0.00  0.00    +0.000 NA
ATOM     18  S   UNL     1       1.054   2.518  18.790  0.00  0.00    +0.000 S 
ATOM     19  N   UNL     1       2.516   2.474  18.037  0.00  0.00    +0.000 NA
ATOM     20  C   UNL     1       3.102   3.650  18.397  0.00  0.00    +0.000 A 
BRANCH  20  21
ATOM     21  C   UNL     1       4.470   3.989  17.885  0.00  0.00    +0.000 C 
ATOM     22  C   UNL     1       4.639   4.188  16.561  0.00  0.00    +0.000 C 
ATOM     23  C   UNL     1       5.938   4.571  15.929  0.00  0.00    +0.000 C 
ATOM     24  C   UNL     1       7.155   4.433  16.848  0.00  0.00    +0.000 C 
ATOM     25  N   UNL     1       6.866   4.672  18.270  0.00  0.00    +0.000 NA
ATOM     26  C   UNL     1       7.412   5.877  18.900  0.00  0.00    +0.000 C 
ATOM     27  C   UNL     1       5.623   4.133  18.855  0.00  0.00    +0.000 C 
ENDBRANCH  20  21
ENDBRANCH  15  16
ENDBRANCH   1  15
TORSDOF 15
ENDMDL
