MODEL 1
REMARK VINA RESULT:      -7.2      0.000      0.000
REMARK  Name = 
REMARK  5 active torsions:
REMARK  status: ('A' for Active; 'I' for Inactive)
REMARK    1  A    between atoms: C_5  and  C_6
REMARK    2  A    between atoms: C_6  and  C_7
REMARK    3  A    between atoms: C_7  and  N_8
REMARK    4  A    between atoms: N_13  and  N_14
REMARK    5  A    between atoms: N_14  and  C_15
REMARK                            x       y       z     vdW  Elec       q    Type
REMARK                         _______ _______ _______ _____ _____    ______ ____
ROOT
ATOM      1  C   UNL     1       3.016   5.851  19.775  0.00  0.00    +0.000 C 
ATOM      2  N   UNL     1       4.122   5.333  19.324  0.00  0.00    +0.000 NA
ENDROOT
BRANCH   1   7
ATOM      3 CL   UNL     1       0.277  10.845  19.248  0.00  0.00    +0.000 Cl
ATOM      4  C   UNL     1       1.212   9.376  19.096  0.00  0.00    +0.000 A 
ATOM      5  C   UNL     1       1.713   8.928  17.902  0.00  0.00    +0.000 A 
ATOM      6  C   UNL     1       2.386   7.720  18.006  0.00  0.00    +0.000 A 
ATOM      7  C   UNL     1       2.447   7.178  19.305  0.00  0.00    +0.000 A 
ATOM      8  S   UNL     1       1.633   8.278  20.309  0.00  0.00    +0.000 S 
ENDBRANCH   1   7
BRANCH   2   9
ATOM      9  N   UNL     1       5.009   6.002  18.515  0.00  0.00    +0.000 N 
ATOM     10  H   UNL     1       5.451   6.833  18.910  0.00  0.00    +0.000 HD
BRANCH   9  11
ATOM     11  C   UNL     1       5.554   5.497  17.291  0.00  0.00    +0.000 A 
ATOM     12  C   UNL     1       4.925   4.496  16.502  0.00  0.00    +0.000 A 
ATOM     13 CL   UNL     1       3.380   3.762  16.916  0.00  0.00    +0.000 Cl
ATOM     14  C   UNL     1       5.558   4.025  15.339  0.00  0.00    +0.000 A 
ATOM     15  C   UNL     1       6.788   4.544  14.935  0.00  0.00    +0.000 A 
ATOM     16  C   UNL     1       7.396   5.547  15.680  0.00  0.00    +0.000 A 
ATOM     17  C   UNL     1       6.796   6.022  16.845  0.00  0.00    +0.000 A 
ATOM     18 CL   UNL     1       7.636   7.313  17.703  0.00  0.00    +0.000 Cl
ENDBRANCH   9  11
ENDBRANCH   2   9
BRANCH   1  19
ATOM     19  C   UNL     1       2.241   5.001  20.768  0.00  0.00    +0.000 C 
BRANCH  19  20
ATOM     20  N   UNL     1       1.796   3.745  20.163  0.00  0.00    +0.000 N 
ATOM     21  C   UNL     1       0.729   3.553  19.365  0.00  0.00    +0.000 A 
ATOM     22  C   UNL     1       0.699   2.226  18.997  0.00  0.00    +0.000 A 
ATOM     23  N   UNL     1       1.746   1.588  19.567  0.00  0.00    +0.000 NA
ATOM     24  C   UNL     1       2.393   2.538  20.264  0.00  0.00    +0.000 A 
ENDBRANCH  19  20
ENDBRANCH   1  19
TORSDOF 5
ENDMDL
MODEL 2
REMARK VINA RESULT:      -7.1      2.388      6.044
REMARK  Name = 
REMARK  5 active torsions:
REMARK  status: ('A' for Active; 'I' for Inactive)
REMARK    1  A    between atoms: C_5  and  C_6
REMARK    2  A    between atoms: C_6  and  C_7
REMARK    3  A    between atoms: C_7  and  N_8
REMARK    4  A    between atoms: N_13  and  N_14
REMARK    5  A    between atoms: N_14  and  C_15
REMARK                            x       y       z     vdW  Elec       q    Type
REMARK                         _______ _______ _______ _____ _____    ______ ____
ROOT
ATOM      1  C   UNL     1       2.144   5.873  20.093  0.00  0.00    +0.000 C 
ATOM      2  N   UNL     1       1.638   6.882  20.743  0.00  0.00    +0.000 NA
ENDROOT
BRANCH   1   7
ATOM      3 CL   UNL     1       7.183   5.989  17.388  0.00  0.00    +0.000 Cl
ATOM      4  C   UNL     1       5.519   6.051  17.921  0.00  0.00    +0.000 A 
ATOM      5  C   UNL     1       4.516   6.613  17.177  0.00  0.00    +0.000 A 
ATOM      6  C   UNL     1       3.282   6.592  17.811  0.00  0.00    +0.000 A 
ATOM      7  C   UNL     1       3.275   5.994  19.087  0.00  0.00    +0.000 A 
ATOM      8  S   UNL     1       4.870   5.490  19.376  0.00  0.00    +0.000 S 
ENDBRANCH   1   7
BRANCH   2   9
ATOM      9  N   UNL     1       1.925   8.197  20.465  0.00  0.00    +0.000 N 
ATOM     10  H   UNL     1       2.862   8.395  20.110  0.00  0.00    +0.000 HD
BRANCH   9  11
ATOM     11  C   UNL     1       0.963   9.253  20.382  0.00  0.00    +0.000 A 
ATOM     12  C   UNL     1       0.294   9.802  21.510  0.00  0.00    +0.000 A 
ATOM     13 CL   UNL     1       0.581   9.269  23.162  0.00  0.00    +0.000 Cl
ATOM     14  C   UNL     1      -0.674  10.804  21.326  0.00  0.00    +0.000 A 
ATOM     15  C   UNL     1      -0.972  11.285  20.052  0.00  0.00    +0.000 A 
ATOM     16  C   UNL     1      -0.300  10.780  18.945  0.00  0.00    +0.000 A 
ATOM     17  C   UNL     1       0.654   9.776  19.098  0.00  0.00    +0.000 A 
ATOM     18 CL   UNL     1       1.467   9.222  17.633  0.00  0.00    +0.000 Cl
ENDBRANCH   9  11
ENDBRANCH   2   9
BRANCH   1  19
ATOM     19  C   UNL     1       1.596   4.505  20.459  0.00  0.00    +0.000 C 
BRANCH  19  20
ATOM     20  N   UNL     1       1.996   3.491  19.481  0.00  0.00    +0.000 N 
ATOM     21  C   UNL     1       2.875   2.486  19.656  0.00  0.00    +0.000 A 
ATOM     22  C   UNL     1       2.929   1.754  18.491  0.00  0.00    +0.000 A 
ATOM     23  N   UNL     1       2.085   2.301  17.587  0.00  0.00    +0.000 NA
ATOM     24  C   UNL     1       1.533   3.350  18.220  0.00  0.00    +0.000 A 
ENDBRANCH  19  20
ENDBRANCH   1  19
TORSDOF 5
ENDMDL
MODEL 3
REMARK VINA RESULT:      -7.1      0.231      1.950
REMARK  Name = 
REMARK  5 active torsions:
REMARK  status: ('A' for Active; 'I' for Inactive)
REMARK    1  A    between atoms: C_5  and  C_6
REMARK    2  A    between atoms: C_6  and  C_7
REMARK    3  A    between atoms: C_7  and  N_8
REMARK    4  A    between atoms: N_13  and  N_14
REMARK    5  A    between atoms: N_14  and  C_15
REMARK                            x       y       z     vdW  Elec       q    Type
REMARK                         _______ _______ _______ _____ _____    ______ ____
ROOT
ATOM      1  C   UNL     1       2.898   5.981  19.677  0.00  0.00    +0.000 C 
ATOM      2  N   UNL     1       3.935   5.470  19.077  0.00  0.00    +0.000 NA
ENDROOT
BRANCH   1   7
ATOM      3 CL   UNL     1       0.085  10.961  19.641  0.00  0.00    +0.000 Cl
ATOM      4  C   UNL     1       1.037   9.526  19.344  0.00  0.00    +0.000 A 
ATOM      5  C   UNL     1       1.524   9.194  18.107  0.00  0.00    +0.000 A 
ATOM      6  C   UNL     1       2.215   7.991  18.091  0.00  0.00    +0.000 A 
ATOM      7  C   UNL     1       2.304   7.336  19.336  0.00  0.00    +0.000 A 
ATOM      8  S   UNL     1       1.492   8.330  20.447  0.00  0.00    +0.000 S 
ENDBRANCH   1   7
BRANCH   2   9
ATOM      9  N   UNL     1       4.735   6.164  18.202  0.00  0.00    +0.000 N 
ATOM     10  H   UNL     1       4.960   7.127  18.453  0.00  0.00    +0.000 HD
BRANCH   9  11
ATOM     11  C   UNL     1       5.480   5.583  17.126  0.00  0.00    +0.000 A 
ATOM     12  C   UNL     1       6.770   6.029  16.729  0.00  0.00    +0.000 A 
ATOM     13 CL   UNL     1       7.631   7.341  17.525  0.00  0.00    +0.000 Cl
ATOM     14  C   UNL     1       7.406   5.431  15.628  0.00  0.00    +0.000 A 
ATOM     15  C   UNL     1       6.797   4.387  14.931  0.00  0.00    +0.000 A 
ATOM     16  C   UNL     1       5.551   3.920  15.331  0.00  0.00    +0.000 A 
ATOM     17  C   UNL     1       4.893   4.505  16.412  0.00  0.00    +0.000 A 
ATOM     18 CL   UNL     1       3.328   3.822  16.854  0.00  0.00    +0.000 Cl
ENDBRANCH   9  11
ENDBRANCH   2   9
BRANCH   1  19
ATOM     19  C   UNL     1       2.227   5.096  20.714  0.00  0.00    +0.000 C 
BRANCH  19  20
ATOM     20  N   UNL     1       1.820   3.813  20.138  0.00  0.00    +0.000 N 
ATOM     21  C   UNL     1       0.736   3.562  19.380  0.00  0.00    +0.000 A 
ATOM     22  C   UNL     1       0.756   2.231  19.029  0.00  0.00    +0.000 A 
ATOM     23  N   UNL     1       1.850   1.649  19.568  0.00  0.00    +0.000 NA
ATOM     24  C   UNL     1       2.476   2.636  20.232  0.00  0.00    +0.000 A 
ENDBRANCH  19  20
ENDBRANCH   1  19
TORSDOF 5
ENDMDL
MODEL 4
REMARK VINA RESULT:      -7.0      2.407      6.001
REMARK  Name = 
REMARK  5 active torsions:
REMARK  status: ('A' for Active; 'I' for Inactive)
REMARK    1  A    between atoms: C_5  and  C_6
REMARK    2  A    between atoms: C_6  and  C_7
REMARK    3  A    between atoms: C_7  and  N_8
REMARK    4  A    between atoms: N_13  and  N_14
REMARK    5  A    between atoms: N_14  and  C_15
REMARK                            x       y       z     vdW  Elec       q    Type
REMARK                         _______ _______ _______ _____ _____    ______ ____
ROOT
ATOM      1  C   UNL     1       2.076   5.849  20.091  0.00  0.00    +0.000 C 
ATOM      2  N   UNL     1       1.592   6.840  20.784  0.00  0.00    +0.000 NA
ENDROOT
BRANCH   1   7
ATOM      3 CL   UNL     1       7.154   6.002  17.461  0.00  0.00    +0.000 Cl
ATOM      4  C   UNL     1       5.483   6.057  17.971  0.00  0.00    +0.000 A 
ATOM      5  C   UNL     1       4.490   6.631  17.221  0.00  0.00    +0.000 A 
ATOM      6  C   UNL     1       3.248   6.602  17.837  0.00  0.00    +0.000 A 
ATOM      7  C   UNL     1       3.221   5.984  19.103  0.00  0.00    +0.000 A 
ATOM      8  S   UNL     1       4.812   5.474  19.407  0.00  0.00    +0.000 S 
ENDBRANCH   1   7
BRANCH   2   9
ATOM      9  N   UNL     1       1.921   8.157  20.572  0.00  0.00    +0.000 N 
ATOM     10  H   UNL     1       2.903   8.359  20.382  0.00  0.00    +0.000 HD
BRANCH   9  11
ATOM     11  C   UNL     1       0.984   9.215  20.340  0.00  0.00    +0.000 A 
ATOM     12  C   UNL     1       0.664   9.715  19.048  0.00  0.00    +0.000 A 
ATOM     13 CL   UNL     1       1.361   9.081  17.562  0.00  0.00    +0.000 Cl
ATOM     14  C   UNL     1      -0.231  10.790  18.920  0.00  0.00    +0.000 A 
ATOM     15  C   UNL     1      -0.829  11.361  20.043  0.00  0.00    +0.000 A 
ATOM     16  C   UNL     1      -0.550  10.858  21.308  0.00  0.00    +0.000 A 
ATOM     17  C   UNL     1       0.345   9.801  21.465  0.00  0.00    +0.000 A 
ATOM     18 CL   UNL     1       0.611   9.221  23.109  0.00  0.00    +0.000 Cl
ENDBRANCH   9  11
ENDBRANCH   2   9
BRANCH   1  19
ATOM     19  C   UNL     1       1.484   4.481  20.384  0.00  0.00    +0.000 C 
BRANCH  19  20
ATOM     20  N   UNL     1       1.942   3.482  19.416  0.00  0.00    +0.000 N 
ATOM     21  C   UNL     1       2.820   2.483  19.625  0.00  0.00    +0.000 A 
ATOM     22  C   UNL     1       2.939   1.765  18.456  0.00  0.00    +0.000 A 
ATOM     23  N   UNL     1       2.138   2.316  17.516  0.00  0.00    +0.000 NA
ATOM     24  C   UNL     1       1.545   3.354  18.132  0.00  0.00    +0.000 A 
ENDBRANCH  19  20
ENDBRANCH   1  19
TORSDOF 5
ENDMDL
MODEL 5
REMARK VINA RESULT:      -7.0      2.734      6.479
REMARK  Name = 
REMARK  5 active torsions:
REMARK  status: ('A' for Active; 'I' for Inactive)
REMARK    1  A    between atoms: C_5  and  C_6
REMARK    2  A    between atoms: C_6  and  C_7
REMARK    3  A    between atoms: C_7  and  N_8
REMARK    4  A    between atoms: N_13  and  N_14
REMARK    5  A    between atoms: N_14  and  C_15
REMARK                            x       y       z     vdW  Elec       q    Type
REMARK                         _______ _______ _______ _____ _____    ______ ____
ROOT
ATOM      1  C   UNL     1       5.435   4.186  16.403  0.00  0.00    +0.000 C 
ATOM      2  N   UNL     1       4.160   4.024  16.612  0.00  0.00    +0.000 NA
ENDROOT
BRANCH   1   7
ATOM      3 CL   UNL     1       8.238   8.832  18.216  0.00  0.00    +0.000 Cl
ATOM      4  C   UNL     1       7.534   7.260  17.916  0.00  0.00    +0.000 A 
ATOM      5  C   UNL     1       7.961   6.118  18.541  0.00  0.00    +0.000 A 
ATOM      6  C   UNL     1       7.291   4.978  18.121  0.00  0.00    +0.000 A 
ATOM      7  C   UNL     1       6.295   5.193  17.147  0.00  0.00    +0.000 A 
ATOM      8  S   UNL     1       6.287   6.863  16.848  0.00  0.00    +0.000 S 
ENDBRANCH   1   7
BRANCH   2   9
ATOM      9  N   UNL     1       3.396   4.864  17.386  0.00  0.00    +0.000 N 
ATOM     10  H   UNL     1       3.115   5.748  16.960  0.00  0.00    +0.000 HD
BRANCH   9  11
ATOM     11  C   UNL     1       2.752   4.501  18.612  0.00  0.00    +0.000 A 
ATOM     12  C   UNL     1       2.555   3.157  19.031  0.00  0.00    +0.000 A 
ATOM     13 CL   UNL     1       3.097   1.762  18.106  0.00  0.00    +0.000 Cl
ATOM     14  C   UNL     1       1.868   2.895  20.229  0.00  0.00    +0.000 A 
ATOM     15  C   UNL     1       1.396   3.938  21.025  0.00  0.00    +0.000 A 
ATOM     16  C   UNL     1       1.613   5.256  20.643  0.00  0.00    +0.000 A 
ATOM     17  C   UNL     1       2.280   5.544  19.453  0.00  0.00    +0.000 A 
ATOM     18 CL   UNL     1       2.527   7.248  19.071  0.00  0.00    +0.000 Cl
ENDBRANCH   9  11
ENDBRANCH   2   9
BRANCH   1  19
ATOM     19  C   UNL     1       6.073   3.233  15.407  0.00  0.00    +0.000 C 
BRANCH  19  20
ATOM     20  N   UNL     1       6.593   3.948  14.240  0.00  0.00    +0.000 N 
ATOM     21  C   UNL     1       6.307   3.719  12.945  0.00  0.00    +0.000 A 
ATOM     22  C   UNL     1       6.989   4.642  12.184  0.00  0.00    +0.000 A 
ATOM     23  N   UNL     1       7.703   5.447  13.003  0.00  0.00    +0.000 NA
ATOM     24  C   UNL     1       7.438   5.002  14.244  0.00  0.00    +0.000 A 
ENDBRANCH  19  20
ENDBRANCH   1  19
TORSDOF 5
ENDMDL
MODEL 6
REMARK VINA RESULT:      -6.9      3.155      7.054
REMARK  Name = 
REMARK  5 active torsions:
REMARK  status: ('A' for Active; 'I' for Inactive)
REMARK    1  A    between atoms: C_5  and  C_6
REMARK    2  A    between atoms: C_6  and  C_7
REMARK    3  A    between atoms: C_7  and  N_8
REMARK    4  A    between atoms: N_13  and  N_14
REMARK    5  A    between atoms: N_14  and  C_15
REMARK                            x       y       z     vdW  Elec       q    Type
REMARK                         _______ _______ _______ _____ _____    ______ ____
ROOT
ATOM      1  C   UNL     1       6.200   5.041  17.604  0.00  0.00    +0.000 C 
ATOM      2  N   UNL     1       5.154   5.207  18.362  0.00  0.00    +0.000 NA
ENDROOT
BRANCH   1   7
ATOM      3 CL   UNL     1       7.103   4.191  12.020  0.00  0.00    +0.000 Cl
ATOM      4  C   UNL     1       6.552   4.269  13.677  0.00  0.00    +0.000 A 
ATOM      5  C   UNL     1       5.304   3.865  14.070  0.00  0.00    +0.000 A 
ATOM      6  C   UNL     1       5.063   4.057  15.423  0.00  0.00    +0.000 A 
ATOM      7  C   UNL     1       6.134   4.616  16.148  0.00  0.00    +0.000 A 
ATOM      8  S   UNL     1       7.387   4.847  15.027  0.00  0.00    +0.000 S 
ENDBRANCH   1   7
BRANCH   2   9
ATOM      9  N   UNL     1       3.880   4.837  18.003  0.00  0.00    +0.000 N 
ATOM     10  H   UNL     1       3.693   4.752  17.003  0.00  0.00    +0.000 HD
BRANCH   9  11
ATOM     11  C   UNL     1       2.889   4.317  18.895  0.00  0.00    +0.000 A 
ATOM     12  C   UNL     1       2.107   5.125  19.765  0.00  0.00    +0.000 A 
ATOM     13 CL   UNL     1       2.241   6.878  19.841  0.00  0.00    +0.000 Cl
ATOM     14  C   UNL     1       1.191   4.521  20.643  0.00  0.00    +0.000 A 
ATOM     15  C   UNL     1       1.021   3.137  20.657  0.00  0.00    +0.000 A 
ATOM     16  C   UNL     1       1.755   2.339  19.788  0.00  0.00    +0.000 A 
ATOM     17  C   UNL     1       2.680   2.912  18.916  0.00  0.00    +0.000 A 
ATOM     18 CL   UNL     1       3.541   1.814  17.837  0.00  0.00    +0.000 Cl
ENDBRANCH   9  11
ENDBRANCH   2   9
BRANCH   1  19
ATOM     19  C   UNL     1       7.539   5.385  18.235  0.00  0.00    +0.000 C 
BRANCH  19  20
ATOM     20  N   UNL     1       7.802   6.824  18.177  0.00  0.00    +0.000 N 
ATOM     21  C   UNL     1       7.305   7.713  17.296  0.00  0.00    +0.000 A 
ATOM     22  C   UNL     1       7.788   8.960  17.624  0.00  0.00    +0.000 A 
ATOM     23  N   UNL     1       8.588   8.851  18.709  0.00  0.00    +0.000 NA
ATOM     24  C   UNL     1       8.572   7.544  19.021  0.00  0.00    +0.000 A 
ENDBRANCH  19  20
ENDBRANCH   1  19
TORSDOF 5
ENDMDL
MODEL 7
REMARK VINA RESULT:      -6.9      3.153      6.929
REMARK  Name = 
REMARK  5 active torsions:
REMARK  status: ('A' for Active; 'I' for Inactive)
REMARK    1  A    between atoms: C_5  and  C_6
REMARK    2  A    between atoms: C_6  and  C_7
REMARK    3  A    between atoms: C_7  and  N_8
REMARK    4  A    between atoms: N_13  and  N_14
REMARK    5  A    between atoms: N_14  and  C_15
REMARK                            x       y       z     vdW  Elec       q    Type
REMARK                         _______ _______ _______ _____ _____    ______ ____
ROOT
ATOM      1  C   UNL     1       6.199   5.055  17.568  0.00  0.00    +0.000 C 
ATOM      2  N   UNL     1       5.154   5.216  18.328  0.00  0.00    +0.000 NA
ENDROOT
BRANCH   1   7
ATOM      3 CL   UNL     1       7.120   4.206  11.987  0.00  0.00    +0.000 Cl
ATOM      4  C   UNL     1       6.558   4.294  13.640  0.00  0.00    +0.000 A 
ATOM      5  C   UNL     1       5.293   3.930  14.020  0.00  0.00    +0.000 A 
ATOM      6  C   UNL     1       5.047   4.122  15.371  0.00  0.00    +0.000 A 
ATOM      7  C   UNL     1       6.131   4.641  16.109  0.00  0.00    +0.000 A 
ATOM      8  S   UNL     1       7.401   4.835  15.000  0.00  0.00    +0.000 S 
ENDBRANCH   1   7
BRANCH   2   9
ATOM      9  N   UNL     1       3.879   4.848  17.969  0.00  0.00    +0.000 N 
ATOM     10  H   UNL     1       3.674   4.827  16.969  0.00  0.00    +0.000 HD
BRANCH   9  11
ATOM     11  C   UNL     1       2.914   4.253  18.842  0.00  0.00    +0.000 A 
ATOM     12  C   UNL     1       2.668   2.854  18.909  0.00  0.00    +0.000 A 
ATOM     13 CL   UNL     1       3.536   1.669  17.940  0.00  0.00    +0.000 Cl
ATOM     14  C   UNL     1       1.665   2.364  19.762  0.00  0.00    +0.000 A 
ATOM     15  C   UNL     1       0.921   3.229  20.563  0.00  0.00    +0.000 A 
ATOM     16  C   UNL     1       1.176   4.595  20.532  0.00  0.00    +0.000 A 
ATOM     17  C   UNL     1       2.157   5.109  19.684  0.00  0.00    +0.000 A 
ATOM     18 CL   UNL     1       2.419   6.852  19.739  0.00  0.00    +0.000 Cl
ENDBRANCH   9  11
ENDBRANCH   2   9
BRANCH   1  19
ATOM     19  C   UNL     1       7.539   5.395  18.199  0.00  0.00    +0.000 C 
BRANCH  19  20
ATOM     20  N   UNL     1       7.799   6.835  18.156  0.00  0.00    +0.000 N 
ATOM     21  C   UNL     1       7.297   7.733  17.287  0.00  0.00    +0.000 A 
ATOM     22  C   UNL     1       7.779   8.977  17.628  0.00  0.00    +0.000 A 
ATOM     23  N   UNL     1       8.583   8.858  18.709  0.00  0.00    +0.000 NA
ATOM     24  C   UNL     1       8.571   7.547  19.006  0.00  0.00    +0.000 A 
ENDBRANCH  19  20
ENDBRANCH   1  19
TORSDOF 5
ENDMDL
MODEL 8
REMARK VINA RESULT:      -6.9      0.790      1.047
REMARK  Name = 
REMARK  5 active torsions:
REMARK  status: ('A' for Active; 'I' for Inactive)
REMARK    1  A    between atoms: C_5  and  C_6
REMARK    2  A    between atoms: C_6  and  C_7
REMARK    3  A    between atoms: C_7  and  N_8
REMARK    4  A    between atoms: N_13  and  N_14
REMARK    5  A    between atoms: N_14  and  C_15
REMARK                            x       y       z     vdW  Elec       q    Type
REMARK                         _______ _______ _______ _____ _____    ______ ____
ROOT
ATOM      1  C   UNL     1       2.595   6.517  19.728  0.00  0.00    +0.000 C 
ATOM      2  N   UNL     1       3.578   5.863  19.178  0.00  0.00    +0.000 NA
ENDROOT
BRANCH   1   7
ATOM      3 CL   UNL     1      -0.041  11.543  19.016  0.00  0.00    +0.000 Cl
ATOM      4  C   UNL     1       0.881  10.061  18.926  0.00  0.00    +0.000 A 
ATOM      5  C   UNL     1       1.441   9.598  17.765  0.00  0.00    +0.000 A 
ATOM      6  C   UNL     1       2.091   8.381  17.913  0.00  0.00    +0.000 A 
ATOM      7  C   UNL     1       2.072   7.848  19.218  0.00  0.00    +0.000 A 
ATOM      8  S   UNL     1       1.219   8.967  20.168  0.00  0.00    +0.000 S 
ENDBRANCH   1   7
BRANCH   2   9
ATOM      9  N   UNL     1       4.387   6.378  18.193  0.00  0.00    +0.000 N 
ATOM     10  H   UNL     1       4.633   7.365  18.273  0.00  0.00    +0.000 HD
BRANCH   9  11
ATOM     11  C   UNL     1       5.113   5.604  17.233  0.00  0.00    +0.000 A 
ATOM     12  C   UNL     1       4.625   4.399  16.658  0.00  0.00    +0.000 A 
ATOM     13 CL   UNL     1       3.051   3.711  17.039  0.00  0.00    +0.000 Cl
ATOM     14  C   UNL     1       5.430   3.679  15.759  0.00  0.00    +0.000 A 
ATOM     15  C   UNL     1       6.696   4.144  15.403  0.00  0.00    +0.000 A 
ATOM     16  C   UNL     1       7.170   5.339  15.931  0.00  0.00    +0.000 A 
ATOM     17  C   UNL     1       6.397   6.065  16.836  0.00  0.00    +0.000 A 
ATOM     18 CL   UNL     1       7.079   7.580  17.427  0.00  0.00    +0.000 Cl
ENDBRANCH   9  11
ENDBRANCH   2   9
BRANCH   1  19
ATOM     19  C   UNL     1       1.909   5.828  20.895  0.00  0.00    +0.000 C 
BRANCH  19  20
ATOM     20  N   UNL     1       1.729   4.397  20.639  0.00  0.00    +0.000 N 
ATOM     21  C   UNL     1       2.374   3.373  21.229  0.00  0.00    +0.000 A 
ATOM     22  C   UNL     1       1.875   2.197  20.713  0.00  0.00    +0.000 A 
ATOM     23  N   UNL     1       0.920   2.486  19.801  0.00  0.00    +0.000 NA
ATOM     24  C   UNL     1       0.853   3.829  19.783  0.00  0.00    +0.000 A 
ENDBRANCH  19  20
ENDBRANCH   1  19
TORSDOF 5
ENDMDL
MODEL 9
REMARK VINA RESULT:      -6.8      3.343      6.929
REMARK  Name = 
REMARK  5 active torsions:
REMARK  status: ('A' for Active; 'I' for Inactive)
REMARK    1  A    between atoms: C_5  and  C_6
REMARK    2  A    between atoms: C_6  and  C_7
REMARK    3  A    between atoms: C_7  and  N_8
REMARK    4  A    between atoms: N_13  and  N_14
REMARK    5  A    between atoms: N_14  and  C_15
REMARK                            x       y       z     vdW  Elec       q    Type
REMARK                         _______ _______ _______ _____ _____    ______ ____
ROOT
ATOM      1  C   UNL     1       6.618   4.735  18.046  0.00  0.00    +0.000 C 
ATOM      2  N   UNL     1       5.739   4.328  18.916  0.00  0.00    +0.000 NA
ENDROOT
BRANCH   1   7
ATOM      3 CL   UNL     1       4.801   3.612  12.740  0.00  0.00    +0.000 Cl
ATOM      4  C   UNL     1       5.630   4.069  14.209  0.00  0.00    +0.000 A 
ATOM      5  C   UNL     1       6.953   4.424  14.242  0.00  0.00    +0.000 A 
ATOM      6  C   UNL     1       7.416   4.706  15.519  0.00  0.00    +0.000 A 
ATOM      7  C   UNL     1       6.454   4.591  16.543  0.00  0.00    +0.000 A 
ATOM      8  S   UNL     1       5.010   4.133  15.779  0.00  0.00    +0.000 S 
ENDBRANCH   1   7
BRANCH   2   9
ATOM      9  N   UNL     1       4.651   3.551  18.601  0.00  0.00    +0.000 N 
ATOM     10  H   UNL     1       4.773   2.877  17.844  0.00  0.00    +0.000 HD
BRANCH   9  11
ATOM     11  C   UNL     1       3.470   3.421  19.399  0.00  0.00    +0.000 A 
ATOM     12  C   UNL     1       2.260   4.120  19.137  0.00  0.00    +0.000 A 
ATOM     13 CL   UNL     1       2.050   5.222  17.781  0.00  0.00    +0.000 Cl
ATOM     14  C   UNL     1       1.166   3.968  20.006  0.00  0.00    +0.000 A 
ATOM     15  C   UNL     1       1.242   3.121  21.110  0.00  0.00    +0.000 A 
ATOM     16  C   UNL     1       2.407   2.406  21.357  0.00  0.00    +0.000 A 
ATOM     17  C   UNL     1       3.512   2.549  20.520  0.00  0.00    +0.000 A 
ATOM     18 CL   UNL     1       4.933   1.578  20.905  0.00  0.00    +0.000 Cl
ENDBRANCH   9  11
ENDBRANCH   2   9
BRANCH   1  19
ATOM     19  C   UNL     1       7.824   5.467  18.611  0.00  0.00    +0.000 C 
BRANCH  19  20
ATOM     20  N   UNL     1       7.793   6.891  18.271  0.00  0.00    +0.000 N 
ATOM     21  C   UNL     1       8.586   7.865  18.753  0.00  0.00    +0.000 A 
ATOM     22  C   UNL     1       8.235   9.048  18.142  0.00  0.00    +0.000 A 
ATOM     23  N   UNL     1       7.220   8.814  17.280  0.00  0.00    +0.000 NA
ATOM     24  C   UNL     1       6.979   7.495  17.379  0.00  0.00    +0.000 A 
ENDBRANCH  19  20
ENDBRANCH   1  19
TORSDOF 5
ENDMDL
