MODEL 1
REMARK VINA RESULT:      -8.8      0.000      0.000
REMARK  Name = 
REMARK  9 active torsions:
REMARK  status: ('A' for Active; 'I' for Inactive)
REMARK    1  A    between atoms: C_2  and  C_24
REMARK    2  A    between atoms: N_3  and  C_4
REMARK    3  A    between atoms: C_4  and  C_5
REMARK    4  A    between atoms: C_8  and  C_9
REMARK    5  A    between atoms: N_12  and  C_13
REMARK    6  A    between atoms: C_13  and  O_14
REMARK    7  A    between atoms: O_14  and  P_15
REMARK    8  A    between atoms: P_15  and  O_17
REMARK    9  A    between atoms: P_15  and  O_18
REMARK                            x       y       z     vdW  Elec       q    Type
REMARK                         _______ _______ _______ _____ _____    ______ ____
ROOT
ATOM      1  C   UNL     1       7.267   5.689  17.813  0.00  0.00    +0.000 A 
ATOM      2  C   UNL     1       7.067   6.683  16.850  0.00  0.00    +0.000 A 
ATOM      3  C   UNL     1       7.520   7.993  17.060  0.00  0.00    +0.000 A 
ATOM      4  C   UNL     1       8.206   8.342  18.234  0.00  0.00    +0.000 A 
ATOM      5  C   UNL     1       8.437   7.322  19.175  0.00  0.00    +0.000 A 
ATOM      6  C   UNL     1       7.971   6.016  18.976  0.00  0.00    +0.000 A 
ENDROOT
BRANCH   4   7
ATOM      7  C   UNL     1       8.667   9.743  18.480  0.00  0.00    +0.000 A 
ATOM      8  C   UNL     1       9.651  10.124  19.488  0.00  0.00    +0.000 A 
ATOM      9  C   UNL     1       9.963  11.408  19.711  0.00  0.00    +0.000 A 
ATOM     10  N   UNL     1       9.379  12.432  18.977  0.00  0.00    +0.000 N 
ATOM     11  C   UNL     1       8.528  12.155  17.910  0.00  0.00    +0.000 A 
ATOM     12  O   UNL     1       8.059  12.988  17.139  0.00  0.00    +0.000 OA
ATOM     13  C   UNL     1       8.156  10.729  17.718  0.00  0.00    +0.000 A 
BRANCH  10  14
ATOM     14  C   UNL     1       9.700  13.835  19.243  0.00  0.00    +0.000 C 
BRANCH  14  15
ATOM     15  O   UNL     1      10.676  14.233  18.311  0.00  0.00    +0.000 OA
BRANCH  15  16
ATOM     16  P   UNL     1      10.572  15.570  17.471  0.00  0.00    +0.000 P 
ATOM     17  O   UNL     1      11.213  16.762  18.099  0.00  0.00    +0.000 OA
BRANCH  16  18
ATOM     18  O   UNL     1      11.209  15.295  16.039  0.00  0.00    +0.000 OA
ATOM     19  H   UNL     1      11.105  16.096  15.493  0.00  0.00    +0.000 HD
ENDBRANCH  16  18
BRANCH  16  20
ATOM     20  O   UNL     1       9.037  15.872  17.147  0.00  0.00    +0.000 OA
ATOM     21  H   UNL     1       8.537  15.037  17.097  0.00  0.00    +0.000 HD
ENDBRANCH  16  20
ENDBRANCH  15  16
ENDBRANCH  14  15
ENDBRANCH  10  14
ENDBRANCH   4   7
BRANCH   1  22
ATOM     22  C   UNL     1       6.780   4.283  17.590  0.00  0.00    +0.000 C 
BRANCH  22  25
ATOM     23  O   UNL     1       4.136   4.618  16.863  0.00  0.00    +0.000 OA
ATOM     24  C   UNL     1       4.363   4.212  17.997  0.00  0.00    +0.000 C 
ATOM     25  N   UNL     1       5.648   3.986  18.440  0.00  0.00    +0.000 N 
ATOM     26  H   UNL     1       5.824   3.859  19.430  0.00  0.00    +0.000 HD
BRANCH  24  27
ATOM     27  C   UNL     1       3.249   3.943  18.957  0.00  0.00    +0.000 A 
ATOM     28  C   UNL     1       2.829   2.616  19.187  0.00  0.00    +0.000 A 
ATOM     29 CL   UNL     1       3.580   1.223  18.481  0.00  0.00    +0.000 Cl
ATOM     30  C   UNL     1       1.775   2.341  20.072  0.00  0.00    +0.000 A 
ATOM     31  C   UNL     1       1.134   3.371  20.750  0.00  0.00    +0.000 A 
ATOM     32  C   UNL     1       1.535   4.684  20.536  0.00  0.00    +0.000 A 
ATOM     33  C   UNL     1       2.574   4.975  19.639  0.00  0.00    +0.000 A 
ATOM     34 CL   UNL     1       2.911   6.662  19.422  0.00  0.00    +0.000 Cl
ENDBRANCH  24  27
ENDBRANCH  22  25
ENDBRANCH   1  22
TORSDOF 9
ENDMDL
MODEL 2
REMARK VINA RESULT:      -8.7      0.769      2.375
REMARK  Name = 
REMARK  9 active torsions:
REMARK  status: ('A' for Active; 'I' for Inactive)
REMARK    1  A    between atoms: C_2  and  C_24
REMARK    2  A    between atoms: N_3  and  C_4
REMARK    3  A    between atoms: C_4  and  C_5
REMARK    4  A    between atoms: C_8  and  C_9
REMARK    5  A    between atoms: N_12  and  C_13
REMARK    6  A    between atoms: C_13  and  O_14
REMARK    7  A    between atoms: O_14  and  P_15
REMARK    8  A    between atoms: P_15  and  O_17
REMARK    9  A    between atoms: P_15  and  O_18
REMARK                            x       y       z     vdW  Elec       q    Type
REMARK                         _______ _______ _______ _____ _____    ______ ____
ROOT
ATOM      1  C   UNL     1       7.289   5.839  17.853  0.00  0.00    +0.000 A 
ATOM      2  C   UNL     1       8.064   6.158  18.974  0.00  0.00    +0.000 A 
ATOM      3  C   UNL     1       8.511   7.468  19.193  0.00  0.00    +0.000 A 
ATOM      4  C   UNL     1       8.179   8.504  18.307  0.00  0.00    +0.000 A 
ATOM      5  C   UNL     1       7.364   8.178  17.206  0.00  0.00    +0.000 A 
ATOM      6  C   UNL     1       6.929   6.866  16.975  0.00  0.00    +0.000 A 
ENDROOT
BRANCH   4   7
ATOM      7  C   UNL     1       8.676   9.899  18.516  0.00  0.00    +0.000 A 
ATOM      8  C   UNL     1       8.407  11.016  17.616  0.00  0.00    +0.000 A 
ATOM      9  C   UNL     1       8.948  12.225  17.821  0.00  0.00    +0.000 A 
ATOM     10  N   UNL     1       9.770  12.473  18.912  0.00  0.00    +0.000 N 
ATOM     11  C   UNL     1       9.977  11.505  19.891  0.00  0.00    +0.000 A 
ATOM     12  O   UNL     1      10.593  11.673  20.940  0.00  0.00    +0.000 OA
ATOM     13  C   UNL     1       9.412  10.159  19.613  0.00  0.00    +0.000 A 
BRANCH  10  14
ATOM     14  C   UNL     1      10.383  13.787  19.116  0.00  0.00    +0.000 C 
BRANCH  14  15
ATOM     15  O   UNL     1      10.485  14.410  17.859  0.00  0.00    +0.000 OA
BRANCH  15  16
ATOM     16  P   UNL     1      10.051  15.909  17.600  0.00  0.00    +0.000 P 
ATOM     17  O   UNL     1       8.598  16.187  17.790  0.00  0.00    +0.000 OA
BRANCH  16  18
ATOM     18  O   UNL     1      10.918  16.838  18.559  0.00  0.00    +0.000 OA
ATOM     19  H   UNL     1      11.187  17.634  18.063  0.00  0.00    +0.000 HD
ENDBRANCH  16  18
BRANCH  16  20
ATOM     20  O   UNL     1      10.514  16.348  16.136  0.00  0.00    +0.000 OA
ATOM     21  H   UNL     1      10.451  15.591  15.526  0.00  0.00    +0.000 HD
ENDBRANCH  16  20
ENDBRANCH  15  16
ENDBRANCH  14  15
ENDBRANCH  10  14
ENDBRANCH   4   7
BRANCH   1  22
ATOM     22  C   UNL     1       6.809   4.433  17.615  0.00  0.00    +0.000 C 
BRANCH  22  25
ATOM     23  O   UNL     1       4.176   4.505  16.786  0.00  0.00    +0.000 OA
ATOM     24  C   UNL     1       4.391   4.215  17.957  0.00  0.00    +0.000 C 
ATOM     25  N   UNL     1       5.673   4.125  18.455  0.00  0.00    +0.000 N 
ATOM     26  H   UNL     1       5.823   4.096  19.456  0.00  0.00    +0.000 HD
BRANCH  24  27
ATOM     27  C   UNL     1       3.266   3.945  18.904  0.00  0.00    +0.000 A 
ATOM     28  C   UNL     1       2.614   5.022  19.540  0.00  0.00    +0.000 A 
ATOM     29 CL   UNL     1       2.974   6.690  19.239  0.00  0.00    +0.000 Cl
ATOM     30  C   UNL     1       1.566   4.791  20.444  0.00  0.00    +0.000 A 
ATOM     31  C   UNL     1       1.141   3.498  20.720  0.00  0.00    +0.000 A 
ATOM     32  C   UNL     1       1.772   2.425  20.102  0.00  0.00    +0.000 A 
ATOM     33  C   UNL     1       2.834   2.640  19.211  0.00  0.00    +0.000 A 
ATOM     34 CL   UNL     1       3.568   1.201  18.578  0.00  0.00    +0.000 Cl
ENDBRANCH  24  27
ENDBRANCH  22  25
ENDBRANCH   1  22
TORSDOF 9
ENDMDL
MODEL 3
REMARK VINA RESULT:      -8.5      0.947      1.678
REMARK  Name = 
REMARK  9 active torsions:
REMARK  status: ('A' for Active; 'I' for Inactive)
REMARK    1  A    between atoms: C_2  and  C_24
REMARK    2  A    between atoms: N_3  and  C_4
REMARK    3  A    between atoms: C_4  and  C_5
REMARK    4  A    between atoms: C_8  and  C_9
REMARK    5  A    between atoms: N_12  and  C_13
REMARK    6  A    between atoms: C_13  and  O_14
REMARK    7  A    between atoms: O_14  and  P_15
REMARK    8  A    between atoms: P_15  and  O_17
REMARK    9  A    between atoms: P_15  and  O_18
REMARK                            x       y       z     vdW  Elec       q    Type
REMARK                         _______ _______ _______ _____ _____    ______ ____
ROOT
ATOM      1  C   UNL     1       7.329   5.801  17.928  0.00  0.00    +0.000 A 
ATOM      2  C   UNL     1       8.109   6.157  19.033  0.00  0.00    +0.000 A 
ATOM      3  C   UNL     1       8.545   7.476  19.213  0.00  0.00    +0.000 A 
ATOM      4  C   UNL     1       8.197   8.485  18.302  0.00  0.00    +0.000 A 
ATOM      5  C   UNL     1       7.377   8.121  17.217  0.00  0.00    +0.000 A 
ATOM      6  C   UNL     1       6.953   6.800  17.025  0.00  0.00    +0.000 A 
ENDROOT
BRANCH   4   7
ATOM      7  C   UNL     1       8.682   9.889  18.470  0.00  0.00    +0.000 A 
ATOM      8  C   UNL     1       8.402  10.977  17.539  0.00  0.00    +0.000 A 
ATOM      9  C   UNL     1       8.932  12.197  17.707  0.00  0.00    +0.000 A 
ATOM     10  N   UNL     1       9.756  12.483  18.787  0.00  0.00    +0.000 N 
ATOM     11  C   UNL     1       9.973  11.545  19.793  0.00  0.00    +0.000 A 
ATOM     12  O   UNL     1      10.591  11.750  20.835  0.00  0.00    +0.000 OA
ATOM     13  C   UNL     1       9.419  10.188  19.556  0.00  0.00    +0.000 A 
BRANCH  10  14
ATOM     14  C   UNL     1      10.357  13.808  18.951  0.00  0.00    +0.000 C 
BRANCH  14  15
ATOM     15  O   UNL     1       9.314  14.727  19.166  0.00  0.00    +0.000 OA
BRANCH  15  16
ATOM     16  P   UNL     1       8.875  15.800  18.090  0.00  0.00    +0.000 P 
ATOM     17  O   UNL     1       8.592  17.161  18.634  0.00  0.00    +0.000 OA
BRANCH  16  18
ATOM     18  O   UNL     1      10.018  15.877  16.985  0.00  0.00    +0.000 OA
ATOM     19  H   UNL     1       9.890  15.144  16.353  0.00  0.00    +0.000 HD
ENDBRANCH  16  18
BRANCH  16  20
ATOM     20  O   UNL     1       7.610  15.252  17.283  0.00  0.00    +0.000 OA
ATOM     21  H   UNL     1       6.793  15.645  17.638  0.00  0.00    +0.000 HD
ENDBRANCH  16  20
ENDBRANCH  15  16
ENDBRANCH  14  15
ENDBRANCH  10  14
ENDBRANCH   4   7
BRANCH   1  22
ATOM     22  C   UNL     1       6.860   4.384  17.732  0.00  0.00    +0.000 C 
BRANCH  22  25
ATOM     23  O   UNL     1       4.252   4.424  16.825  0.00  0.00    +0.000 OA
ATOM     24  C   UNL     1       4.433   4.176  18.011  0.00  0.00    +0.000 C 
ATOM     25  N   UNL     1       5.699   4.105  18.549  0.00  0.00    +0.000 N 
ATOM     26  H   UNL     1       5.820   4.112  19.554  0.00  0.00    +0.000 HD
BRANCH  24  27
ATOM     27  C   UNL     1       3.281   3.939  18.934  0.00  0.00    +0.000 A 
ATOM     28  C   UNL     1       2.818   2.624  19.150  0.00  0.00    +0.000 A 
ATOM     29 CL   UNL     1       3.553   1.211  18.469  0.00  0.00    +0.000 Cl
ATOM     30  C   UNL     1       1.728   2.380  20.000  0.00  0.00    +0.000 A 
ATOM     31  C   UNL     1       1.093   3.427  20.657  0.00  0.00    +0.000 A 
ATOM     32  C   UNL     1       1.538   4.728  20.455  0.00  0.00    +0.000 A 
ATOM     33  C   UNL     1       2.613   4.990  19.593  0.00  0.00    +0.000 A 
ATOM     34 CL   UNL     1       3.003   6.667  19.387  0.00  0.00    +0.000 Cl
ENDBRANCH  24  27
ENDBRANCH  22  25
ENDBRANCH   1  22
TORSDOF 9
ENDMDL
MODEL 4
REMARK VINA RESULT:      -8.4      0.865      1.546
REMARK  Name = 
REMARK  9 active torsions:
REMARK  status: ('A' for Active; 'I' for Inactive)
REMARK    1  A    between atoms: C_2  and  C_24
REMARK    2  A    between atoms: N_3  and  C_4
REMARK    3  A    between atoms: C_4  and  C_5
REMARK    4  A    between atoms: C_8  and  C_9
REMARK    5  A    between atoms: N_12  and  C_13
REMARK    6  A    between atoms: C_13  and  O_14
REMARK    7  A    between atoms: O_14  and  P_15
REMARK    8  A    between atoms: P_15  and  O_17
REMARK    9  A    between atoms: P_15  and  O_18
REMARK                            x       y       z     vdW  Elec       q    Type
REMARK                         _______ _______ _______ _____ _____    ______ ____
ROOT
ATOM      1  C   UNL     1       7.301   5.799  17.882  0.00  0.00    +0.000 A 
ATOM      2  C   UNL     1       6.987   6.795  16.951  0.00  0.00    +0.000 A 
ATOM      3  C   UNL     1       7.422   8.115  17.133  0.00  0.00    +0.000 A 
ATOM      4  C   UNL     1       8.202   8.475  18.243  0.00  0.00    +0.000 A 
ATOM      5  C   UNL     1       8.545   7.454  19.150  0.00  0.00    +0.000 A 
ATOM      6  C   UNL     1       8.098   6.137  18.980  0.00  0.00    +0.000 A 
ENDROOT
BRANCH   4   7
ATOM      7  C   UNL     1       8.646   9.886  18.461  0.00  0.00    +0.000 A 
ATOM      8  C   UNL     1       8.299  11.005  17.591  0.00  0.00    +0.000 A 
ATOM      9  C   UNL     1       8.794  12.233  17.799  0.00  0.00    +0.000 A 
ATOM     10  N   UNL     1       9.643  12.498  18.865  0.00  0.00    +0.000 N 
ATOM     11  C   UNL     1       9.925  11.523  19.818  0.00  0.00    +0.000 A 
ATOM     12  O   UNL     1      10.570  11.701  20.848  0.00  0.00    +0.000 OA
ATOM     13  C   UNL     1       9.409  10.159  19.536  0.00  0.00    +0.000 A 
BRANCH  10  14
ATOM     14  C   UNL     1      10.206  13.834  19.072  0.00  0.00    +0.000 C 
BRANCH  14  15
ATOM     15  O   UNL     1       9.361  14.756  18.428  0.00  0.00    +0.000 OA
BRANCH  15  16
ATOM     16  P   UNL     1       9.825  16.214  18.024  0.00  0.00    +0.000 P 
ATOM     17  O   UNL     1      10.498  16.318  16.696  0.00  0.00    +0.000 OA
BRANCH  16  18
ATOM     18  O   UNL     1       8.545  17.160  18.065  0.00  0.00    +0.000 OA
ATOM     19  H   UNL     1       8.832  18.079  17.909  0.00  0.00    +0.000 HD
ENDBRANCH  16  18
BRANCH  16  20
ATOM     20  O   UNL     1      10.765  16.806  19.171  0.00  0.00    +0.000 OA
ATOM     21  H   UNL     1      11.144  16.081  19.698  0.00  0.00    +0.000 HD
ENDBRANCH  16  20
ENDBRANCH  15  16
ENDBRANCH  14  15
ENDBRANCH  10  14
ENDBRANCH   4   7
BRANCH   1  22
ATOM     22  C   UNL     1       6.833   4.382  17.690  0.00  0.00    +0.000 C 
BRANCH  22  25
ATOM     23  O   UNL     1       4.212   4.494  16.826  0.00  0.00    +0.000 OA
ATOM     24  C   UNL     1       4.407   4.210  18.002  0.00  0.00    +0.000 C 
ATOM     25  N   UNL     1       5.680   4.101  18.517  0.00  0.00    +0.000 N 
ATOM     26  H   UNL     1       5.817   4.077  19.521  0.00  0.00    +0.000 HD
BRANCH  24  27
ATOM     27  C   UNL     1       3.266   3.967  18.936  0.00  0.00    +0.000 A 
ATOM     28  C   UNL     1       2.832   2.648  19.183  0.00  0.00    +0.000 A 
ATOM     29 CL   UNL     1       3.594   1.236  18.527  0.00  0.00    +0.000 Cl
ATOM     30  C   UNL     1       1.753   2.397  20.044  0.00  0.00    +0.000 A 
ATOM     31  C   UNL     1       1.099   3.444  20.682  0.00  0.00    +0.000 A 
ATOM     32  C   UNL     1       1.514   4.751  20.451  0.00  0.00    +0.000 A 
ATOM     33  C   UNL     1       2.578   5.017  19.577  0.00  0.00    +0.000 A 
ATOM     34 CL   UNL     1       2.930   6.697  19.334  0.00  0.00    +0.000 Cl
ENDBRANCH  24  27
ENDBRANCH  22  25
ENDBRANCH   1  22
TORSDOF 9
ENDMDL
MODEL 5
REMARK VINA RESULT:      -8.3      0.935      2.100
REMARK  Name = 
REMARK  9 active torsions:
REMARK  status: ('A' for Active; 'I' for Inactive)
REMARK    1  A    between atoms: C_2  and  C_24
REMARK    2  A    between atoms: N_3  and  C_4
REMARK    3  A    between atoms: C_4  and  C_5
REMARK    4  A    between atoms: C_8  and  C_9
REMARK    5  A    between atoms: N_12  and  C_13
REMARK    6  A    between atoms: C_13  and  O_14
REMARK    7  A    between atoms: O_14  and  P_15
REMARK    8  A    between atoms: P_15  and  O_17
REMARK    9  A    between atoms: P_15  and  O_18
REMARK                            x       y       z     vdW  Elec       q    Type
REMARK                         _______ _______ _______ _____ _____    ______ ____
ROOT
ATOM      1  C   UNL     1       7.279   6.073  17.814  0.00  0.00    +0.000 A 
ATOM      2  C   UNL     1       8.075   6.222  18.955  0.00  0.00    +0.000 A 
ATOM      3  C   UNL     1       8.631   7.465  19.288  0.00  0.00    +0.000 A 
ATOM      4  C   UNL     1       8.391   8.601  18.501  0.00  0.00    +0.000 A 
ATOM      5  C   UNL     1       7.554   8.445  17.379  0.00  0.00    +0.000 A 
ATOM      6  C   UNL     1       7.010   7.201  17.034  0.00  0.00    +0.000 A 
ENDROOT
BRANCH   4   7
ATOM      7  C   UNL     1       9.004   9.924  18.832  0.00  0.00    +0.000 A 
ATOM      8  C   UNL     1       9.158  10.448  20.185  0.00  0.00    +0.000 A 
ATOM      9  C   UNL     1       9.645  11.676  20.409  0.00  0.00    +0.000 A 
ATOM     10  N   UNL     1      10.045  12.496  19.362  0.00  0.00    +0.000 N 
ATOM     11  C   UNL     1      10.055  12.032  18.050  0.00  0.00    +0.000 A 
ATOM     12  O   UNL     1      10.496  12.646  17.082  0.00  0.00    +0.000 OA
ATOM     13  C   UNL     1       9.460  10.690  17.823  0.00  0.00    +0.000 A 
BRANCH  10  14
ATOM     14  C   UNL     1      10.548  13.849  19.609  0.00  0.00    +0.000 C 
BRANCH  14  15
ATOM     15  O   UNL     1       9.453  14.729  19.549  0.00  0.00    +0.000 OA
BRANCH  15  16
ATOM     16  P   UNL     1       9.379  15.947  18.542  0.00  0.00    +0.000 P 
ATOM     17  O   UNL     1      10.153  17.155  18.954  0.00  0.00    +0.000 OA
BRANCH  16  18
ATOM     18  O   UNL     1       9.879  15.434  17.121  0.00  0.00    +0.000 OA
ATOM     19  H   UNL     1      10.403  14.621  17.250  0.00  0.00    +0.000 HD
ENDBRANCH  16  18
BRANCH  16  20
ATOM     20  O   UNL     1       7.849  16.329  18.286  0.00  0.00    +0.000 OA
ATOM     21  H   UNL     1       7.577  17.039  18.894  0.00  0.00    +0.000 HD
ENDBRANCH  16  20
ENDBRANCH  15  16
ENDBRANCH  14  15
ENDBRANCH  10  14
ENDBRANCH   4   7
BRANCH   1  22
ATOM     22  C   UNL     1       6.683   4.740  17.453  0.00  0.00    +0.000 C 
BRANCH  22  25
ATOM     23  O   UNL     1       4.053   4.456  16.656  0.00  0.00    +0.000 OA
ATOM     24  C   UNL     1       4.301   4.314  17.848  0.00  0.00    +0.000 C 
ATOM     25  N   UNL     1       5.586   4.408  18.336  0.00  0.00    +0.000 N 
ATOM     26  H   UNL     1       5.740   4.499  19.332  0.00  0.00    +0.000 HD
BRANCH  24  27
ATOM     27  C   UNL     1       3.212   4.032  18.833  0.00  0.00    +0.000 A 
ATOM     28  C   UNL     1       2.559   5.103  19.479  0.00  0.00    +0.000 A 
ATOM     29 CL   UNL     1       2.878   6.774  19.152  0.00  0.00    +0.000 Cl
ATOM     30  C   UNL     1       1.545   4.862  20.419  0.00  0.00    +0.000 A 
ATOM     31  C   UNL     1       1.154   3.563  20.720  0.00  0.00    +0.000 A 
ATOM     32  C   UNL     1       1.785   2.496  20.092  0.00  0.00    +0.000 A 
ATOM     33  C   UNL     1       2.815   2.722  19.165  0.00  0.00    +0.000 A 
ATOM     34 CL   UNL     1       3.555   1.292  18.523  0.00  0.00    +0.000 Cl
ENDBRANCH  24  27
ENDBRANCH  22  25
ENDBRANCH   1  22
TORSDOF 9
ENDMDL
MODEL 6
REMARK VINA RESULT:      -8.2      1.586      2.156
REMARK  Name = 
REMARK  9 active torsions:
REMARK  status: ('A' for Active; 'I' for Inactive)
REMARK    1  A    between atoms: C_2  and  C_24
REMARK    2  A    between atoms: N_3  and  C_4
REMARK    3  A    between atoms: C_4  and  C_5
REMARK    4  A    between atoms: C_8  and  C_9
REMARK    5  A    between atoms: N_12  and  C_13
REMARK    6  A    between atoms: C_13  and  O_14
REMARK    7  A    between atoms: O_14  and  P_15
REMARK    8  A    between atoms: P_15  and  O_17
REMARK    9  A    between atoms: P_15  and  O_18
REMARK                            x       y       z     vdW  Elec       q    Type
REMARK                         _______ _______ _______ _____ _____    ______ ____
ROOT
ATOM      1  C   UNL     1       7.301   5.809  17.883  0.00  0.00    +0.000 A 
ATOM      2  C   UNL     1       7.000   6.807  16.949  0.00  0.00    +0.000 A 
ATOM      3  C   UNL     1       7.441   8.124  17.134  0.00  0.00    +0.000 A 
ATOM      4  C   UNL     1       8.215   8.480  18.250  0.00  0.00    +0.000 A 
ATOM      5  C   UNL     1       8.546   7.457  19.159  0.00  0.00    +0.000 A 
ATOM      6  C   UNL     1       8.092   6.142  18.986  0.00  0.00    +0.000 A 
ENDROOT
BRANCH   4   7
ATOM      7  C   UNL     1       8.665   9.888  18.471  0.00  0.00    +0.000 A 
ATOM      8  C   UNL     1       8.296  11.016  17.622  0.00  0.00    +0.000 A 
ATOM      9  C   UNL     1       8.798  12.242  17.830  0.00  0.00    +0.000 A 
ATOM     10  N   UNL     1       9.674  12.496  18.876  0.00  0.00    +0.000 N 
ATOM     11  C   UNL     1       9.979  11.511  19.812  0.00  0.00    +0.000 A 
ATOM     12  O   UNL     1      10.650  11.678  20.827  0.00  0.00    +0.000 OA
ATOM     13  C   UNL     1       9.455  10.150  19.529  0.00  0.00    +0.000 A 
BRANCH  10  14
ATOM     14  C   UNL     1      10.242  13.829  19.083  0.00  0.00    +0.000 C 
BRANCH  14  15
ATOM     15  O   UNL     1       9.213  14.663  19.555  0.00  0.00    +0.000 OA
BRANCH  15  16
ATOM     16  P   UNL     1       9.213  15.297  21.004  0.00  0.00    +0.000 P 
ATOM     17  O   UNL     1       9.935  16.597  21.125  0.00  0.00    +0.000 OA
BRANCH  16  18
ATOM     18  O   UNL     1       7.697  15.466  21.461  0.00  0.00    +0.000 OA
ATOM     19  H   UNL     1       7.121  15.075  20.778  0.00  0.00    +0.000 HD
ENDBRANCH  16  18
BRANCH  16  20
ATOM     20  O   UNL     1       9.801  14.237  22.045  0.00  0.00    +0.000 OA
ATOM     21  H   UNL     1      10.697  14.502  22.319  0.00  0.00    +0.000 HD
ENDBRANCH  16  20
ENDBRANCH  15  16
ENDBRANCH  14  15
ENDBRANCH  10  14
ENDBRANCH   4   7
BRANCH   1  22
ATOM     22  C   UNL     1       6.827   4.395  17.687  0.00  0.00    +0.000 C 
BRANCH  22  25
ATOM     23  O   UNL     1       4.208   4.445  16.811  0.00  0.00    +0.000 OA
ATOM     24  C   UNL     1       4.403   4.192  17.994  0.00  0.00    +0.000 C 
ATOM     25  N   UNL     1       5.675   4.116  18.517  0.00  0.00    +0.000 N 
ATOM     26  H   UNL     1       5.808   4.119  19.521  0.00  0.00    +0.000 HD
BRANCH  24  27
ATOM     27  C   UNL     1       3.261   3.954  18.929  0.00  0.00    +0.000 A 
ATOM     28  C   UNL     1       2.844   2.635  19.203  0.00  0.00    +0.000 A 
ATOM     29 CL   UNL     1       3.627   1.220  18.580  0.00  0.00    +0.000 Cl
ATOM     30  C   UNL     1       1.765   2.389  20.065  0.00  0.00    +0.000 A 
ATOM     31  C   UNL     1       1.095   3.440  20.678  0.00  0.00    +0.000 A 
ATOM     32  C   UNL     1       1.494   4.747  20.421  0.00  0.00    +0.000 A 
ATOM     33  C   UNL     1       2.558   5.008  19.545  0.00  0.00    +0.000 A 
ATOM     34 CL   UNL     1       2.888   6.687  19.267  0.00  0.00    +0.000 Cl
ENDBRANCH  24  27
ENDBRANCH  22  25
ENDBRANCH   1  22
TORSDOF 9
ENDMDL
MODEL 7
REMARK VINA RESULT:      -8.2      1.591      2.724
REMARK  Name = 
REMARK  9 active torsions:
REMARK  status: ('A' for Active; 'I' for Inactive)
REMARK    1  A    between atoms: C_2  and  C_24
REMARK    2  A    between atoms: N_3  and  C_4
REMARK    3  A    between atoms: C_4  and  C_5
REMARK    4  A    between atoms: C_8  and  C_9
REMARK    5  A    between atoms: N_12  and  C_13
REMARK    6  A    between atoms: C_13  and  O_14
REMARK    7  A    between atoms: O_14  and  P_15
REMARK    8  A    between atoms: P_15  and  O_17
REMARK    9  A    between atoms: P_15  and  O_18
REMARK                            x       y       z     vdW  Elec       q    Type
REMARK                         _______ _______ _______ _____ _____    ______ ____
ROOT
ATOM      1  C   UNL     1       7.326   5.799  17.856  0.00  0.00    +0.000 A 
ATOM      2  C   UNL     1       7.035   6.793  16.916  0.00  0.00    +0.000 A 
ATOM      3  C   UNL     1       7.464   8.114  17.107  0.00  0.00    +0.000 A 
ATOM      4  C   UNL     1       8.215   8.476  18.236  0.00  0.00    +0.000 A 
ATOM      5  C   UNL     1       8.535   7.457  19.153  0.00  0.00    +0.000 A 
ATOM      6  C   UNL     1       8.094   6.140  18.974  0.00  0.00    +0.000 A 
ENDROOT
BRANCH   4   7
ATOM      7  C   UNL     1       8.651   9.888  18.462  0.00  0.00    +0.000 A 
ATOM      8  C   UNL     1       8.284  11.014  17.609  0.00  0.00    +0.000 A 
ATOM      9  C   UNL     1       8.773  12.243  17.824  0.00  0.00    +0.000 A 
ATOM     10  N   UNL     1       9.634  12.503  18.881  0.00  0.00    +0.000 N 
ATOM     11  C   UNL     1       9.936  11.521  19.820  0.00  0.00    +0.000 A 
ATOM     12  O   UNL     1      10.594  11.693  20.843  0.00  0.00    +0.000 OA
ATOM     13  C   UNL     1       9.426  10.156  19.530  0.00  0.00    +0.000 A 
BRANCH  10  14
ATOM     14  C   UNL     1      10.190  13.841  19.094  0.00  0.00    +0.000 C 
BRANCH  14  15
ATOM     15  O   UNL     1       9.138  14.678  19.510  0.00  0.00    +0.000 OA
BRANCH  15  16
ATOM     16  P   UNL     1       8.999  15.218  20.990  0.00  0.00    +0.000 P 
ATOM     17  O   UNL     1       7.620  15.159  21.557  0.00  0.00    +0.000 OA
BRANCH  16  18
ATOM     18  O   UNL     1      10.005  14.392  21.906  0.00  0.00    +0.000 OA
ATOM     19  H   UNL     1       9.542  13.603  22.244  0.00  0.00    +0.000 HD
ENDBRANCH  16  18
BRANCH  16  20
ATOM     20  O   UNL     1       9.565  16.710  21.064  0.00  0.00    +0.000 OA
ATOM     21  H   UNL     1      10.062  16.837  21.892  0.00  0.00    +0.000 HD
ENDBRANCH  16  20
ENDBRANCH  15  16
ENDBRANCH  14  15
ENDBRANCH  10  14
ENDBRANCH   4   7
BRANCH   1  22
ATOM     22  C   UNL     1       6.865   4.381  17.655  0.00  0.00    +0.000 C 
BRANCH  22  25
ATOM     23  O   UNL     1       4.248   4.464  16.776  0.00  0.00    +0.000 OA
ATOM     24  C   UNL     1       4.439   4.185  17.953  0.00  0.00    +0.000 C 
ATOM     25  N   UNL     1       5.710   4.091  18.476  0.00  0.00    +0.000 N 
ATOM     26  H   UNL     1       5.841   4.071  19.481  0.00  0.00    +0.000 HD
BRANCH  24  27
ATOM     27  C   UNL     1       3.295   3.933  18.882  0.00  0.00    +0.000 A 
ATOM     28  C   UNL     1       2.639   5.022  19.494  0.00  0.00    +0.000 A 
ATOM     29 CL   UNL     1       3.018   6.684  19.184  0.00  0.00    +0.000 Cl
ATOM     30  C   UNL     1       1.572   4.809  20.381  0.00  0.00    +0.000 A 
ATOM     31  C   UNL     1       1.132   3.522  20.662  0.00  0.00    +0.000 A 
ATOM     32  C   UNL     1       1.766   2.438  20.066  0.00  0.00    +0.000 A 
ATOM     33  C   UNL     1       2.846   2.635  19.194  0.00  0.00    +0.000 A 
ATOM     34 CL   UNL     1       3.580   1.185  18.590  0.00  0.00    +0.000 Cl
ENDBRANCH  24  27
ENDBRANCH  22  25
ENDBRANCH   1  22
TORSDOF 9
ENDMDL
MODEL 8
REMARK VINA RESULT:      -8.1      1.226      2.356
REMARK  Name = 
REMARK  9 active torsions:
REMARK  status: ('A' for Active; 'I' for Inactive)
REMARK    1  A    between atoms: C_2  and  C_24
REMARK    2  A    between atoms: N_3  and  C_4
REMARK    3  A    between atoms: C_4  and  C_5
REMARK    4  A    between atoms: C_8  and  C_9
REMARK    5  A    between atoms: N_12  and  C_13
REMARK    6  A    between atoms: C_13  and  O_14
REMARK    7  A    between atoms: O_14  and  P_15
REMARK    8  A    between atoms: P_15  and  O_17
REMARK    9  A    between atoms: P_15  and  O_18
REMARK                            x       y       z     vdW  Elec       q    Type
REMARK                         _______ _______ _______ _____ _____    ______ ____
ROOT
ATOM      1  C   UNL     1       7.317   5.763  17.855  0.00  0.00    +0.000 A 
ATOM      2  C   UNL     1       8.070   6.075  18.992  0.00  0.00    +0.000 A 
ATOM      3  C   UNL     1       8.518   7.383  19.223  0.00  0.00    +0.000 A 
ATOM      4  C   UNL     1       8.209   8.423  18.333  0.00  0.00    +0.000 A 
ATOM      5  C   UNL     1       7.415   8.102  17.215  0.00  0.00    +0.000 A 
ATOM      6  C   UNL     1       6.980   6.793  16.972  0.00  0.00    +0.000 A 
ENDROOT
BRANCH   4   7
ATOM      7  C   UNL     1       8.707   9.815  18.556  0.00  0.00    +0.000 A 
ATOM      8  C   UNL     1       9.615  10.205  19.630  0.00  0.00    +0.000 A 
ATOM      9  C   UNL     1       9.962  11.486  19.822  0.00  0.00    +0.000 A 
ATOM     10  N   UNL     1       9.490  12.494  18.993  0.00  0.00    +0.000 N 
ATOM     11  C   UNL     1       8.725  12.199  17.867  0.00  0.00    +0.000 A 
ATOM     12  O   UNL     1       8.362  13.012  17.021  0.00  0.00    +0.000 OA
ATOM     13  C   UNL     1       8.310  10.782  17.708  0.00  0.00    +0.000 A 
BRANCH  10  14
ATOM     14  C   UNL     1       9.848  13.895  19.223  0.00  0.00    +0.000 C 
BRANCH  14  15
ATOM     15  O   UNL     1       8.882  14.446  20.085  0.00  0.00    +0.000 OA
BRANCH  15  16
ATOM     16  P   UNL     1       7.830  15.532  19.621  0.00  0.00    +0.000 P 
ATOM     17  O   UNL     1       7.870  16.815  20.382  0.00  0.00    +0.000 OA
BRANCH  16  18
ATOM     18  O   UNL     1       8.066  15.806  18.071  0.00  0.00    +0.000 OA
ATOM     19  H   UNL     1       7.500  15.200  17.557  0.00  0.00    +0.000 HD
ENDBRANCH  16  18
BRANCH  16  20
ATOM     20  O   UNL     1       6.363  14.903  19.670  0.00  0.00    +0.000 OA
ATOM     21  H   UNL     1       5.896  15.211  20.467  0.00  0.00    +0.000 HD
ENDBRANCH  16  20
ENDBRANCH  15  16
ENDBRANCH  14  15
ENDBRANCH  10  14
ENDBRANCH   4   7
BRANCH   1  22
ATOM     22  C   UNL     1       6.836   4.360  17.604  0.00  0.00    +0.000 C 
BRANCH  22  25
ATOM     23  O   UNL     1       4.205   4.520  16.779  0.00  0.00    +0.000 OA
ATOM     24  C   UNL     1       4.414   4.184  17.939  0.00  0.00    +0.000 C 
ATOM     25  N   UNL     1       5.693   4.048  18.433  0.00  0.00    +0.000 N 
ATOM     26  H   UNL     1       5.842   3.980  19.432  0.00  0.00    +0.000 HD
BRANCH  24  27
ATOM     27  C   UNL     1       3.283   3.907  18.877  0.00  0.00    +0.000 A 
ATOM     28  C   UNL     1       2.635   4.978  19.527  0.00  0.00    +0.000 A 
ATOM     29 CL   UNL     1       3.008   6.648  19.255  0.00  0.00    +0.000 Cl
ATOM     30  C   UNL     1       1.581   4.740  20.423  0.00  0.00    +0.000 A 
ATOM     31  C   UNL     1       1.146   3.445  20.677  0.00  0.00    +0.000 A 
ATOM     32  C   UNL     1       1.773   2.378  20.044  0.00  0.00    +0.000 A 
ATOM     33  C   UNL     1       2.841   2.600  19.161  0.00  0.00    +0.000 A 
ATOM     34 CL   UNL     1       3.567   1.167  18.509  0.00  0.00    +0.000 Cl
ENDBRANCH  24  27
ENDBRANCH  22  25
ENDBRANCH   1  22
TORSDOF 9
ENDMDL
MODEL 9
REMARK VINA RESULT:      -8.0      1.334      1.780
REMARK  Name = 
REMARK  9 active torsions:
REMARK  status: ('A' for Active; 'I' for Inactive)
REMARK    1  A    between atoms: C_2  and  C_24
REMARK    2  A    between atoms: N_3  and  C_4
REMARK    3  A    between atoms: C_4  and  C_5
REMARK    4  A    between atoms: C_8  and  C_9
REMARK    5  A    between atoms: N_12  and  C_13
REMARK    6  A    between atoms: C_13  and  O_14
REMARK    7  A    between atoms: O_14  and  P_15
REMARK    8  A    between atoms: P_15  and  O_17
REMARK    9  A    between atoms: P_15  and  O_18
REMARK                            x       y       z     vdW  Elec       q    Type
REMARK                         _______ _______ _______ _____ _____    ______ ____
ROOT
ATOM      1  C   UNL     1       7.062   6.021  17.912  0.00  0.00    +0.000 A 
ATOM      2  C   UNL     1       6.655   7.084  17.100  0.00  0.00    +0.000 A 
ATOM      3  C   UNL     1       7.187   8.369  17.274  0.00  0.00    +0.000 A 
ATOM      4  C   UNL     1       8.157   8.625  18.255  0.00  0.00    +0.000 A 
ATOM      5  C   UNL     1       8.588   7.536  19.037  0.00  0.00    +0.000 A 
ATOM      6  C   UNL     1       8.046   6.254  18.876  0.00  0.00    +0.000 A 
ENDROOT
BRANCH   4   7
ATOM      7  C   UNL     1       8.709   9.998  18.468  0.00  0.00    +0.000 A 
ATOM      8  C   UNL     1       8.538  11.111  17.540  0.00  0.00    +0.000 A 
ATOM      9  C   UNL     1       9.124  12.297  17.753  0.00  0.00    +0.000 A 
ATOM     10  N   UNL     1       9.903  12.525  18.880  0.00  0.00    +0.000 N 
ATOM     11  C   UNL     1      10.015  11.565  19.882  0.00  0.00    +0.000 A 
ATOM     12  O   UNL     1      10.586  11.723  20.958  0.00  0.00    +0.000 OA
ATOM     13  C   UNL     1       9.402  10.243  19.596  0.00  0.00    +0.000 A 
BRANCH  10  14
ATOM     14  C   UNL     1      10.566  13.812  19.094  0.00  0.00    +0.000 C 
BRANCH  14  15
ATOM     15  O   UNL     1      10.148  14.683  18.071  0.00  0.00    +0.000 OA
BRANCH  15  16
ATOM     16  P   UNL     1       9.087  15.834  18.297  0.00  0.00    +0.000 P 
ATOM     17  O   UNL     1       9.611  17.220  18.122  0.00  0.00    +0.000 OA
BRANCH  16  18
ATOM     18  O   UNL     1       7.871  15.577  17.303  0.00  0.00    +0.000 OA
ATOM     19  H   UNL     1       7.571  16.435  16.950  0.00  0.00    +0.000 HD
ENDBRANCH  16  18
BRANCH  16  20
ATOM     20  O   UNL     1       8.429  15.670  19.744  0.00  0.00    +0.000 OA
ATOM     21  H   UNL     1       8.447  14.734  20.013  0.00  0.00    +0.000 HD
ENDBRANCH  16  20
ENDBRANCH  15  16
ENDBRANCH  14  15
ENDBRANCH  10  14
ENDBRANCH   4   7
BRANCH   1  22
ATOM     22  C   UNL     1       6.491   4.641  17.727  0.00  0.00    +0.000 C 
BRANCH  22  25
ATOM     23  O   UNL     1       4.273   3.080  17.204  0.00  0.00    +0.000 OA
ATOM     24  C   UNL     1       4.336   3.622  18.301  0.00  0.00    +0.000 C 
ATOM     25  N   UNL     1       5.416   4.396  18.664  0.00  0.00    +0.000 N 
ATOM     26  H   UNL     1       5.353   4.999  19.475  0.00  0.00    +0.000 HD
BRANCH  24  27
ATOM     27  C   UNL     1       3.234   3.469  19.300  0.00  0.00    +0.000 A 
ATOM     28  C   UNL     1       3.415   2.624  20.416  0.00  0.00    +0.000 A 
ATOM     29 CL   UNL     1       4.889   1.784  20.770  0.00  0.00    +0.000 Cl
ATOM     30  C   UNL     1       2.389   2.453  21.358  0.00  0.00    +0.000 A 
ATOM     31  C   UNL     1       1.181   3.124  21.219  0.00  0.00    +0.000 A 
ATOM     32  C   UNL     1       0.987   3.962  20.127  0.00  0.00    +0.000 A 
ATOM     33  C   UNL     1       1.996   4.127  19.166  0.00  0.00    +0.000 A 
ATOM     34 CL   UNL     1       1.578   5.143  17.825  0.00  0.00    +0.000 Cl
ENDBRANCH  24  27
ENDBRANCH  22  25
ENDBRANCH   1  22
TORSDOF 9
ENDMDL
