MODEL 1
REMARK VINA RESULT:      -7.7      0.000      0.000
REMARK  Name = 
REMARK  1 active torsions:
REMARK  status: ('A' for Active; 'I' for Inactive)
REMARK    1  A    between atoms: C_6  and  C_7
REMARK                            x       y       z     vdW  Elec       q    Type
REMARK                         _______ _______ _______ _____ _____    ______ ____
ROOT
ATOM      1  C   UNL     1       7.482   4.933  15.752  0.00  0.00    +0.000 A 
ATOM      2  C   UNL     1       7.297   4.531  17.060  0.00  0.00    +0.000 A 
ATOM      3  C   UNL     1       6.036   4.660  17.634  0.00  0.00    +0.000 A 
ATOM      4  N   UNL     1       5.801   4.271  18.894  0.00  0.00    +0.000 NA
ATOM      5  N   UNL     1       4.539   4.378  19.414  0.00  0.00    +0.000 NA
ATOM      6  C   UNL     1       3.553   4.893  18.657  0.00  0.00    +0.000 A 
ATOM      7  N   UNL     1       3.736   5.317  17.392  0.00  0.00    +0.000 NA
ATOM      8  C   UNL     1       4.981   5.192  16.890  0.00  0.00    +0.000 A 
ATOM      9  C   UNL     1       5.284   5.575  15.595  0.00  0.00    +0.000 A 
ATOM     10  N   UNL     1       6.499   5.460  15.001  0.00  0.00    +0.000 NA
ENDROOT
BRANCH   6  11
ATOM     11  C   UNL     1       2.135   4.932  19.187  0.00  0.00    +0.000 C 
ATOM     12  C   UNL     1       1.319   3.741  18.657  0.00  0.00    +0.000 C 
ATOM     13  C   UNL     1       1.506   2.459  19.464  0.00  0.00    +0.000 C 
ATOM     14  C   UNL     1       1.245   2.695  20.947  0.00  0.00    +0.000 C 
ATOM     15  C   UNL     1       2.157   3.784  21.499  0.00  0.00    +0.000 C 
ATOM     16  C   UNL     1       2.024   5.089  20.714  0.00  0.00    +0.000 C 
ENDBRANCH   6  11
TORSDOF 1
ENDMDL
MODEL 2
REMARK VINA RESULT:      -7.6      1.760      2.120
REMARK  Name = 
REMARK  1 active torsions:
REMARK  status: ('A' for Active; 'I' for Inactive)
REMARK    1  A    between atoms: C_6  and  C_7
REMARK                            x       y       z     vdW  Elec       q    Type
REMARK                         _______ _______ _______ _____ _____    ______ ____
ROOT
ATOM      1  C   UNL     1       8.076   7.163  18.277  0.00  0.00    +0.000 A 
ATOM      2  C   UNL     1       7.690   6.015  18.942  0.00  0.00    +0.000 A 
ATOM      3  C   UNL     1       6.480   5.417  18.608  0.00  0.00    +0.000 A 
ATOM      4  N   UNL     1       6.067   4.295  19.213  0.00  0.00    +0.000 NA
ATOM      5  N   UNL     1       4.889   3.713  18.833  0.00  0.00    +0.000 NA
ATOM      6  C   UNL     1       4.147   4.288  17.869  0.00  0.00    +0.000 A 
ATOM      7  N   UNL     1       4.503   5.424  17.241  0.00  0.00    +0.000 NA
ATOM      8  C   UNL     1       5.673   5.978  17.617  0.00  0.00    +0.000 A 
ATOM      9  C   UNL     1       6.151   7.136  17.027  0.00  0.00    +0.000 A 
ATOM     10  N   UNL     1       7.328   7.745  17.324  0.00  0.00    +0.000 NA
ENDROOT
BRANCH   6  11
ATOM     11  C   UNL     1       2.888   3.605  17.376  0.00  0.00    +0.000 C 
ATOM     12  C   UNL     1       2.893   2.112  17.746  0.00  0.00    +0.000 C 
ATOM     13  C   UNL     1       2.402   1.828  19.163  0.00  0.00    +0.000 C 
ATOM     14  C   UNL     1       1.037   2.458  19.413  0.00  0.00    +0.000 C 
ATOM     15  C   UNL     1       1.075   3.963  19.177  0.00  0.00    +0.000 C 
ATOM     16  C   UNL     1       1.578   4.307  17.775  0.00  0.00    +0.000 C 
ENDBRANCH   6  11
TORSDOF 1
ENDMDL
MODEL 3
REMARK VINA RESULT:      -7.6      1.668      2.747
REMARK  Name = 
REMARK  1 active torsions:
REMARK  status: ('A' for Active; 'I' for Inactive)
REMARK    1  A    between atoms: C_6  and  C_7
REMARK                            x       y       z     vdW  Elec       q    Type
REMARK                         _______ _______ _______ _____ _____    ______ ____
ROOT
ATOM      1  C   UNL     1       7.493   7.204  17.702  0.00  0.00    +0.000 A 
ATOM      2  C   UNL     1       6.360   6.798  17.023  0.00  0.00    +0.000 A 
ATOM      3  C   UNL     1       5.657   5.691  17.486  0.00  0.00    +0.000 A 
ATOM      4  N   UNL     1       4.545   5.265  16.873  0.00  0.00    +0.000 NA
ATOM      5  N   UNL     1       3.858   4.194  17.378  0.00  0.00    +0.000 NA
ATOM      6  C   UNL     1       4.322   3.568  18.475  0.00  0.00    +0.000 A 
ATOM      7  N   UNL     1       5.444   3.939  19.119  0.00  0.00    +0.000 NA
ATOM      8  C   UNL     1       6.101   5.004  18.618  0.00  0.00    +0.000 A 
ATOM      9  C   UNL     1       7.255   5.490  19.209  0.00  0.00    +0.000 A 
ATOM     10  N   UNL     1       7.963   6.569  18.789  0.00  0.00    +0.000 NA
ENDROOT
BRANCH   6  11
ATOM     11  C   UNL     1       3.523   2.441  19.096  0.00  0.00    +0.000 C 
ATOM     12  C   UNL     1       3.469   2.587  20.627  0.00  0.00    +0.000 C 
ATOM     13  C   UNL     1       2.374   3.533  21.115  0.00  0.00    +0.000 C 
ATOM     14  C   UNL     1       1.015   3.148  20.545  0.00  0.00    +0.000 C 
ATOM     15  C   UNL     1       1.040   3.140  19.022  0.00  0.00    +0.000 C 
ATOM     16  C   UNL     1       2.133   2.221  18.475  0.00  0.00    +0.000 C 
ENDBRANCH   6  11
TORSDOF 1
ENDMDL
MODEL 4
REMARK VINA RESULT:      -7.5      1.208      1.931
REMARK  Name = 
REMARK  1 active torsions:
REMARK  status: ('A' for Active; 'I' for Inactive)
REMARK    1  A    between atoms: C_6  and  C_7
REMARK                            x       y       z     vdW  Elec       q    Type
REMARK                         _______ _______ _______ _____ _____    ______ ____
ROOT
ATOM      1  C   UNL     1       7.129   5.267  15.399  0.00  0.00    +0.000 A 
ATOM      2  C   UNL     1       7.219   5.179  16.775  0.00  0.00    +0.000 A 
ATOM      3  C   UNL     1       6.221   4.509  17.474  0.00  0.00    +0.000 A 
ATOM      4  N   UNL     1       6.268   4.382  18.807  0.00  0.00    +0.000 NA
ATOM      5  N   UNL     1       5.288   3.683  19.458  0.00  0.00    +0.000 NA
ATOM      6  C   UNL     1       4.276   3.148  18.753  0.00  0.00    +0.000 A 
ATOM      7  N   UNL     1       4.167   3.260  17.415  0.00  0.00    +0.000 NA
ATOM      8  C   UNL     1       5.147   3.939  16.786  0.00  0.00    +0.000 A 
ATOM      9  C   UNL     1       5.152   4.101  15.412  0.00  0.00    +0.000 A 
ATOM     10  N   UNL     1       6.110   4.744  14.696  0.00  0.00    +0.000 NA
ENDROOT
BRANCH   6  11
ATOM     11  C   UNL     1       3.236   2.296  19.449  0.00  0.00    +0.000 C 
ATOM     12  C   UNL     1       3.041   2.751  20.906  0.00  0.00    +0.000 C 
ATOM     13  C   UNL     1       2.075   3.923  21.060  0.00  0.00    +0.000 C 
ATOM     14  C   UNL     1       0.740   3.633  20.385  0.00  0.00    +0.000 C 
ATOM     15  C   UNL     1       0.929   3.318  18.906  0.00  0.00    +0.000 C 
ATOM     16  C   UNL     1       1.904   2.160  18.691  0.00  0.00    +0.000 C 
ENDBRANCH   6  11
TORSDOF 1
ENDMDL
MODEL 5
REMARK VINA RESULT:      -7.5      1.697      5.747
REMARK  Name = 
REMARK  1 active torsions:
REMARK  status: ('A' for Active; 'I' for Inactive)
REMARK    1  A    between atoms: C_6  and  C_7
REMARK                            x       y       z     vdW  Elec       q    Type
REMARK                         _______ _______ _______ _____ _____    ______ ____
ROOT
ATOM      1  C   UNL     1       1.389   2.841  21.434  0.00  0.00    +0.000 A 
ATOM      2  C   UNL     1       1.192   3.635  20.320  0.00  0.00    +0.000 A 
ATOM      3  C   UNL     1       2.279   3.940  19.509  0.00  0.00    +0.000 A 
ATOM      4  N   UNL     1       2.139   4.693  18.410  0.00  0.00    +0.000 NA
ATOM      5  N   UNL     1       3.224   4.943  17.615  0.00  0.00    +0.000 NA
ATOM      6  C   UNL     1       4.426   4.445  17.958  0.00  0.00    +0.000 A 
ATOM      7  N   UNL     1       4.629   3.699  19.061  0.00  0.00    +0.000 NA
ATOM      8  C   UNL     1       3.548   3.450  19.827  0.00  0.00    +0.000 A 
ATOM      9  C   UNL     1       3.631   2.679  20.973  0.00  0.00    +0.000 A 
ATOM     10  N   UNL     1       2.592   2.356  21.785  0.00  0.00    +0.000 NA
ENDROOT
BRANCH   6  11
ATOM     11  C   UNL     1       5.615   4.636  17.040  0.00  0.00    +0.000 C 
ATOM     12  C   UNL     1       5.479   5.939  16.232  0.00  0.00    +0.000 C 
ATOM     13  C   UNL     1       5.954   7.180  16.983  0.00  0.00    +0.000 C 
ATOM     14  C   UNL     1       7.372   6.999  17.511  0.00  0.00    +0.000 C 
ATOM     15  C   UNL     1       7.467   5.783  18.424  0.00  0.00    +0.000 C 
ATOM     16  C   UNL     1       6.985   4.510  17.728  0.00  0.00    +0.000 C 
ENDBRANCH   6  11
TORSDOF 1
ENDMDL
MODEL 6
REMARK VINA RESULT:      -7.4      1.700      5.480
REMARK  Name = 
REMARK  1 active torsions:
REMARK  status: ('A' for Active; 'I' for Inactive)
REMARK    1  A    between atoms: C_6  and  C_7
REMARK                            x       y       z     vdW  Elec       q    Type
REMARK                         _______ _______ _______ _____ _____    ______ ____
ROOT
ATOM      1  C   UNL     1       1.171   2.994  20.980  0.00  0.00    +0.000 A 
ATOM      2  C   UNL     1       2.526   2.764  21.116  0.00  0.00    +0.000 A 
ATOM      3  C   UNL     1       3.380   3.138  20.084  0.00  0.00    +0.000 A 
ATOM      4  N   UNL     1       4.704   2.951  20.173  0.00  0.00    +0.000 NA
ATOM      5  N   UNL     1       5.518   3.365  19.154  0.00  0.00    +0.000 NA
ATOM      6  C   UNL     1       4.976   3.938  18.064  0.00  0.00    +0.000 A 
ATOM      7  N   UNL     1       3.653   4.133  17.913  0.00  0.00    +0.000 NA
ATOM      8  C   UNL     1       2.865   3.732  18.931  0.00  0.00    +0.000 A 
ATOM      9  C   UNL     1       1.492   3.901  18.896  0.00  0.00    +0.000 A 
ATOM     10  N   UNL     1       0.628   3.553  19.885  0.00  0.00    +0.000 NA
ENDROOT
BRANCH   6  11
ATOM     11  C   UNL     1       5.872   4.483  16.972  0.00  0.00    +0.000 C 
ATOM     12  C   UNL     1       5.262   5.748  16.343  0.00  0.00    +0.000 C 
ATOM     13  C   UNL     1       5.559   7.026  17.122  0.00  0.00    +0.000 C 
ATOM     14  C   UNL     1       7.054   7.193  17.365  0.00  0.00    +0.000 C 
ATOM     15  C   UNL     1       7.626   5.995  18.112  0.00  0.00    +0.000 C 
ATOM     16  C   UNL     1       7.341   4.681  17.385  0.00  0.00    +0.000 C 
ENDBRANCH   6  11
TORSDOF 1
ENDMDL
MODEL 7
REMARK VINA RESULT:      -7.3      1.581      5.549
REMARK  Name = 
REMARK  1 active torsions:
REMARK  status: ('A' for Active; 'I' for Inactive)
REMARK    1  A    between atoms: C_6  and  C_7
REMARK                            x       y       z     vdW  Elec       q    Type
REMARK                         _______ _______ _______ _____ _____    ______ ____
ROOT
ATOM      1  C   UNL     1       1.290   2.942  21.027  0.00  0.00    +0.000 A 
ATOM      2  C   UNL     1       2.584   2.483  20.874  0.00  0.00    +0.000 A 
ATOM      3  C   UNL     1       3.482   3.236  20.126  0.00  0.00    +0.000 A 
ATOM      4  N   UNL     1       4.752   2.842  19.960  0.00  0.00    +0.000 NA
ATOM      5  N   UNL     1       5.619   3.627  19.249  0.00  0.00    +0.000 NA
ATOM      6  C   UNL     1       5.179   4.777  18.707  0.00  0.00    +0.000 A 
ATOM      7  N   UNL     1       3.910   5.213  18.826  0.00  0.00    +0.000 NA
ATOM      8  C   UNL     1       3.072   4.435  19.541  0.00  0.00    +0.000 A 
ATOM      9  C   UNL     1       1.751   4.791  19.748  0.00  0.00    +0.000 A 
ATOM     10  N   UNL     1       0.847   4.084  20.474  0.00  0.00    +0.000 NA
ENDROOT
BRANCH   6  11
ATOM     11  C   UNL     1       6.149   5.699  17.998  0.00  0.00    +0.000 C 
ATOM     12  C   UNL     1       7.336   4.907  17.422  0.00  0.00    +0.000 C 
ATOM     13  C   UNL     1       7.053   4.279  16.060  0.00  0.00    +0.000 C 
ATOM     14  C   UNL     1       6.543   5.316  15.067  0.00  0.00    +0.000 C 
ATOM     15  C   UNL     1       5.284   6.000  15.585  0.00  0.00    +0.000 C 
ATOM     16  C   UNL     1       5.505   6.633  16.959  0.00  0.00    +0.000 C 
ENDBRANCH   6  11
TORSDOF 1
ENDMDL
MODEL 8
REMARK VINA RESULT:      -7.2      1.921      5.518
REMARK  Name = 
REMARK  1 active torsions:
REMARK  status: ('A' for Active; 'I' for Inactive)
REMARK    1  A    between atoms: C_6  and  C_7
REMARK                            x       y       z     vdW  Elec       q    Type
REMARK                         _______ _______ _______ _____ _____    ______ ____
ROOT
ATOM      1  C   UNL     1       0.666   2.950  19.609  0.00  0.00    +0.000 A 
ATOM      2  C   UNL     1       1.557   3.865  20.134  0.00  0.00    +0.000 A 
ATOM      3  C   UNL     1       2.775   4.065  19.493  0.00  0.00    +0.000 A 
ATOM      4  N   UNL     1       3.667   4.952  19.953  0.00  0.00    +0.000 NA
ATOM      5  N   UNL     1       4.840   5.149  19.276  0.00  0.00    +0.000 NA
ATOM      6  C   UNL     1       5.092   4.433  18.165  0.00  0.00    +0.000 A 
ATOM      7  N   UNL     1       4.241   3.515  17.668  0.00  0.00    +0.000 NA
ATOM      8  C   UNL     1       3.084   3.342  18.339  0.00  0.00    +0.000 A 
ATOM      9  C   UNL     1       2.124   2.442  17.911  0.00  0.00    +0.000 A 
ATOM     10  N   UNL     1       0.923   2.224  18.507  0.00  0.00    +0.000 NA
ENDROOT
BRANCH   6  11
ATOM     11  C   UNL     1       6.342   4.707  17.356  0.00  0.00    +0.000 C 
ATOM     12  C   UNL     1       6.123   5.885  16.391  0.00  0.00    +0.000 C 
ATOM     13  C   UNL     1       6.331   7.253  17.035  0.00  0.00    +0.000 C 
ATOM     14  C   UNL     1       7.687   7.343  17.722  0.00  0.00    +0.000 C 
ATOM     15  C   UNL     1       7.842   6.254  18.777  0.00  0.00    +0.000 C 
ATOM     16  C   UNL     1       7.626   4.859  18.190  0.00  0.00    +0.000 C 
ENDBRANCH   6  11
TORSDOF 1
ENDMDL
MODEL 9
REMARK VINA RESULT:      -7.2      1.237      1.877
REMARK  Name = 
REMARK  1 active torsions:
REMARK  status: ('A' for Active; 'I' for Inactive)
REMARK    1  A    between atoms: C_6  and  C_7
REMARK                            x       y       z     vdW  Elec       q    Type
REMARK                         _______ _______ _______ _____ _____    ______ ____
ROOT
ATOM      1  C   UNL     1       7.800   4.808  17.268  0.00  0.00    +0.000 A 
ATOM      2  C   UNL     1       6.687   4.401  16.558  0.00  0.00    +0.000 A 
ATOM      3  C   UNL     1       5.453   4.368  17.199  0.00  0.00    +0.000 A 
ATOM      4  N   UNL     1       4.341   3.996  16.551  0.00  0.00    +0.000 NA
ATOM      5  N   UNL     1       3.138   4.011  17.203  0.00  0.00    +0.000 NA
ATOM      6  C   UNL     1       3.089   4.380  18.496  0.00  0.00    +0.000 A 
ATOM      7  N   UNL     1       4.177   4.744  19.202  0.00  0.00    +0.000 NA
ATOM      8  C   UNL     1       5.352   4.738  18.542  0.00  0.00    +0.000 A 
ATOM      9  C   UNL     1       6.534   5.113  19.158  0.00  0.00    +0.000 A 
ATOM     10  N   UNL     1       7.754   5.163  18.564  0.00  0.00    +0.000 NA
ENDROOT
BRANCH   6  11
ATOM     11  C   UNL     1       1.754   4.489  19.202  0.00  0.00    +0.000 C 
ATOM     12  C   UNL     1       0.941   3.193  19.040  0.00  0.00    +0.000 C 
ATOM     13  C   UNL     1       1.303   2.109  20.052  0.00  0.00    +0.000 C 
ATOM     14  C   UNL     1       1.229   2.637  21.479  0.00  0.00    +0.000 C 
ATOM     15  C   UNL     1       2.145   3.839  21.669  0.00  0.00    +0.000 C 
ATOM     16  C   UNL     1       1.838   4.952  20.667  0.00  0.00    +0.000 C 
ENDBRANCH   6  11
TORSDOF 1
ENDMDL
