MODEL 1
REMARK VINA RESULT:      -7.6      0.000      0.000
REMARK  Name = 
REMARK  12 active torsions:
REMARK  status: ('A' for Active; 'I' for Inactive)
REMARK    1  A    between atoms: C_1  and  C_2
REMARK    2  A    between atoms: C_2  and  O_3
REMARK    3  A    between atoms: O_3  and  C_4
REMARK    4  A    between atoms: C_7  and  N_8
REMARK    5  A    between atoms: C_10  and  O_11
REMARK    6  A    between atoms: O_11  and  C_12
REMARK    7  A    between atoms: C_15  and  C_16
REMARK    8  A    between atoms: C_16  and  C_17
REMARK    9  A    between atoms: C_16  and  N_18
REMARK   10  A    between atoms: C_19  and  C_21
REMARK   11  A    between atoms: C_26  and  C_28
REMARK   12  A    between atoms: C_28  and  O_29
REMARK                            x       y       z     vdW  Elec       q    Type
REMARK                         _______ _______ _______ _____ _____    ______ ____
ROOT
ATOM      1  C   UNL     1       2.358   6.405  19.240  0.00  0.00    +0.000 A 
ATOM      2  C   UNL     1       1.893   7.268  20.228  0.00  0.00    +0.000 A 
ATOM      3  C   UNL     1       1.564   8.582  19.900  0.00  0.00    +0.000 A 
ATOM      4  C   UNL     1       1.711   9.052  18.585  0.00  0.00    +0.000 A 
ATOM      5  C   UNL     1       2.251   8.188  17.618  0.00  0.00    +0.000 A 
ATOM      6  C   UNL     1       2.578   6.873  17.947  0.00  0.00    +0.000 A 
ENDROOT
BRANCH   4   7
ATOM      7  C   UNL     1       1.268  10.462  18.243  0.00  0.00    +0.000 C 
ATOM      8  C   UNL     1       2.467  11.406  18.120  0.00  0.00    +0.000 C 
BRANCH   7   9
ATOM      9  N   UNL     1       0.318  10.946  19.224  0.00  0.00    +0.000 N 
ATOM     10  C   UNL     1      -0.327  12.156  19.090  0.00  0.00    +0.000 C 
ATOM     11  O   UNL     1      -0.143  12.879  18.114  0.00  0.00    +0.000 OA
ATOM     12  H   UNL     1       0.154  10.400  20.057  0.00  0.00    +0.000 HD
BRANCH  10  13
ATOM     13  C   UNL     1      -1.242  12.502  20.157  0.00  0.00    +0.000 A 
ATOM     14  C   UNL     1      -2.083  13.597  20.206  0.00  0.00    +0.000 A 
ATOM     15  N   UNL     1      -2.914  13.664  21.305  0.00  0.00    +0.000 NA
ATOM     16  C   UNL     1      -2.693  12.635  22.077  0.00  0.00    +0.000 A 
ATOM     17  N   UNL     1      -3.332  12.275  23.228  0.00  0.00    +0.000 N 
ATOM     18  C   UNL     1      -4.503  12.894  23.620  0.00  0.00    +0.000 C 
ATOM     19  O   UNL     1      -5.116  13.776  23.024  0.00  0.00    +0.000 OA
ATOM     20  S   UNL     1      -1.448  11.575  21.590  0.00  0.00    +0.000 S 
ATOM     21  H   UNL     1      -2.978  11.472  23.726  0.00  0.00    +0.000 HD
BRANCH  18  22
ATOM     22  C   UNL     1      -5.052  12.362  24.942  0.00  0.00    +0.000 C 
BRANCH  22  23
ATOM     23  O   UNL     1      -6.226  11.586  24.752  0.00  0.00    +0.000 OA
ATOM     24  H   UNL     1      -6.126  10.803  25.336  0.00  0.00    +0.000 HD
ENDBRANCH  22  23
ENDBRANCH  18  22
ENDBRANCH  10  13
ENDBRANCH   7   9
ENDBRANCH   4   7
BRANCH   1  25
ATOM     25  O   UNL     1       2.614   5.077  19.460  0.00  0.00    +0.000 OA
BRANCH  25  28
ATOM     26  N   UNL     1       5.508   4.435  18.541  0.00  0.00    +0.000 N 
ATOM     27  C   UNL     1       4.581   3.539  19.174  0.00  0.00    +0.000 C 
ATOM     28  C   UNL     1       3.953   4.727  19.901  0.00  0.00    +0.000 C 
ATOM     29  C   UNL     1       5.097   5.568  19.324  0.00  0.00    +0.000 C 
BRANCH  26  33
ATOM     30  C   UNL     1       6.527   4.371  14.430  0.00  0.00    +0.000 A 
ATOM     31  C   UNL     1       5.235   4.043  14.839  0.00  0.00    +0.000 A 
ATOM     32  C   UNL     1       4.885   4.089  16.193  0.00  0.00    +0.000 A 
ATOM     33  C   UNL     1       5.829   4.435  17.165  0.00  0.00    +0.000 A 
ATOM     34  C   UNL     1       7.118   4.782  16.736  0.00  0.00    +0.000 A 
ATOM     35  C   UNL     1       7.473   4.732  15.385  0.00  0.00    +0.000 A 
BRANCH  30  36
ATOM     36  O   UNL     1       6.749   4.300  13.085  0.00  0.00    +0.000 OA
BRANCH  36  38
ATOM     37  C   UNL     1       6.807   2.482  11.556  0.00  0.00    +0.000 C 
ATOM     38  C   UNL     1       5.909   3.401  12.361  0.00  0.00    +0.000 C 
ENDBRANCH  36  38
ENDBRANCH  30  36
ENDBRANCH  26  33
ENDBRANCH  25  28
ENDBRANCH   1  25
TORSDOF 10
ENDMDL
MODEL 2
REMARK VINA RESULT:      -7.5      3.575      5.731
REMARK  Name = 
REMARK  12 active torsions:
REMARK  status: ('A' for Active; 'I' for Inactive)
REMARK    1  A    between atoms: C_1  and  C_2
REMARK    2  A    between atoms: C_2  and  O_3
REMARK    3  A    between atoms: O_3  and  C_4
REMARK    4  A    between atoms: C_7  and  N_8
REMARK    5  A    between atoms: C_10  and  O_11
REMARK    6  A    between atoms: O_11  and  C_12
REMARK    7  A    between atoms: C_15  and  C_16
REMARK    8  A    between atoms: C_16  and  C_17
REMARK    9  A    between atoms: C_16  and  N_18
REMARK   10  A    between atoms: C_19  and  C_21
REMARK   11  A    between atoms: C_26  and  C_28
REMARK   12  A    between atoms: C_28  and  O_29
REMARK                            x       y       z     vdW  Elec       q    Type
REMARK                         _______ _______ _______ _____ _____    ______ ____
ROOT
ATOM      1  C   UNL     1       2.246   6.486  19.498  0.00  0.00    +0.000 A 
ATOM      2  C   UNL     1       1.798   6.994  20.714  0.00  0.00    +0.000 A 
ATOM      3  C   UNL     1       1.304   8.295  20.782  0.00  0.00    +0.000 A 
ATOM      4  C   UNL     1       1.269   9.110  19.638  0.00  0.00    +0.000 A 
ATOM      5  C   UNL     1       1.794   8.606  18.436  0.00  0.00    +0.000 A 
ATOM      6  C   UNL     1       2.286   7.302  18.370  0.00  0.00    +0.000 A 
ENDROOT
BRANCH   4   7
ATOM      7  C   UNL     1       0.651  10.492  19.726  0.00  0.00    +0.000 C 
ATOM      8  C   UNL     1      -0.352  10.724  18.594  0.00  0.00    +0.000 C 
BRANCH   7   9
ATOM      9  N   UNL     1       1.684  11.509  19.727  0.00  0.00    +0.000 N 
ATOM     10  C   UNL     1       1.517  12.728  20.345  0.00  0.00    +0.000 C 
ATOM     11  O   UNL     1       0.485  13.007  20.950  0.00  0.00    +0.000 OA
ATOM     12  H   UNL     1       2.540  11.337  19.220  0.00  0.00    +0.000 HD
BRANCH  10  13
ATOM     13  C   UNL     1       2.638  13.639  20.253  0.00  0.00    +0.000 A 
ATOM     14  C   UNL     1       3.414  14.108  21.295  0.00  0.00    +0.000 A 
ATOM     15  N   UNL     1       4.474  14.914  20.936  0.00  0.00    +0.000 NA
ATOM     16  C   UNL     1       4.489  15.056  19.638  0.00  0.00    +0.000 A 
ATOM     17  N   UNL     1       5.394  15.716  18.859  0.00  0.00    +0.000 N 
ATOM     18  C   UNL     1       6.594  16.163  19.378  0.00  0.00    +0.000 C 
ATOM     19  O   UNL     1       7.008  16.023  20.526  0.00  0.00    +0.000 OA
ATOM     20  S   UNL     1       3.216  14.311  18.780  0.00  0.00    +0.000 S 
ATOM     21  H   UNL     1       5.204  15.771  17.870  0.00  0.00    +0.000 HD
BRANCH  18  22
ATOM     22  C   UNL     1       7.459  16.891  18.352  0.00  0.00    +0.000 C 
BRANCH  22  23
ATOM     23  O   UNL     1       7.734  18.227  18.747  0.00  0.00    +0.000 OA
ATOM     24  H   UNL     1       7.582  18.778  17.948  0.00  0.00    +0.000 HD
ENDBRANCH  22  23
ENDBRANCH  18  22
ENDBRANCH  10  13
ENDBRANCH   7   9
ENDBRANCH   4   7
BRANCH   1  25
ATOM     25  O   UNL     1       2.657   5.191  19.328  0.00  0.00    +0.000 OA
BRANCH  25  28
ATOM     26  N   UNL     1       5.547   4.542  18.399  0.00  0.00    +0.000 N 
ATOM     27  C   UNL     1       4.633   3.658  19.067  0.00  0.00    +0.000 C 
ATOM     28  C   UNL     1       4.004   4.863  19.765  0.00  0.00    +0.000 C 
ATOM     29  C   UNL     1       5.135   5.694  19.152  0.00  0.00    +0.000 C 
BRANCH  26  33
ATOM     30  C   UNL     1       6.527   4.363  14.282  0.00  0.00    +0.000 A 
ATOM     31  C   UNL     1       5.244   4.028  14.715  0.00  0.00    +0.000 A 
ATOM     32  C   UNL     1       4.906   4.111  16.070  0.00  0.00    +0.000 A 
ATOM     33  C   UNL     1       5.854   4.503  17.020  0.00  0.00    +0.000 A 
ATOM     34  C   UNL     1       7.133   4.856  16.567  0.00  0.00    +0.000 A 
ATOM     35  C   UNL     1       7.476   4.768  15.215  0.00  0.00    +0.000 A 
BRANCH  30  36
ATOM     36  O   UNL     1       6.736   4.252  12.937  0.00  0.00    +0.000 OA
BRANCH  36  38
ATOM     37  C   UNL     1       6.638   2.278  11.618  0.00  0.00    +0.000 C 
ATOM     38  C   UNL     1       5.829   3.404  12.232  0.00  0.00    +0.000 C 
ENDBRANCH  36  38
ENDBRANCH  30  36
ENDBRANCH  26  33
ENDBRANCH  25  28
ENDBRANCH   1  25
TORSDOF 10
ENDMDL
MODEL 3
REMARK VINA RESULT:      -7.5      5.424      9.017
REMARK  Name = 
REMARK  12 active torsions:
REMARK  status: ('A' for Active; 'I' for Inactive)
REMARK    1  A    between atoms: C_1  and  C_2
REMARK    2  A    between atoms: C_2  and  O_3
REMARK    3  A    between atoms: O_3  and  C_4
REMARK    4  A    between atoms: C_7  and  N_8
REMARK    5  A    between atoms: C_10  and  O_11
REMARK    6  A    between atoms: O_11  and  C_12
REMARK    7  A    between atoms: C_15  and  C_16
REMARK    8  A    between atoms: C_16  and  C_17
REMARK    9  A    between atoms: C_16  and  N_18
REMARK   10  A    between atoms: C_19  and  C_21
REMARK   11  A    between atoms: C_26  and  C_28
REMARK   12  A    between atoms: C_28  and  O_29
REMARK                            x       y       z     vdW  Elec       q    Type
REMARK                         _______ _______ _______ _____ _____    ______ ____
ROOT
ATOM      1  C   UNL     1       0.344  11.677  20.506  0.00  0.00    +0.000 A 
ATOM      2  C   UNL     1       0.388  12.745  21.396  0.00  0.00    +0.000 A 
ATOM      3  C   UNL     1       1.181  13.854  21.109  0.00  0.00    +0.000 A 
ATOM      4  C   UNL     1       1.952  13.901  19.937  0.00  0.00    +0.000 A 
ATOM      5  C   UNL     1       1.952  12.783  19.086  0.00  0.00    +0.000 A 
ATOM      6  C   UNL     1       1.156  11.674  19.374  0.00  0.00    +0.000 A 
ENDROOT
BRANCH   4   7
ATOM      7  C   UNL     1       2.741  15.155  19.612  0.00  0.00    +0.000 C 
ATOM      8  C   UNL     1       2.154  15.882  18.399  0.00  0.00    +0.000 C 
BRANCH   7   9
ATOM      9  N   UNL     1       4.139  14.834  19.404  0.00  0.00    +0.000 N 
ATOM     10  C   UNL     1       5.154  15.685  19.779  0.00  0.00    +0.000 C 
ATOM     11  O   UNL     1       4.923  16.758  20.333  0.00  0.00    +0.000 OA
ATOM     12  H   UNL     1       4.378  13.976  18.928  0.00  0.00    +0.000 HD
BRANCH  10  13
ATOM     13  C   UNL     1       6.497  15.225  19.499  0.00  0.00    +0.000 A 
ATOM     14  C   UNL     1       7.398  14.695  20.402  0.00  0.00    +0.000 A 
ATOM     15  N   UNL     1       8.595  14.262  19.870  0.00  0.00    +0.000 NA
ATOM     16  C   UNL     1       8.595  14.472  18.581  0.00  0.00    +0.000 A 
ATOM     17  N   UNL     1       9.546  14.142  17.660  0.00  0.00    +0.000 N 
ATOM     18  C   UNL     1      10.595  13.302  17.983  0.00  0.00    +0.000 C 
ATOM     19  O   UNL     1      10.801  12.747  19.060  0.00  0.00    +0.000 OA
ATOM     20  S   UNL     1       7.222  15.257  17.940  0.00  0.00    +0.000 S 
ATOM     21  H   UNL     1       9.398  14.444  16.709  0.00  0.00    +0.000 HD
BRANCH  18  22
ATOM     22  C   UNL     1      11.559  13.069  16.823  0.00  0.00    +0.000 C 
BRANCH  22  23
ATOM     23  O   UNL     1      11.324  13.971  15.752  0.00  0.00    +0.000 OA
ATOM     24  H   UNL     1      10.976  14.791  16.165  0.00  0.00    +0.000 HD
ENDBRANCH  22  23
ENDBRANCH  18  22
ENDBRANCH  10  13
ENDBRANCH   7   9
ENDBRANCH   4   7
BRANCH   1  25
ATOM     25  O   UNL     1      -0.480  10.594  20.668  0.00  0.00    +0.000 OA
BRANCH  25  28
ATOM     26  N   UNL     1       1.006   7.965  21.387  0.00  0.00    +0.000 N 
ATOM     27  C   UNL     1      -0.411   8.196  21.419  0.00  0.00    +0.000 C 
ATOM     28  C   UNL     1      -0.148   9.667  21.736  0.00  0.00    +0.000 C 
ATOM     29  C   UNL     1       1.329   9.281  21.864  0.00  0.00    +0.000 C 
BRANCH  26  33
ATOM     30  C   UNL     1       2.983   5.751  18.366  0.00  0.00    +0.000 A 
ATOM     31  C   UNL     1       2.776   7.121  18.211  0.00  0.00    +0.000 A 
ATOM     32  C   UNL     1       2.147   7.863  19.217  0.00  0.00    +0.000 A 
ATOM     33  C   UNL     1       1.689   7.242  20.383  0.00  0.00    +0.000 A 
ATOM     34  C   UNL     1       1.924   5.868  20.533  0.00  0.00    +0.000 A 
ATOM     35  C   UNL     1       2.546   5.122  19.528  0.00  0.00    +0.000 A 
BRANCH  30  36
ATOM     36  O   UNL     1       3.614   5.135  17.323  0.00  0.00    +0.000 OA
BRANCH  36  38
ATOM     37  C   UNL     1       5.325   5.137  15.674  0.00  0.00    +0.000 C 
ATOM     38  C   UNL     1       4.969   5.524  17.096  0.00  0.00    +0.000 C 
ENDBRANCH  36  38
ENDBRANCH  30  36
ENDBRANCH  26  33
ENDBRANCH  25  28
ENDBRANCH   1  25
TORSDOF 10
ENDMDL
MODEL 4
REMARK VINA RESULT:      -7.5      1.495      2.056
REMARK  Name = 
REMARK  12 active torsions:
REMARK  status: ('A' for Active; 'I' for Inactive)
REMARK    1  A    between atoms: C_1  and  C_2
REMARK    2  A    between atoms: C_2  and  O_3
REMARK    3  A    between atoms: O_3  and  C_4
REMARK    4  A    between atoms: C_7  and  N_8
REMARK    5  A    between atoms: C_10  and  O_11
REMARK    6  A    between atoms: O_11  and  C_12
REMARK    7  A    between atoms: C_15  and  C_16
REMARK    8  A    between atoms: C_16  and  C_17
REMARK    9  A    between atoms: C_16  and  N_18
REMARK   10  A    between atoms: C_19  and  C_21
REMARK   11  A    between atoms: C_26  and  C_28
REMARK   12  A    between atoms: C_28  and  O_29
REMARK                            x       y       z     vdW  Elec       q    Type
REMARK                         _______ _______ _______ _____ _____    ______ ____
ROOT
ATOM      1  C   UNL     1       2.378   6.190  19.317  0.00  0.00    +0.000 A 
ATOM      2  C   UNL     1       2.363   6.629  17.997  0.00  0.00    +0.000 A 
ATOM      3  C   UNL     1       2.017   7.948  17.710  0.00  0.00    +0.000 A 
ATOM      4  C   UNL     1       1.664   8.837  18.737  0.00  0.00    +0.000 A 
ATOM      5  C   UNL     1       1.612   8.356  20.056  0.00  0.00    +0.000 A 
ATOM      6  C   UNL     1       1.962   7.036  20.343  0.00  0.00    +0.000 A 
ENDROOT
BRANCH   4   7
ATOM      7  C   UNL     1       1.370  10.287  18.402  0.00  0.00    +0.000 C 
ATOM      8  C   UNL     1       2.616  10.995  17.863  0.00  0.00    +0.000 C 
BRANCH   7   9
ATOM      9  N   UNL     1       0.835  10.976  19.559  0.00  0.00    +0.000 N 
ATOM     10  C   UNL     1      -0.518  11.071  19.800  0.00  0.00    +0.000 C 
ATOM     11  O   UNL     1      -1.343  10.552  19.051  0.00  0.00    +0.000 OA
ATOM     12  H   UNL     1       1.472  11.442  20.189  0.00  0.00    +0.000 HD
BRANCH  10  13
ATOM     13  C   UNL     1      -0.895  11.796  20.994  0.00  0.00    +0.000 A 
ATOM     14  C   UNL     1      -0.139  11.960  22.139  0.00  0.00    +0.000 A 
ATOM     15  N   UNL     1      -0.697  12.759  23.115  0.00  0.00    +0.000 NA
ATOM     16  C   UNL     1      -1.864  13.184  22.711  0.00  0.00    +0.000 A 
ATOM     17  N   UNL     1      -2.724  14.043  23.330  0.00  0.00    +0.000 N 
ATOM     18  C   UNL     1      -2.335  14.771  24.438  0.00  0.00    +0.000 C 
ATOM     19  O   UNL     1      -1.232  14.775  24.978  0.00  0.00    +0.000 OA
ATOM     20  S   UNL     1      -2.397  12.608  21.195  0.00  0.00    +0.000 S 
ATOM     21  H   UNL     1      -3.616  14.208  22.889  0.00  0.00    +0.000 HD
BRANCH  18  22
ATOM     22  C   UNL     1      -3.445  15.660  24.995  0.00  0.00    +0.000 C 
BRANCH  22  23
ATOM     23  O   UNL     1      -4.711  15.333  24.440  0.00  0.00    +0.000 OA
ATOM     24  H   UNL     1      -5.301  16.085  24.660  0.00  0.00    +0.000 HD
ENDBRANCH  22  23
ENDBRANCH  18  22
ENDBRANCH  10  13
ENDBRANCH   7   9
ENDBRANCH   4   7
BRANCH   1  25
ATOM     25  O   UNL     1       2.796   4.940  19.690  0.00  0.00    +0.000 OA
BRANCH  25  28
ATOM     26  N   UNL     1       5.659   4.574  18.548  0.00  0.00    +0.000 N 
ATOM     27  C   UNL     1       4.909   3.628  19.326  0.00  0.00    +0.000 C 
ATOM     28  C   UNL     1       4.202   4.788  20.025  0.00  0.00    +0.000 C 
ATOM     29  C   UNL     1       5.177   5.709  19.286  0.00  0.00    +0.000 C 
BRANCH  26  33
ATOM     30  C   UNL     1       6.210   4.428  14.351  0.00  0.00    +0.000 A 
ATOM     31  C   UNL     1       7.303   4.611  15.197  0.00  0.00    +0.000 A 
ATOM     32  C   UNL     1       7.131   4.634  16.585  0.00  0.00    +0.000 A 
ATOM     33  C   UNL     1       5.859   4.502  17.151  0.00  0.00    +0.000 A 
ATOM     34  C   UNL     1       4.773   4.297  16.288  0.00  0.00    +0.000 A 
ATOM     35  C   UNL     1       4.940   4.281  14.900  0.00  0.00    +0.000 A 
BRANCH  30  36
ATOM     36  O   UNL     1       6.501   4.414  13.017  0.00  0.00    +0.000 OA
BRANCH  36  38
ATOM     37  C   UNL     1       4.938   3.191  11.709  0.00  0.00    +0.000 C 
ATOM     38  C   UNL     1       6.313   3.166  12.349  0.00  0.00    +0.000 C 
ENDBRANCH  36  38
ENDBRANCH  30  36
ENDBRANCH  26  33
ENDBRANCH  25  28
ENDBRANCH   1  25
TORSDOF 10
ENDMDL
MODEL 5
REMARK VINA RESULT:      -7.4      3.507      5.455
REMARK  Name = 
REMARK  12 active torsions:
REMARK  status: ('A' for Active; 'I' for Inactive)
REMARK    1  A    between atoms: C_1  and  C_2
REMARK    2  A    between atoms: C_2  and  O_3
REMARK    3  A    between atoms: O_3  and  C_4
REMARK    4  A    between atoms: C_7  and  N_8
REMARK    5  A    between atoms: C_10  and  O_11
REMARK    6  A    between atoms: O_11  and  C_12
REMARK    7  A    between atoms: C_15  and  C_16
REMARK    8  A    between atoms: C_16  and  C_17
REMARK    9  A    between atoms: C_16  and  N_18
REMARK   10  A    between atoms: C_19  and  C_21
REMARK   11  A    between atoms: C_26  and  C_28
REMARK   12  A    between atoms: C_28  and  O_29
REMARK                            x       y       z     vdW  Elec       q    Type
REMARK                         _______ _______ _______ _____ _____    ______ ____
ROOT
ATOM      1  C   UNL     1       2.311   6.507  19.359  0.00  0.00    +0.000 A 
ATOM      2  C   UNL     1       1.833   7.031  20.556  0.00  0.00    +0.000 A 
ATOM      3  C   UNL     1       1.286   8.313  20.581  0.00  0.00    +0.000 A 
ATOM      4  C   UNL     1       1.228   9.091  19.414  0.00  0.00    +0.000 A 
ATOM      5  C   UNL     1       1.782   8.574  18.231  0.00  0.00    +0.000 A 
ATOM      6  C   UNL     1       2.327   7.289  18.207  0.00  0.00    +0.000 A 
ENDROOT
BRANCH   4   7
ATOM      7  C   UNL     1       0.554  10.449  19.456  0.00  0.00    +0.000 C 
ATOM      8  C   UNL     1      -0.514  10.573  18.365  0.00  0.00    +0.000 C 
BRANCH   7   9
ATOM      9  N   UNL     1       1.539  11.506  19.347  0.00  0.00    +0.000 N 
ATOM     10  C   UNL     1       1.457  12.667  20.083  0.00  0.00    +0.000 C 
ATOM     11  O   UNL     1       0.551  12.856  20.891  0.00  0.00    +0.000 OA
ATOM     12  H   UNL     1       2.288  11.410  18.677  0.00  0.00    +0.000 HD
BRANCH  10  13
ATOM     13  C   UNL     1       2.514  13.630  19.858  0.00  0.00    +0.000 A 
ATOM     14  C   UNL     1       2.870  14.206  18.654  0.00  0.00    +0.000 A 
ATOM     15  N   UNL     1       3.870  15.154  18.716  0.00  0.00    +0.000 NA
ATOM     16  C   UNL     1       4.267  15.282  19.953  0.00  0.00    +0.000 A 
ATOM     17  N   UNL     1       5.187  16.147  20.472  0.00  0.00    +0.000 N 
ATOM     18  C   UNL     1       5.684  17.197  19.724  0.00  0.00    +0.000 C 
ATOM     19  O   UNL     1       5.378  17.505  18.575  0.00  0.00    +0.000 OA
ATOM     20  S   UNL     1       3.539  14.244  21.095  0.00  0.00    +0.000 S 
ATOM     21  H   UNL     1       5.410  16.057  21.452  0.00  0.00    +0.000 HD
BRANCH  18  22
ATOM     22  C   UNL     1       6.713  18.038  20.476  0.00  0.00    +0.000 C 
BRANCH  22  23
ATOM     23  O   UNL     1       7.471  17.254  21.386  0.00  0.00    +0.000 OA
ATOM     24  H   UNL     1       8.366  17.176  20.991  0.00  0.00    +0.000 HD
ENDBRANCH  22  23
ENDBRANCH  18  22
ENDBRANCH  10  13
ENDBRANCH   7   9
ENDBRANCH   4   7
BRANCH   1  25
ATOM     25  O   UNL     1       2.776   5.224  19.230  0.00  0.00    +0.000 OA
BRANCH  25  28
ATOM     26  N   UNL     1       5.652   4.578  18.259  0.00  0.00    +0.000 N 
ATOM     27  C   UNL     1       4.788   3.731  19.033  0.00  0.00    +0.000 C 
ATOM     28  C   UNL     1       4.145   4.974  19.646  0.00  0.00    +0.000 C 
ATOM     29  C   UNL     1       5.230   5.780  18.923  0.00  0.00    +0.000 C 
BRANCH  26  33
ATOM     30  C   UNL     1       6.376   4.181  14.104  0.00  0.00    +0.000 A 
ATOM     31  C   UNL     1       7.356   4.714  14.941  0.00  0.00    +0.000 A 
ATOM     32  C   UNL     1       7.133   4.823  16.318  0.00  0.00    +0.000 A 
ATOM     33  C   UNL     1       5.915   4.427  16.878  0.00  0.00    +0.000 A 
ATOM     34  C   UNL     1       4.948   3.873  16.028  0.00  0.00    +0.000 A 
ATOM     35  C   UNL     1       5.164   3.769  14.650  0.00  0.00    +0.000 A 
BRANCH  30  36
ATOM     36  O   UNL     1       6.710   4.116  12.782  0.00  0.00    +0.000 OA
BRANCH  36  38
ATOM     37  C   UNL     1       6.774   2.148  11.451  0.00  0.00    +0.000 C 
ATOM     38  C   UNL     1       5.895   3.268  11.973  0.00  0.00    +0.000 C 
ENDBRANCH  36  38
ENDBRANCH  30  36
ENDBRANCH  26  33
ENDBRANCH  25  28
ENDBRANCH   1  25
TORSDOF 10
ENDMDL
MODEL 6
REMARK VINA RESULT:      -7.4      3.443      5.329
REMARK  Name = 
REMARK  12 active torsions:
REMARK  status: ('A' for Active; 'I' for Inactive)
REMARK    1  A    between atoms: C_1  and  C_2
REMARK    2  A    between atoms: C_2  and  O_3
REMARK    3  A    between atoms: O_3  and  C_4
REMARK    4  A    between atoms: C_7  and  N_8
REMARK    5  A    between atoms: C_10  and  O_11
REMARK    6  A    between atoms: O_11  and  C_12
REMARK    7  A    between atoms: C_15  and  C_16
REMARK    8  A    between atoms: C_16  and  C_17
REMARK    9  A    between atoms: C_16  and  N_18
REMARK   10  A    between atoms: C_19  and  C_21
REMARK   11  A    between atoms: C_26  and  C_28
REMARK   12  A    between atoms: C_28  and  O_29
REMARK                            x       y       z     vdW  Elec       q    Type
REMARK                         _______ _______ _______ _____ _____    ______ ____
ROOT
ATOM      1  C   UNL     1       2.139   5.561  18.863  0.00  0.00    +0.000 A 
ATOM      2  C   UNL     1       1.635   5.281  20.130  0.00  0.00    +0.000 A 
ATOM      3  C   UNL     1       1.286   6.325  20.983  0.00  0.00    +0.000 A 
ATOM      4  C   UNL     1       1.453   7.662  20.587  0.00  0.00    +0.000 A 
ATOM      5  C   UNL     1       2.031   7.926  19.334  0.00  0.00    +0.000 A 
ATOM      6  C   UNL     1       2.377   6.879  18.479  0.00  0.00    +0.000 A 
ENDROOT
BRANCH   4   7
ATOM      7  C   UNL     1       0.989   8.776  21.505  0.00  0.00    +0.000 C 
ATOM      8  C   UNL     1      -0.356   8.437  22.154  0.00  0.00    +0.000 C 
BRANCH   7   9
ATOM      9  N   UNL     1       0.920  10.032  20.784  0.00  0.00    +0.000 N 
ATOM     10  C   UNL     1       0.474  11.195  21.371  0.00  0.00    +0.000 C 
ATOM     11  O   UNL     1       0.131  11.231  22.550  0.00  0.00    +0.000 OA
ATOM     12  H   UNL     1       1.165  10.047  19.805  0.00  0.00    +0.000 HD
BRANCH  10  13
ATOM     13  C   UNL     1       0.458  12.364  20.518  0.00  0.00    +0.000 A 
ATOM     14  C   UNL     1      -0.589  12.804  19.731  0.00  0.00    +0.000 A 
ATOM     15  N   UNL     1      -0.377  13.992  19.062  0.00  0.00    +0.000 NA
ATOM     16  C   UNL     1       0.820  14.434  19.337  0.00  0.00    +0.000 A 
ATOM     17  N   UNL     1       1.414  15.598  18.943  0.00  0.00    +0.000 N 
ATOM     18  C   UNL     1       0.687  16.603  18.335  0.00  0.00    +0.000 C 
ATOM     19  O   UNL     1      -0.519  16.613  18.099  0.00  0.00    +0.000 OA
ATOM     20  S   UNL     1       1.785  13.442  20.335  0.00  0.00    +0.000 S 
ATOM     21  H   UNL     1       2.378  15.741  19.206  0.00  0.00    +0.000 HD
BRANCH  18  22
ATOM     22  C   UNL     1       1.535  17.814  17.955  0.00  0.00    +0.000 C 
BRANCH  22  23
ATOM     23  O   UNL     1       2.563  17.471  17.037  0.00  0.00    +0.000 OA
ATOM     24  H   UNL     1       2.806  16.543  17.243  0.00  0.00    +0.000 HD
ENDBRANCH  22  23
ENDBRANCH  18  22
ENDBRANCH  10  13
ENDBRANCH   7   9
ENDBRANCH   4   7
BRANCH   1  25
ATOM     25  O   UNL     1       2.416   4.595  17.932  0.00  0.00    +0.000 OA
BRANCH  25  28
ATOM     26  N   UNL     1       5.489   4.339  18.290  0.00  0.00    +0.000 N 
ATOM     27  C   UNL     1       4.684   3.748  17.257  0.00  0.00    +0.000 C 
ATOM     28  C   UNL     1       3.509   3.686  18.231  0.00  0.00    +0.000 C 
ATOM     29  C   UNL     1       4.495   4.144  19.310  0.00  0.00    +0.000 C 
BRANCH  26  33
ATOM     30  C   UNL     1       7.905   7.788  17.832  0.00  0.00    +0.000 A 
ATOM     31  C   UNL     1       8.270   6.788  18.734  0.00  0.00    +0.000 A 
ATOM     32  C   UNL     1       7.490   5.635  18.871  0.00  0.00    +0.000 A 
ATOM     33  C   UNL     1       6.316   5.473  18.128  0.00  0.00    +0.000 A 
ATOM     34  C   UNL     1       5.974   6.476  17.211  0.00  0.00    +0.000 A 
ATOM     35  C   UNL     1       6.747   7.634  17.076  0.00  0.00    +0.000 A 
BRANCH  30  36
ATOM     36  O   UNL     1       8.747   8.861  17.780  0.00  0.00    +0.000 OA
BRANCH  36  38
ATOM     37  C   UNL     1       9.334  10.483  19.415  0.00  0.00    +0.000 C 
ATOM     38  C   UNL     1       8.280  10.052  18.413  0.00  0.00    +0.000 C 
ENDBRANCH  36  38
ENDBRANCH  30  36
ENDBRANCH  26  33
ENDBRANCH  25  28
ENDBRANCH   1  25
TORSDOF 10
ENDMDL
MODEL 7
REMARK VINA RESULT:      -7.4      3.010     12.247
REMARK  Name = 
REMARK  12 active torsions:
REMARK  status: ('A' for Active; 'I' for Inactive)
REMARK    1  A    between atoms: C_1  and  C_2
REMARK    2  A    between atoms: C_2  and  O_3
REMARK    3  A    between atoms: O_3  and  C_4
REMARK    4  A    between atoms: C_7  and  N_8
REMARK    5  A    between atoms: C_10  and  O_11
REMARK    6  A    between atoms: O_11  and  C_12
REMARK    7  A    between atoms: C_15  and  C_16
REMARK    8  A    between atoms: C_16  and  C_17
REMARK    9  A    between atoms: C_16  and  N_18
REMARK   10  A    between atoms: C_19  and  C_21
REMARK   11  A    between atoms: C_26  and  C_28
REMARK   12  A    between atoms: C_28  and  O_29
REMARK                            x       y       z     vdW  Elec       q    Type
REMARK                         _______ _______ _______ _____ _____    ______ ____
ROOT
ATOM      1  C   UNL     1      -2.428  11.355  17.335  0.00  0.00    +0.000 A 
ATOM      2  C   UNL     1      -1.852  10.108  17.115  0.00  0.00    +0.000 A 
ATOM      3  C   UNL     1      -0.912   9.610  18.015  0.00  0.00    +0.000 A 
ATOM      4  C   UNL     1      -0.524  10.361  19.137  0.00  0.00    +0.000 A 
ATOM      5  C   UNL     1      -1.061  11.649  19.303  0.00  0.00    +0.000 A 
ATOM      6  C   UNL     1      -2.004  12.145  18.402  0.00  0.00    +0.000 A 
ENDROOT
BRANCH   4   7
ATOM      7  C   UNL     1       0.440   9.760  20.141  0.00  0.00    +0.000 C 
ATOM      8  C   UNL     1       1.151  10.848  20.949  0.00  0.00    +0.000 C 
BRANCH   7   9
ATOM      9  N   UNL     1       1.393   8.896  19.474  0.00  0.00    +0.000 N 
ATOM     10  C   UNL     1       1.788   7.687  20.003  0.00  0.00    +0.000 C 
ATOM     11  O   UNL     1       1.331   7.269  21.064  0.00  0.00    +0.000 OA
ATOM     12  H   UNL     1       1.816   9.208  18.612  0.00  0.00    +0.000 HD
BRANCH  10  13
ATOM     13  C   UNL     1       2.751   6.942  19.220  0.00  0.00    +0.000 A 
ATOM     14  C   UNL     1       3.310   5.719  19.537  0.00  0.00    +0.000 A 
ATOM     15  N   UNL     1       4.152   5.182  18.586  0.00  0.00    +0.000 NA
ATOM     16  C   UNL     1       4.231   5.997  17.569  0.00  0.00    +0.000 A 
ATOM     17  N   UNL     1       4.899   5.834  16.390  0.00  0.00    +0.000 N 
ATOM     18  C   UNL     1       5.433   4.611  16.033  0.00  0.00    +0.000 C 
ATOM     19  O   UNL     1       5.370   3.558  16.663  0.00  0.00    +0.000 OA
ATOM     20  S   UNL     1       3.380   7.470  17.710  0.00  0.00    +0.000 S 
ATOM     21  H   UNL     1       4.895   6.607  15.742  0.00  0.00    +0.000 HD
BRANCH  18  22
ATOM     22  C   UNL     1       6.154   4.638  14.688  0.00  0.00    +0.000 C 
BRANCH  22  23
ATOM     23  O   UNL     1       5.344   4.113  13.645  0.00  0.00    +0.000 OA
ATOM     24  H   UNL     1       4.483   3.892  14.061  0.00  0.00    +0.000 HD
ENDBRANCH  22  23
ENDBRANCH  18  22
ENDBRANCH  10  13
ENDBRANCH   7   9
ENDBRANCH   4   7
BRANCH   1  25
ATOM     25  O   UNL     1      -3.425  11.873  16.552  0.00  0.00    +0.000 OA
BRANCH  25  28
ATOM     26  N   UNL     1      -5.895  11.470  18.388  0.00  0.00    +0.000 N 
ATOM     27  C   UNL     1      -4.969  10.464  17.947  0.00  0.00    +0.000 C 
ATOM     28  C   UNL     1      -4.738  11.261  16.665  0.00  0.00    +0.000 C 
ATOM     29  C   UNL     1      -5.873  12.176  17.137  0.00  0.00    +0.000 C 
BRANCH  26  33
ATOM     30  C   UNL     1      -5.972  13.114  22.290  0.00  0.00    +0.000 A 
ATOM     31  C   UNL     1      -4.838  13.254  21.491  0.00  0.00    +0.000 A 
ATOM     32  C   UNL     1      -4.816  12.736  20.191  0.00  0.00    +0.000 A 
ATOM     33  C   UNL     1      -5.918  12.045  19.678  0.00  0.00    +0.000 A 
ATOM     34  C   UNL     1      -7.058  11.931  20.486  0.00  0.00    +0.000 A 
ATOM     35  C   UNL     1      -7.081  12.441  21.788  0.00  0.00    +0.000 A 
BRANCH  30  36
ATOM     36  O   UNL     1      -5.880  13.667  23.535  0.00  0.00    +0.000 OA
BRANCH  36  38
ATOM     37  C   UNL     1      -4.378  12.414  24.885  0.00  0.00    +0.000 C 
ATOM     38  C   UNL     1      -4.573  13.701  24.108  0.00  0.00    +0.000 C 
ENDBRANCH  36  38
ENDBRANCH  30  36
ENDBRANCH  26  33
ENDBRANCH  25  28
ENDBRANCH   1  25
TORSDOF 10
ENDMDL
MODEL 8
REMARK VINA RESULT:      -7.3      3.746      5.859
REMARK  Name = 
REMARK  12 active torsions:
REMARK  status: ('A' for Active; 'I' for Inactive)
REMARK    1  A    between atoms: C_1  and  C_2
REMARK    2  A    between atoms: C_2  and  O_3
REMARK    3  A    between atoms: O_3  and  C_4
REMARK    4  A    between atoms: C_7  and  N_8
REMARK    5  A    between atoms: C_10  and  O_11
REMARK    6  A    between atoms: O_11  and  C_12
REMARK    7  A    between atoms: C_15  and  C_16
REMARK    8  A    between atoms: C_16  and  C_17
REMARK    9  A    between atoms: C_16  and  N_18
REMARK   10  A    between atoms: C_19  and  C_21
REMARK   11  A    between atoms: C_26  and  C_28
REMARK   12  A    between atoms: C_28  and  O_29
REMARK                            x       y       z     vdW  Elec       q    Type
REMARK                         _______ _______ _______ _____ _____    ______ ____
ROOT
ATOM      1  C   UNL     1       1.851   7.690  20.049  0.00  0.00    +0.000 A 
ATOM      2  C   UNL     1       1.996   8.398  18.860  0.00  0.00    +0.000 A 
ATOM      3  C   UNL     1       1.324   9.606  18.687  0.00  0.00    +0.000 A 
ATOM      4  C   UNL     1       0.486  10.112  19.694  0.00  0.00    +0.000 A 
ATOM      5  C   UNL     1       0.295   9.348  20.857  0.00  0.00    +0.000 A 
ATOM      6  C   UNL     1       0.970   8.139  21.030  0.00  0.00    +0.000 A 
ENDROOT
BRANCH   4   7
ATOM      7  C   UNL     1      -0.167  11.468  19.510  0.00  0.00    +0.000 C 
ATOM      8  C   UNL     1      -1.156  11.454  18.341  0.00  0.00    +0.000 C 
BRANCH   7   9
ATOM      9  N   UNL     1       0.839  12.495  19.331  0.00  0.00    +0.000 N 
ATOM     10  C   UNL     1       0.779  13.707  19.983  0.00  0.00    +0.000 C 
ATOM     11  O   UNL     1      -0.127  13.970  20.770  0.00  0.00    +0.000 OA
ATOM     12  H   UNL     1       1.589  12.337  18.674  0.00  0.00    +0.000 HD
BRANCH  10  13
ATOM     13  C   UNL     1       1.856  14.630  19.696  0.00  0.00    +0.000 A 
ATOM     14  C   UNL     1       1.879  15.986  19.960  0.00  0.00    +0.000 A 
ATOM     15  N   UNL     1       3.057  16.635  19.654  0.00  0.00    +0.000 NA
ATOM     16  C   UNL     1       3.907  15.776  19.159  0.00  0.00    +0.000 A 
ATOM     17  N   UNL     1       5.204  15.974  18.783  0.00  0.00    +0.000 N 
ATOM     18  C   UNL     1       5.872  17.141  19.102  0.00  0.00    +0.000 C 
ATOM     19  O   UNL     1       5.441  18.094  19.746  0.00  0.00    +0.000 OA
ATOM     20  S   UNL     1       3.341  14.179  18.957  0.00  0.00    +0.000 S 
ATOM     21  H   UNL     1       5.690  15.198  18.359  0.00  0.00    +0.000 HD
BRANCH  18  22
ATOM     22  C   UNL     1       7.305  17.177  18.578  0.00  0.00    +0.000 C 
BRANCH  22  23
ATOM     23  O   UNL     1       8.140  16.252  19.262  0.00  0.00    +0.000 OA
ATOM     24  H   UNL     1       8.215  15.473  18.670  0.00  0.00    +0.000 HD
ENDBRANCH  22  23
ENDBRANCH  18  22
ENDBRANCH  10  13
ENDBRANCH   7   9
ENDBRANCH   4   7
BRANCH   1  25
ATOM     25  O   UNL     1       2.549   6.546  20.334  0.00  0.00    +0.000 OA
BRANCH  25  28
ATOM     26  N   UNL     1       3.161   4.531  18.053  0.00  0.00    +0.000 N 
ATOM     27  C   UNL     1       2.032   5.414  18.150  0.00  0.00    +0.000 C 
ATOM     28  C   UNL     1       2.115   5.327  19.673  0.00  0.00    +0.000 C 
ATOM     29  C   UNL     1       3.186   4.252  19.462  0.00  0.00    +0.000 C 
BRANCH  26  33
ATOM     30  C   UNL     1       6.468   5.111  15.471  0.00  0.00    +0.000 A 
ATOM     31  C   UNL     1       5.952   6.180  16.203  0.00  0.00    +0.000 A 
ATOM     32  C   UNL     1       4.877   5.989  17.077  0.00  0.00    +0.000 A 
ATOM     33  C   UNL     1       4.281   4.732  17.214  0.00  0.00    +0.000 A 
ATOM     34  C   UNL     1       4.824   3.663  16.488  0.00  0.00    +0.000 A 
ATOM     35  C   UNL     1       5.894   3.851  15.607  0.00  0.00    +0.000 A 
BRANCH  30  36
ATOM     36  O   UNL     1       7.522   5.416  14.658  0.00  0.00    +0.000 OA
BRANCH  36  38
ATOM     37  C   UNL     1       8.112   5.757  12.381  0.00  0.00    +0.000 C 
ATOM     38  C   UNL     1       7.531   4.777  13.381  0.00  0.00    +0.000 C 
ENDBRANCH  36  38
ENDBRANCH  30  36
ENDBRANCH  26  33
ENDBRANCH  25  28
ENDBRANCH   1  25
TORSDOF 10
ENDMDL
MODEL 9
REMARK VINA RESULT:      -7.3      3.598      5.629
REMARK  Name = 
REMARK  12 active torsions:
REMARK  status: ('A' for Active; 'I' for Inactive)
REMARK    1  A    between atoms: C_1  and  C_2
REMARK    2  A    between atoms: C_2  and  O_3
REMARK    3  A    between atoms: O_3  and  C_4
REMARK    4  A    between atoms: C_7  and  N_8
REMARK    5  A    between atoms: C_10  and  O_11
REMARK    6  A    between atoms: O_11  and  C_12
REMARK    7  A    between atoms: C_15  and  C_16
REMARK    8  A    between atoms: C_16  and  C_17
REMARK    9  A    between atoms: C_16  and  N_18
REMARK   10  A    between atoms: C_19  and  C_21
REMARK   11  A    between atoms: C_26  and  C_28
REMARK   12  A    between atoms: C_28  and  O_29
REMARK                            x       y       z     vdW  Elec       q    Type
REMARK                         _______ _______ _______ _____ _____    ______ ____
ROOT
ATOM      1  C   UNL     1       2.316   7.230  19.824  0.00  0.00    +0.000 A 
ATOM      2  C   UNL     1       2.304   7.919  18.615  0.00  0.00    +0.000 A 
ATOM      3  C   UNL     1       1.538   9.075  18.484  0.00  0.00    +0.000 A 
ATOM      4  C   UNL     1       0.762   9.547  19.555  0.00  0.00    +0.000 A 
ATOM      5  C   UNL     1       0.728   8.798  20.743  0.00  0.00    +0.000 A 
ATOM      6  C   UNL     1       1.497   7.641  20.873  0.00  0.00    +0.000 A 
ENDROOT
BRANCH   4   7
ATOM      7  C   UNL     1       0.003  10.852  19.409  0.00  0.00    +0.000 C 
ATOM      8  C   UNL     1      -0.973  10.798  18.231  0.00  0.00    +0.000 C 
BRANCH   7   9
ATOM      9  N   UNL     1       0.926  11.961  19.273  0.00  0.00    +0.000 N 
ATOM     10  C   UNL     1       0.636  13.223  19.745  0.00  0.00    +0.000 C 
ATOM     11  O   UNL     1      -0.418  13.465  20.328  0.00  0.00    +0.000 OA
ATOM     12  H   UNL     1       1.793  11.818  18.777  0.00  0.00    +0.000 HD
BRANCH  10  13
ATOM     13  C   UNL     1       1.657  14.225  19.528  0.00  0.00    +0.000 A 
ATOM     14  C   UNL     1       1.579  15.569  19.837  0.00  0.00    +0.000 A 
ATOM     15  N   UNL     1       2.720  16.306  19.596  0.00  0.00    +0.000 NA
ATOM     16  C   UNL     1       3.643  15.524  19.104  0.00  0.00    +0.000 A 
ATOM     17  N   UNL     1       4.935  15.822  18.782  0.00  0.00    +0.000 N 
ATOM     18  C   UNL     1       5.511  17.018  19.164  0.00  0.00    +0.000 C 
ATOM     19  O   UNL     1       4.994  17.917  19.823  0.00  0.00    +0.000 OA
ATOM     20  S   UNL     1       3.194  13.901  18.828  0.00  0.00    +0.000 S 
ATOM     21  H   UNL     1       5.487  15.096  18.350  0.00  0.00    +0.000 HD
BRANCH  18  22
ATOM     22  C   UNL     1       6.956  17.169  18.694  0.00  0.00    +0.000 C 
BRANCH  22  23
ATOM     23  O   UNL     1       7.613  18.245  19.347  0.00  0.00    +0.000 OA
ATOM     24  H   UNL     1       7.731  17.960  20.279  0.00  0.00    +0.000 HD
ENDBRANCH  22  23
ENDBRANCH  18  22
ENDBRANCH  10  13
ENDBRANCH   7   9
ENDBRANCH   4   7
BRANCH   1  25
ATOM     25  O   UNL     1       3.112   6.141  20.063  0.00  0.00    +0.000 OA
BRANCH  25  28
ATOM     26  N   UNL     1       3.790   4.246  17.699  0.00  0.00    +0.000 N 
ATOM     27  C   UNL     1       2.592   5.019  17.874  0.00  0.00    +0.000 C 
ATOM     28  C   UNL     1       2.758   4.904  19.389  0.00  0.00    +0.000 C 
ATOM     29  C   UNL     1       3.910   3.937  19.097  0.00  0.00    +0.000 C 
BRANCH  26  33
ATOM     30  C   UNL     1       7.003   5.175  15.101  0.00  0.00    +0.000 A 
ATOM     31  C   UNL     1       5.992   4.309  14.687  0.00  0.00    +0.000 A 
ATOM     32  C   UNL     1       4.914   4.019  15.530  0.00  0.00    +0.000 A 
ATOM     33  C   UNL     1       4.843   4.568  16.814  0.00  0.00    +0.000 A 
ATOM     34  C   UNL     1       5.856   5.454  17.208  0.00  0.00    +0.000 A 
ATOM     35  C   UNL     1       6.938   5.740  16.371  0.00  0.00    +0.000 A 
BRANCH  30  36
ATOM     36  O   UNL     1       7.997   5.389  14.190  0.00  0.00    +0.000 OA
BRANCH  36  38
ATOM     37  C   UNL     1       8.003   6.068  11.913  0.00  0.00    +0.000 C 
ATOM     38  C   UNL     1       7.743   4.919  12.867  0.00  0.00    +0.000 C 
ENDBRANCH  36  38
ENDBRANCH  30  36
ENDBRANCH  26  33
ENDBRANCH  25  28
ENDBRANCH   1  25
TORSDOF 10
ENDMDL
