MODEL 1
REMARK VINA RESULT:      -9.4      0.000      0.000
REMARK  Name = 
REMARK  7 active torsions:
REMARK  status: ('A' for Active; 'I' for Inactive)
REMARK    1  A    between atoms: C_1  and  C_2
REMARK    2  A    between atoms: C_2  and  C_3
REMARK    3  A    between atoms: C_5  and  C_6
REMARK    4  A    between atoms: C_9  and  C_10
REMARK    5  A    between atoms: N_22  and  C_23
REMARK    6  A    between atoms: C_23  and  C_24
REMARK    7  A    between atoms: C_28  and  C_30
REMARK                            x       y       z     vdW  Elec       q    Type
REMARK                         _______ _______ _______ _____ _____    ______ ____
ROOT
ATOM      1  C   UNL     1       1.810   1.906  19.741  0.00  0.00    +0.000 C 
ATOM      2  C   UNL     1       2.531   2.955  18.912  0.00  0.00    +0.000 C 
ATOM      3  C   UNL     1       2.579   2.564  17.434  0.00  0.00    +0.000 C 
ATOM      4  N   UNL     1       1.848   4.261  19.007  0.00  0.00    +0.000 NA
ATOM      5  C   UNL     1       2.797   5.156  19.091  0.00  0.00    +0.000 C 
ATOM      6  N   UNL     1       4.067   4.643  19.134  0.00  0.00    +0.000 N 
ATOM      7  C   UNL     1       3.920   3.302  19.401  0.00  0.00    +0.000 C 
ATOM      8  O   UNL     1       4.714   2.547  19.939  0.00  0.00    +0.000 OA
ENDROOT
BRANCH   5   9
ATOM      9  C   UNL     1       2.402   6.606  19.163  0.00  0.00    +0.000 A 
ATOM     10  C   UNL     1       2.600   7.340  17.983  0.00  0.00    +0.000 A 
ATOM     11  C   UNL     1       2.247   8.687  17.887  0.00  0.00    +0.000 A 
ATOM     12  C   UNL     1       1.652   9.364  18.958  0.00  0.00    +0.000 A 
ATOM     13  C   UNL     1       1.486   8.649  20.148  0.00  0.00    +0.000 A 
ATOM     14  C   UNL     1       1.837   7.290  20.245  0.00  0.00    +0.000 A 
BRANCH  12  15
ATOM     15  C   UNL     1       1.078  10.707  18.767  0.00  0.00    +0.000 A 
ATOM     16  C   UNL     1      -0.317  10.855  18.814  0.00  0.00    +0.000 A 
ATOM     17  C   UNL     1      -0.910  12.109  18.816  0.00  0.00    +0.000 A 
ATOM     18  C   UNL     1      -0.109  13.249  18.787  0.00  0.00    +0.000 A 
ATOM     19  C   UNL     1      -0.683  14.512  18.957  0.00  0.00    +0.000 A 
ATOM     20  C   UNL     1       0.126  15.635  18.934  0.00  0.00    +0.000 A 
ATOM     21  C   UNL     1       1.474  15.455  18.690  0.00  0.00    +0.000 A 
ATOM     22  N   UNL     1       2.066  14.246  18.548  0.00  0.00    +0.000 NA
ATOM     23  C   UNL     1       1.289  13.149  18.636  0.00  0.00    +0.000 A 
ATOM     24  C   UNL     1       1.857  11.873  18.632  0.00  0.00    +0.000 A 
ENDBRANCH  12  15
ENDBRANCH   5   9
BRANCH   6  25
ATOM     25  C   UNL     1       5.354   5.316  19.263  0.00  0.00    +0.000 C 
BRANCH  25  26
ATOM     26  C   UNL     1       6.230   5.425  17.999  0.00  0.00    +0.000 C 
ATOM     27  C   UNL     1       7.693   5.070  18.318  0.00  0.00    +0.000 C 
ATOM     28  C   UNL     1       8.320   6.382  18.772  0.00  0.00    +0.000 C 
ATOM     29  N   UNL     1       7.559   7.405  18.082  0.00  0.00    +0.000 N 
ATOM     30  C   UNL     1       7.899   8.730  17.880  0.00  0.00    +0.000 C 
ATOM     31  O   UNL     1       7.214   9.478  17.197  0.00  0.00    +0.000 OA
ATOM     32  C   UNL     1       6.350   6.861  17.480  0.00  0.00    +0.000 C 
BRANCH  30  33
ATOM     33  C   UNL     1       9.126   9.266  18.557  0.00  0.00    +0.000 C 
ATOM     34  C   UNL     1       9.537  10.710  18.353  0.00  0.00    +0.000 C 
ATOM     35  C   UNL     1       8.964  10.281  19.672  0.00  0.00    +0.000 C 
ENDBRANCH  30  33
ENDBRANCH  25  26
ENDBRANCH   6  25
TORSDOF 5
ENDMDL
MODEL 2
REMARK VINA RESULT:      -8.9      1.316      1.364
REMARK  Name = 
REMARK  7 active torsions:
REMARK  status: ('A' for Active; 'I' for Inactive)
REMARK    1  A    between atoms: C_1  and  C_2
REMARK    2  A    between atoms: C_2  and  C_3
REMARK    3  A    between atoms: C_5  and  C_6
REMARK    4  A    between atoms: C_9  and  C_10
REMARK    5  A    between atoms: N_22  and  C_23
REMARK    6  A    between atoms: C_23  and  C_24
REMARK    7  A    between atoms: C_28  and  C_30
REMARK                            x       y       z     vdW  Elec       q    Type
REMARK                         _______ _______ _______ _____ _____    ______ ____
ROOT
ATOM      1  C   UNL     1       1.888   1.874  19.279  0.00  0.00    +0.000 C 
ATOM      2  C   UNL     1       2.501   3.085  18.598  0.00  0.00    +0.000 C 
ATOM      3  C   UNL     1       2.476   2.943  17.075  0.00  0.00    +0.000 C 
ATOM      4  N   UNL     1       1.761   4.315  18.945  0.00  0.00    +0.000 NA
ATOM      5  C   UNL     1       2.668   5.240  19.125  0.00  0.00    +0.000 C 
ATOM      6  N   UNL     1       3.963   4.803  19.014  0.00  0.00    +0.000 N 
ATOM      7  C   UNL     1       3.899   3.431  19.062  0.00  0.00    +0.000 C 
ATOM      8  O   UNL     1       4.762   2.647  19.424  0.00  0.00    +0.000 OA
ENDROOT
BRANCH   5   9
ATOM      9  C   UNL     1       2.206   6.632  19.459  0.00  0.00    +0.000 A 
ATOM     10  C   UNL     1       2.205   7.535  18.384  0.00  0.00    +0.000 A 
ATOM     11  C   UNL     1       1.768   8.853  18.531  0.00  0.00    +0.000 A 
ATOM     12  C   UNL     1       1.283   9.329  19.755  0.00  0.00    +0.000 A 
ATOM     13  C   UNL     1       1.317   8.446  20.839  0.00  0.00    +0.000 A 
ATOM     14  C   UNL     1       1.753   7.116  20.691  0.00  0.00    +0.000 A 
BRANCH  12  15
ATOM     15  C   UNL     1       0.616  10.640  19.836  0.00  0.00    +0.000 A 
ATOM     16  C   UNL     1      -0.443  10.909  18.957  0.00  0.00    +0.000 A 
ATOM     17  C   UNL     1      -1.224  12.048  19.094  0.00  0.00    +0.000 A 
ATOM     18  C   UNL     1      -0.965  12.938  20.135  0.00  0.00    +0.000 A 
ATOM     19  C   UNL     1      -1.842  13.996  20.386  0.00  0.00    +0.000 A 
ATOM     20  C   UNL     1      -1.577  14.867  21.428  0.00  0.00    +0.000 A 
ATOM     21  C   UNL     1      -0.414  14.676  22.149  0.00  0.00    +0.000 A 
ATOM     22  N   UNL     1       0.443  13.647  21.950  0.00  0.00    +0.000 NA
ATOM     23  C   UNL     1       0.150  12.761  20.979  0.00  0.00    +0.000 A 
ATOM     24  C   UNL     1       0.920  11.608  20.813  0.00  0.00    +0.000 A 
ENDBRANCH  12  15
ENDBRANCH   5   9
BRANCH   6  25
ATOM     25  C   UNL     1       5.219   5.522  19.184  0.00  0.00    +0.000 C 
BRANCH  25  26
ATOM     26  C   UNL     1       6.173   5.583  17.974  0.00  0.00    +0.000 C 
ATOM     27  C   UNL     1       7.602   5.186  18.385  0.00  0.00    +0.000 C 
ATOM     28  C   UNL     1       8.243   6.484  18.859  0.00  0.00    +0.000 C 
ATOM     29  N   UNL     1       7.560   7.520  18.109  0.00  0.00    +0.000 N 
ATOM     30  C   UNL     1       7.954   8.830  17.911  0.00  0.00    +0.000 C 
ATOM     31  O   UNL     1       7.338   9.589  17.177  0.00  0.00    +0.000 OA
ATOM     32  C   UNL     1       6.372   7.006  17.444  0.00  0.00    +0.000 C 
BRANCH  30  33
ATOM     33  C   UNL     1       9.156   9.336  18.654  0.00  0.00    +0.000 C 
ATOM     34  C   UNL     1       9.748  10.688  18.310  0.00  0.00    +0.000 C 
ATOM     35  C   UNL     1       8.994  10.514  19.595  0.00  0.00    +0.000 C 
ENDBRANCH  30  33
ENDBRANCH  25  26
ENDBRANCH   6  25
TORSDOF 5
ENDMDL
MODEL 3
REMARK VINA RESULT:      -8.8      1.908      2.327
REMARK  Name = 
REMARK  7 active torsions:
REMARK  status: ('A' for Active; 'I' for Inactive)
REMARK    1  A    between atoms: C_1  and  C_2
REMARK    2  A    between atoms: C_2  and  C_3
REMARK    3  A    between atoms: C_5  and  C_6
REMARK    4  A    between atoms: C_9  and  C_10
REMARK    5  A    between atoms: N_22  and  C_23
REMARK    6  A    between atoms: C_23  and  C_24
REMARK    7  A    between atoms: C_28  and  C_30
REMARK                            x       y       z     vdW  Elec       q    Type
REMARK                         _______ _______ _______ _____ _____    ______ ____
ROOT
ATOM      1  C   UNL     1       2.150   1.854  19.448  0.00  0.00    +0.000 C 
ATOM      2  C   UNL     1       2.678   3.072  18.712  0.00  0.00    +0.000 C 
ATOM      3  C   UNL     1       2.658   2.864  17.196  0.00  0.00    +0.000 C 
ATOM      4  N   UNL     1       1.858   4.264  19.010  0.00  0.00    +0.000 NA
ATOM      5  C   UNL     1       2.700   5.254  19.145  0.00  0.00    +0.000 C 
ATOM      6  N   UNL     1       4.021   4.902  19.045  0.00  0.00    +0.000 N 
ATOM      7  C   UNL     1       4.051   3.532  19.153  0.00  0.00    +0.000 C 
ATOM      8  O   UNL     1       4.966   2.824  19.543  0.00  0.00    +0.000 OA
ENDROOT
BRANCH   5   9
ATOM      9  C   UNL     1       2.146   6.626  19.420  0.00  0.00    +0.000 A 
ATOM     10  C   UNL     1       1.587   6.799  20.696  0.00  0.00    +0.000 A 
ATOM     11  C   UNL     1       1.066   8.027  21.110  0.00  0.00    +0.000 A 
ATOM     12  C   UNL     1       1.101   9.152  20.279  0.00  0.00    +0.000 A 
ATOM     13  C   UNL     1       1.622   8.977  18.994  0.00  0.00    +0.000 A 
ATOM     14  C   UNL     1       2.152   7.742  18.577  0.00  0.00    +0.000 A 
BRANCH  12  15
ATOM     15  C   UNL     1       0.762  10.484  20.810  0.00  0.00    +0.000 A 
ATOM     16  C   UNL     1       1.332  11.614  20.202  0.00  0.00    +0.000 A 
ATOM     17  C   UNL     1       0.923  12.896  20.536  0.00  0.00    +0.000 A 
ATOM     18  C   UNL     1      -0.085  13.072  21.482  0.00  0.00    +0.000 A 
ATOM     19  C   UNL     1      -0.622  14.343  21.705  0.00  0.00    +0.000 A 
ATOM     20  C   UNL     1      -1.629  14.502  22.642  0.00  0.00    +0.000 A 
ATOM     21  C   UNL     1      -2.026  13.389  23.358  0.00  0.00    +0.000 A 
ATOM     22  N   UNL     1      -1.547  12.140  23.148  0.00  0.00    +0.000 NA
ATOM     23  C   UNL     1      -0.614  11.974  22.191  0.00  0.00    +0.000 A 
ATOM     24  C   UNL     1      -0.179  10.696  21.836  0.00  0.00    +0.000 A 
ENDBRANCH  12  15
ENDBRANCH   5   9
BRANCH   6  25
ATOM     25  C   UNL     1       5.226   5.711  19.177  0.00  0.00    +0.000 C 
BRANCH  25  26
ATOM     26  C   UNL     1       6.188   5.756  17.972  0.00  0.00    +0.000 C 
ATOM     27  C   UNL     1       7.608   5.338  18.392  0.00  0.00    +0.000 C 
ATOM     28  C   UNL     1       8.266   6.627  18.868  0.00  0.00    +0.000 C 
ATOM     29  N   UNL     1       7.602   7.672  18.113  0.00  0.00    +0.000 N 
ATOM     30  C   UNL     1       8.017   8.976  17.914  0.00  0.00    +0.000 C 
ATOM     31  O   UNL     1       7.416   9.742  17.176  0.00  0.00    +0.000 OA
ATOM     32  C   UNL     1       6.410   7.175  17.441  0.00  0.00    +0.000 C 
BRANCH  30  33
ATOM     33  C   UNL     1       9.222   9.466  18.663  0.00  0.00    +0.000 C 
ATOM     34  C   UNL     1       9.674  10.904  18.516  0.00  0.00    +0.000 C 
ATOM     35  C   UNL     1       9.029  10.457  19.795  0.00  0.00    +0.000 C 
ENDBRANCH  30  33
ENDBRANCH  25  26
ENDBRANCH   6  25
TORSDOF 5
ENDMDL
MODEL 4
REMARK VINA RESULT:      -8.8      4.215     10.665
REMARK  Name = 
REMARK  7 active torsions:
REMARK  status: ('A' for Active; 'I' for Inactive)
REMARK    1  A    between atoms: C_1  and  C_2
REMARK    2  A    between atoms: C_2  and  C_3
REMARK    3  A    between atoms: C_5  and  C_6
REMARK    4  A    between atoms: C_9  and  C_10
REMARK    5  A    between atoms: N_22  and  C_23
REMARK    6  A    between atoms: C_23  and  C_24
REMARK    7  A    between atoms: C_28  and  C_30
REMARK                            x       y       z     vdW  Elec       q    Type
REMARK                         _______ _______ _______ _____ _____    ______ ____
ROOT
ATOM      1  C   UNL     1       2.236  15.445  20.559  0.00  0.00    +0.000 C 
ATOM      2  C   UNL     1       1.923  14.582  19.349  0.00  0.00    +0.000 C 
ATOM      3  C   UNL     1       2.690  15.053  18.112  0.00  0.00    +0.000 C 
ATOM      4  N   UNL     1       2.295  13.174  19.596  0.00  0.00    +0.000 NA
ATOM      5  C   UNL     1       1.337  12.453  19.074  0.00  0.00    +0.000 C 
ATOM      6  N   UNL     1       0.299  13.175  18.545  0.00  0.00    +0.000 N 
ATOM      7  C   UNL     1       0.450  14.454  19.027  0.00  0.00    +0.000 C 
ATOM      8  O   UNL     1      -0.409  15.306  19.192  0.00  0.00    +0.000 OA
ENDROOT
BRANCH   5   9
ATOM      9  C   UNL     1       1.459  10.955  19.139  0.00  0.00    +0.000 A 
ATOM     10  C   UNL     1       1.998  10.348  17.994  0.00  0.00    +0.000 A 
ATOM     11  C   UNL     1       2.205   8.970  17.920  0.00  0.00    +0.000 A 
ATOM     12  C   UNL     1       1.910   8.129  19.000  0.00  0.00    +0.000 A 
ATOM     13  C   UNL     1       1.338   8.721  20.130  0.00  0.00    +0.000 A 
ATOM     14  C   UNL     1       1.133  10.112  20.207  0.00  0.00    +0.000 A 
BRANCH  12  15
ATOM     15  C   UNL     1       2.346   6.722  18.992  0.00  0.00    +0.000 A 
ATOM     16  C   UNL     1       3.155   6.275  17.936  0.00  0.00    +0.000 A 
ATOM     17  C   UNL     1       3.741   5.018  17.957  0.00  0.00    +0.000 A 
ATOM     18  C   UNL     1       3.539   4.183  19.054  0.00  0.00    +0.000 A 
ATOM     19  C   UNL     1       4.254   2.988  19.165  0.00  0.00    +0.000 A 
ATOM     20  C   UNL     1       4.049   2.172  20.265  0.00  0.00    +0.000 A 
ATOM     21  C   UNL     1       3.097   2.560  21.188  0.00  0.00    +0.000 A 
ATOM     22  N   UNL     1       2.406   3.723  21.125  0.00  0.00    +0.000 NA
ATOM     23  C   UNL     1       2.654   4.548  20.089  0.00  0.00    +0.000 A 
ATOM     24  C   UNL     1       2.075   5.817  20.037  0.00  0.00    +0.000 A 
ENDBRANCH  12  15
ENDBRANCH   5   9
BRANCH   6  25
ATOM     25  C   UNL     1      -0.941  12.729  17.923  0.00  0.00    +0.000 C 
BRANCH  25  26
ATOM     26  C   UNL     1      -1.641  11.498  18.535  0.00  0.00    +0.000 C 
ATOM     27  C   UNL     1      -2.237  10.606  17.433  0.00  0.00    +0.000 C 
ATOM     28  C   UNL     1      -3.627  11.176  17.182  0.00  0.00    +0.000 C 
ATOM     29  N   UNL     1      -4.010  11.765  18.451  0.00  0.00    +0.000 N 
ATOM     30  C   UNL     1      -5.275  12.128  18.875  0.00  0.00    +0.000 C 
ATOM     31  O   UNL     1      -5.487  12.532  20.009  0.00  0.00    +0.000 OA
ATOM     32  C   UNL     1      -2.878  11.865  19.360  0.00  0.00    +0.000 C 
BRANCH  30  33
ATOM     33  C   UNL     1      -6.408  12.057  17.893  0.00  0.00    +0.000 C 
ATOM     34  C   UNL     1      -7.596  12.986  18.036  0.00  0.00    +0.000 C 
ATOM     35  C   UNL     1      -6.612  13.207  16.925  0.00  0.00    +0.000 C 
ENDBRANCH  30  33
ENDBRANCH  25  26
ENDBRANCH   6  25
TORSDOF 5
ENDMDL
MODEL 5
REMARK VINA RESULT:      -8.7      3.481      8.495
REMARK  Name = 
REMARK  7 active torsions:
REMARK  status: ('A' for Active; 'I' for Inactive)
REMARK    1  A    between atoms: C_1  and  C_2
REMARK    2  A    between atoms: C_2  and  C_3
REMARK    3  A    between atoms: C_5  and  C_6
REMARK    4  A    between atoms: C_9  and  C_10
REMARK    5  A    between atoms: N_22  and  C_23
REMARK    6  A    between atoms: C_23  and  C_24
REMARK    7  A    between atoms: C_28  and  C_30
REMARK                            x       y       z     vdW  Elec       q    Type
REMARK                         _______ _______ _______ _____ _____    ______ ____
ROOT
ATOM      1  C   UNL     1      -2.981  12.763  20.525  0.00  0.00    +0.000 C 
ATOM      2  C   UNL     1      -1.522  12.535  20.879  0.00  0.00    +0.000 C 
ATOM      3  C   UNL     1      -1.267  12.753  22.371  0.00  0.00    +0.000 C 
ATOM      4  N   UNL     1      -1.110  11.155  20.550  0.00  0.00    +0.000 NA
ATOM      5  C   UNL     1       0.092  11.251  20.045  0.00  0.00    +0.000 C 
ATOM      6  N   UNL     1       0.558  12.533  19.911  0.00  0.00    +0.000 N 
ATOM      7  C   UNL     1      -0.540  13.347  20.062  0.00  0.00    +0.000 C 
ATOM      8  O   UNL     1      -0.714  14.471  19.619  0.00  0.00    +0.000 OA
ENDROOT
BRANCH   5   9
ATOM      9  C   UNL     1       0.797   9.984  19.644  0.00  0.00    +0.000 A 
ATOM     10  C   UNL     1       1.084   9.866  18.275  0.00  0.00    +0.000 A 
ATOM     11  C   UNL     1       1.767   8.763  17.759  0.00  0.00    +0.000 A 
ATOM     12  C   UNL     1       2.223   7.733  18.589  0.00  0.00    +0.000 A 
ATOM     13  C   UNL     1       1.908   7.825  19.949  0.00  0.00    +0.000 A 
ATOM     14  C   UNL     1       1.224   8.939  20.471  0.00  0.00    +0.000 A 
BRANCH  12  15
ATOM     15  C   UNL     1       3.135   6.700  18.068  0.00  0.00    +0.000 A 
ATOM     16  C   UNL     1       2.787   5.351  18.235  0.00  0.00    +0.000 A 
ATOM     17  C   UNL     1       3.508   4.338  17.620  0.00  0.00    +0.000 A 
ATOM     18  C   UNL     1       4.591   4.662  16.805  0.00  0.00    +0.000 A 
ATOM     19  C   UNL     1       5.220   3.669  16.049  0.00  0.00    +0.000 A 
ATOM     20  C   UNL     1       6.289   4.007  15.237  0.00  0.00    +0.000 A 
ATOM     21  C   UNL     1       6.722   5.319  15.252  0.00  0.00    +0.000 A 
ATOM     22  N   UNL     1       6.120   6.310  15.951  0.00  0.00    +0.000 NA
ATOM     23  C   UNL     1       5.038   5.994  16.689  0.00  0.00    +0.000 A 
ATOM     24  C   UNL     1       4.296   6.991  17.325  0.00  0.00    +0.000 A 
ENDBRANCH  12  15
ENDBRANCH   5   9
BRANCH   6  25
ATOM     25  C   UNL     1       1.813  13.029  19.361  0.00  0.00    +0.000 C 
BRANCH  25  26
ATOM     26  C   UNL     1       2.201  14.488  19.678  0.00  0.00    +0.000 C 
ATOM     27  C   UNL     1       2.353  15.305  18.383  0.00  0.00    +0.000 C 
ATOM     28  C   UNL     1       3.800  15.093  17.958  0.00  0.00    +0.000 C 
ATOM     29  N   UNL     1       4.510  14.853  19.199  0.00  0.00    +0.000 N 
ATOM     30  C   UNL     1       5.872  14.919  19.429  0.00  0.00    +0.000 C 
ATOM     31  O   UNL     1       6.347  14.787  20.547  0.00  0.00    +0.000 OA
ATOM     32  C   UNL     1       3.594  14.611  20.304  0.00  0.00    +0.000 C 
BRANCH  30  33
ATOM     33  C   UNL     1       6.787  15.120  18.257  0.00  0.00    +0.000 C 
ATOM     34  C   UNL     1       8.260  14.786  18.377  0.00  0.00    +0.000 C 
ATOM     35  C   UNL     1       7.364  13.904  17.559  0.00  0.00    +0.000 C 
ENDBRANCH  30  33
ENDBRANCH  25  26
ENDBRANCH   6  25
TORSDOF 5
ENDMDL
MODEL 6
REMARK VINA RESULT:      -8.5      3.937      8.665
REMARK  Name = 
REMARK  7 active torsions:
REMARK  status: ('A' for Active; 'I' for Inactive)
REMARK    1  A    between atoms: C_1  and  C_2
REMARK    2  A    between atoms: C_2  and  C_3
REMARK    3  A    between atoms: C_5  and  C_6
REMARK    4  A    between atoms: C_9  and  C_10
REMARK    5  A    between atoms: N_22  and  C_23
REMARK    6  A    between atoms: C_23  and  C_24
REMARK    7  A    between atoms: C_28  and  C_30
REMARK                            x       y       z     vdW  Elec       q    Type
REMARK                         _______ _______ _______ _____ _____    ______ ____
ROOT
ATOM      1  C   UNL     1      -3.187  12.694  20.519  0.00  0.00    +0.000 C 
ATOM      2  C   UNL     1      -1.787  12.409  21.035  0.00  0.00    +0.000 C 
ATOM      3  C   UNL     1      -1.731  12.466  22.563  0.00  0.00    +0.000 C 
ATOM      4  N   UNL     1      -1.338  11.064  20.621  0.00  0.00    +0.000 NA
ATOM      5  C   UNL     1      -0.080  11.193  20.290  0.00  0.00    +0.000 C 
ATOM      6  N   UNL     1       0.402  12.474  20.354  0.00  0.00    +0.000 N 
ATOM      7  C   UNL     1      -0.705  13.285  20.444  0.00  0.00    +0.000 C 
ATOM      8  O   UNL     1      -0.817  14.452  20.101  0.00  0.00    +0.000 OA
ENDROOT
BRANCH   5   9
ATOM      9  C   UNL     1       0.670   9.963  19.854  0.00  0.00    +0.000 A 
ATOM     10  C   UNL     1       0.996   9.913  18.490  0.00  0.00    +0.000 A 
ATOM     11  C   UNL     1       1.722   8.852  17.946  0.00  0.00    +0.000 A 
ATOM     12  C   UNL     1       2.184   7.798  18.743  0.00  0.00    +0.000 A 
ATOM     13  C   UNL     1       1.830   7.823  20.096  0.00  0.00    +0.000 A 
ATOM     14  C   UNL     1       1.102   8.894  20.647  0.00  0.00    +0.000 A 
BRANCH  12  15
ATOM     15  C   UNL     1       3.137   6.813  18.203  0.00  0.00    +0.000 A 
ATOM     16  C   UNL     1       3.065   5.489  18.661  0.00  0.00    +0.000 A 
ATOM     17  C   UNL     1       3.811   4.479  18.071  0.00  0.00    +0.000 A 
ATOM     18  C   UNL     1       4.639   4.779  16.990  0.00  0.00    +0.000 A 
ATOM     19  C   UNL     1       5.265   3.749  16.282  0.00  0.00    +0.000 A 
ATOM     20  C   UNL     1       6.077   4.060  15.205  0.00  0.00    +0.000 A 
ATOM     21  C   UNL     1       6.274   5.396  14.909  0.00  0.00    +0.000 A 
ATOM     22  N   UNL     1       5.663   6.415  15.557  0.00  0.00    +0.000 NA
ATOM     23  C   UNL     1       4.820   6.109  16.562  0.00  0.00    +0.000 A 
ATOM     24  C   UNL     1       4.059   7.104  17.179  0.00  0.00    +0.000 A 
ENDBRANCH  12  15
ENDBRANCH   5   9
BRANCH   6  25
ATOM     25  C   UNL     1       1.720  13.005  20.028  0.00  0.00    +0.000 C 
BRANCH  25  26
ATOM     26  C   UNL     1       1.868  13.775  18.700  0.00  0.00    +0.000 C 
ATOM     27  C   UNL     1       3.096  13.280  17.916  0.00  0.00    +0.000 C 
ATOM     28  C   UNL     1       4.255  14.117  18.442  0.00  0.00    +0.000 C 
ATOM     29  N   UNL     1       3.642  15.364  18.857  0.00  0.00    +0.000 N 
ATOM     30  C   UNL     1       4.258  16.576  19.104  0.00  0.00    +0.000 C 
ATOM     31  O   UNL     1       3.620  17.587  19.360  0.00  0.00    +0.000 OA
ATOM     32  C   UNL     1       2.190  15.259  18.905  0.00  0.00    +0.000 C 
BRANCH  30  33
ATOM     33  C   UNL     1       5.758  16.633  19.094  0.00  0.00    +0.000 C 
ATOM     34  C   UNL     1       6.482  17.709  19.876  0.00  0.00    +0.000 C 
ATOM     35  C   UNL     1       6.513  16.291  20.365  0.00  0.00    +0.000 C 
ENDBRANCH  30  33
ENDBRANCH  25  26
ENDBRANCH   6  25
TORSDOF 5
ENDMDL
MODEL 7
REMARK VINA RESULT:      -8.4      4.204     10.756
REMARK  Name = 
REMARK  7 active torsions:
REMARK  status: ('A' for Active; 'I' for Inactive)
REMARK    1  A    between atoms: C_1  and  C_2
REMARK    2  A    between atoms: C_2  and  C_3
REMARK    3  A    between atoms: C_5  and  C_6
REMARK    4  A    between atoms: C_9  and  C_10
REMARK    5  A    between atoms: N_22  and  C_23
REMARK    6  A    between atoms: C_23  and  C_24
REMARK    7  A    between atoms: C_28  and  C_30
REMARK                            x       y       z     vdW  Elec       q    Type
REMARK                         _______ _______ _______ _____ _____    ______ ____
ROOT
ATOM      1  C   UNL     1      -1.123  13.519  22.113  0.00  0.00    +0.000 C 
ATOM      2  C   UNL     1      -0.511  13.313  20.739  0.00  0.00    +0.000 C 
ATOM      3  C   UNL     1       0.317  14.525  20.308  0.00  0.00    +0.000 C 
ATOM      4  N   UNL     1       0.380  12.136  20.731  0.00  0.00    +0.000 NA
ATOM      5  C   UNL     1       0.161  11.528  19.594  0.00  0.00    +0.000 C 
ATOM      6  N   UNL     1      -0.823  12.091  18.823  0.00  0.00    +0.000 N 
ATOM      7  C   UNL     1      -1.502  12.951  19.654  0.00  0.00    +0.000 C 
ATOM      8  O   UNL     1      -2.659  13.330  19.567  0.00  0.00    +0.000 OA
ENDROOT
BRANCH   5   9
ATOM      9  C   UNL     1       0.965  10.296  19.281  0.00  0.00    +0.000 A 
ATOM     10  C   UNL     1       1.019   9.341  20.308  0.00  0.00    +0.000 A 
ATOM     11  C   UNL     1       1.696   8.130  20.152  0.00  0.00    +0.000 A 
ATOM     12  C   UNL     1       2.332   7.799  18.949  0.00  0.00    +0.000 A 
ATOM     13  C   UNL     1       2.313   8.761  17.935  0.00  0.00    +0.000 A 
ATOM     14  C   UNL     1       1.627   9.980  18.089  0.00  0.00    +0.000 A 
BRANCH  12  15
ATOM     15  C   UNL     1       2.839   6.434  18.722  0.00  0.00    +0.000 A 
ATOM     16  C   UNL     1       4.157   6.137  19.102  0.00  0.00    +0.000 A 
ATOM     17  C   UNL     1       4.638   4.836  19.078  0.00  0.00    +0.000 A 
ATOM     18  C   UNL     1       3.796   3.798  18.684  0.00  0.00    +0.000 A 
ATOM     19  C   UNL     1       4.213   2.470  18.814  0.00  0.00    +0.000 A 
ATOM     20  C   UNL     1       3.362   1.449  18.427  0.00  0.00    +0.000 A 
ATOM     21  C   UNL     1       2.144   1.797  17.876  0.00  0.00    +0.000 A 
ATOM     22  N   UNL     1       1.698   3.070  17.760  0.00  0.00    +0.000 NA
ATOM     23  C   UNL     1       2.499   4.061  18.198  0.00  0.00    +0.000 A 
ATOM     24  C   UNL     1       2.044   5.381  18.230  0.00  0.00    +0.000 A 
ENDBRANCH  12  15
ENDBRANCH   5   9
BRANCH   6  25
ATOM     25  C   UNL     1      -1.365  11.678  17.535  0.00  0.00    +0.000 C 
BRANCH  25  26
ATOM     26  C   UNL     1      -2.317  10.465  17.519  0.00  0.00    +0.000 C 
ATOM     27  C   UNL     1      -3.028  10.348  16.160  0.00  0.00    +0.000 C 
ATOM     28  C   UNL     1      -4.268  11.222  16.295  0.00  0.00    +0.000 C 
ATOM     29  N   UNL     1      -4.583  11.188  17.710  0.00  0.00    +0.000 N 
ATOM     30  C   UNL     1      -5.769  11.536  18.329  0.00  0.00    +0.000 C 
ATOM     31  O   UNL     1      -5.946  11.376  19.527  0.00  0.00    +0.000 OA
ATOM     32  C   UNL     1      -3.492  10.618  18.489  0.00  0.00    +0.000 C 
BRANCH  30  33
ATOM     33  C   UNL     1      -6.850  12.167  17.501  0.00  0.00    +0.000 C 
ATOM     34  C   UNL     1      -7.786  13.183  18.121  0.00  0.00    +0.000 C 
ATOM     35  C   UNL     1      -6.740  13.637  17.146  0.00  0.00    +0.000 C 
ENDBRANCH  30  33
ENDBRANCH  25  26
ENDBRANCH   6  25
TORSDOF 5
ENDMDL
MODEL 8
REMARK VINA RESULT:      -8.3      2.004      3.130
REMARK  Name = 
REMARK  7 active torsions:
REMARK  status: ('A' for Active; 'I' for Inactive)
REMARK    1  A    between atoms: C_1  and  C_2
REMARK    2  A    between atoms: C_2  and  C_3
REMARK    3  A    between atoms: C_5  and  C_6
REMARK    4  A    between atoms: C_9  and  C_10
REMARK    5  A    between atoms: N_22  and  C_23
REMARK    6  A    between atoms: C_23  and  C_24
REMARK    7  A    between atoms: C_28  and  C_30
REMARK                            x       y       z     vdW  Elec       q    Type
REMARK                         _______ _______ _______ _____ _____    ______ ____
ROOT
ATOM      1  C   UNL     1       2.023   2.210  19.761  0.00  0.00    +0.000 C 
ATOM      2  C   UNL     1       2.789   3.220  18.923  0.00  0.00    +0.000 C 
ATOM      3  C   UNL     1       3.056   2.690  17.513  0.00  0.00    +0.000 C 
ATOM      4  N   UNL     1       2.029   4.479  18.792  0.00  0.00    +0.000 NA
ATOM      5  C   UNL     1       2.909   5.441  18.900  0.00  0.00    +0.000 C 
ATOM      6  N   UNL     1       4.188   5.022  19.159  0.00  0.00    +0.000 N 
ATOM      7  C   UNL     1       4.079   3.707  19.546  0.00  0.00    +0.000 C 
ATOM      8  O   UNL     1       4.834   3.064  20.258  0.00  0.00    +0.000 OA
ENDROOT
BRANCH   5   9
ATOM      9  C   UNL     1       2.428   6.860  18.768  0.00  0.00    +0.000 A 
ATOM     10  C   UNL     1       1.842   7.404  19.921  0.00  0.00    +0.000 A 
ATOM     11  C   UNL     1       1.382   8.721  19.962  0.00  0.00    +0.000 A 
ATOM     12  C   UNL     1       1.510   9.574  18.859  0.00  0.00    +0.000 A 
ATOM     13  C   UNL     1       2.059   9.028  17.695  0.00  0.00    +0.000 A 
ATOM     14  C   UNL     1       2.527   7.701  17.653  0.00  0.00    +0.000 A 
BRANCH  12  15
ATOM     15  C   UNL     1       1.234  11.015  18.992  0.00  0.00    +0.000 A 
ATOM     16  C   UNL     1       0.156  11.421  19.793  0.00  0.00    +0.000 A 
ATOM     17  C   UNL     1      -0.052  12.757  20.100  0.00  0.00    +0.000 A 
ATOM     18  C   UNL     1       0.833  13.720  19.618  0.00  0.00    +0.000 A 
ATOM     19  C   UNL     1       0.734  15.043  20.054  0.00  0.00    +0.000 A 
ATOM     20  C   UNL     1       1.626  15.987  19.573  0.00  0.00    +0.000 A 
ATOM     21  C   UNL     1       2.553  15.579  18.633  0.00  0.00    +0.000 A 
ATOM     22  N   UNL     1       2.694  14.301  18.210  0.00  0.00    +0.000 NA
ATOM     23  C   UNL     1       1.869  13.370  18.728  0.00  0.00    +0.000 A 
ATOM     24  C   UNL     1       2.050  12.018  18.433  0.00  0.00    +0.000 A 
ENDBRANCH  12  15
ENDBRANCH   5   9
BRANCH   6  25
ATOM     25  C   UNL     1       5.406   5.791  19.379  0.00  0.00    +0.000 C 
BRANCH  25  26
ATOM     26  C   UNL     1       6.725   5.204  18.836  0.00  0.00    +0.000 C 
ATOM     27  C   UNL     1       7.529   6.277  18.081  0.00  0.00    +0.000 C 
ATOM     28  C   UNL     1       7.005   6.221  16.652  0.00  0.00    +0.000 C 
ATOM     29  N   UNL     1       6.566   4.849  16.482  0.00  0.00    +0.000 N 
ATOM     30  C   UNL     1       6.309   4.176  15.302  0.00  0.00    +0.000 C 
ATOM     31  O   UNL     1       6.033   2.986  15.281  0.00  0.00    +0.000 OA
ATOM     32  C   UNL     1       6.503   4.143  17.753  0.00  0.00    +0.000 C 
BRANCH  30  33
ATOM     33  C   UNL     1       6.334   4.950  14.016  0.00  0.00    +0.000 C 
ATOM     34  C   UNL     1       7.630   5.102  13.247  0.00  0.00    +0.000 C 
ATOM     35  C   UNL     1       6.554   4.203  12.714  0.00  0.00    +0.000 C 
ENDBRANCH  30  33
ENDBRANCH  25  26
ENDBRANCH   6  25
TORSDOF 5
ENDMDL
MODEL 9
REMARK VINA RESULT:      -8.3      0.930      1.328
REMARK  Name = 
REMARK  7 active torsions:
REMARK  status: ('A' for Active; 'I' for Inactive)
REMARK    1  A    between atoms: C_1  and  C_2
REMARK    2  A    between atoms: C_2  and  C_3
REMARK    3  A    between atoms: C_5  and  C_6
REMARK    4  A    between atoms: C_9  and  C_10
REMARK    5  A    between atoms: N_22  and  C_23
REMARK    6  A    between atoms: C_23  and  C_24
REMARK    7  A    between atoms: C_28  and  C_30
REMARK                            x       y       z     vdW  Elec       q    Type
REMARK                         _______ _______ _______ _____ _____    ______ ____
ROOT
ATOM      1  C   UNL     1       1.220   2.589  20.410  0.00  0.00    +0.000 C 
ATOM      2  C   UNL     1       2.024   3.415  19.421  0.00  0.00    +0.000 C 
ATOM      3  C   UNL     1       2.063   2.755  18.041  0.00  0.00    +0.000 C 
ATOM      4  N   UNL     1       1.435   4.759  19.258  0.00  0.00    +0.000 NA
ATOM      5  C   UNL     1       2.445   5.588  19.200  0.00  0.00    +0.000 C 
ATOM      6  N   UNL     1       3.675   5.007  19.369  0.00  0.00    +0.000 N 
ATOM      7  C   UNL     1       3.428   3.752  19.873  0.00  0.00    +0.000 C 
ATOM      8  O   UNL     1       4.159   3.057  20.561  0.00  0.00    +0.000 OA
ENDROOT
BRANCH   5   9
ATOM      9  C   UNL     1       2.153   7.050  18.995  0.00  0.00    +0.000 A 
ATOM     10  C   UNL     1       1.517   7.689  20.071  0.00  0.00    +0.000 A 
ATOM     11  C   UNL     1       1.215   9.052  20.042  0.00  0.00    +0.000 A 
ATOM     12  C   UNL     1       1.559   9.853  18.947  0.00  0.00    +0.000 A 
ATOM     13  C   UNL     1       2.159   9.215  17.857  0.00  0.00    +0.000 A 
ATOM     14  C   UNL     1       2.468   7.843  17.886  0.00  0.00    +0.000 A 
BRANCH  12  15
ATOM     15  C   UNL     1       1.444  11.319  19.027  0.00  0.00    +0.000 A 
ATOM     16  C   UNL     1       0.579  11.873  19.984  0.00  0.00    +0.000 A 
ATOM     17  C   UNL     1       0.554  13.238  20.230  0.00  0.00    +0.000 A 
ATOM     18  C   UNL     1       1.413  14.080  19.527  0.00  0.00    +0.000 A 
ATOM     19  C   UNL     1       1.518  15.427  19.880  0.00  0.00    +0.000 A 
ATOM     20  C   UNL     1       2.382  16.250  19.179  0.00  0.00    +0.000 A 
ATOM     21  C   UNL     1       3.072  15.703  18.114  0.00  0.00    +0.000 A 
ATOM     22  N   UNL     1       3.015  14.397  17.762  0.00  0.00    +0.000 NA
ATOM     23  C   UNL     1       2.224  13.582  18.487  0.00  0.00    +0.000 A 
ATOM     24  C   UNL     1       2.224  12.205  18.259  0.00  0.00    +0.000 A 
ENDBRANCH  12  15
ENDBRANCH   5   9
BRANCH   6  25
ATOM     25  C   UNL     1       5.004   5.604  19.406  0.00  0.00    +0.000 C 
BRANCH  25  26
ATOM     26  C   UNL     1       5.832   5.577  18.105  0.00  0.00    +0.000 C 
ATOM     27  C   UNL     1       7.279   5.138  18.389  0.00  0.00    +0.000 C 
ATOM     28  C   UNL     1       8.013   6.426  18.739  0.00  0.00    +0.000 C 
ATOM     29  N   UNL     1       7.296   7.459  18.017  0.00  0.00    +0.000 N 
ATOM     30  C   UNL     1       7.717   8.743  17.723  0.00  0.00    +0.000 C 
ATOM     31  O   UNL     1       7.058   9.496  17.022  0.00  0.00    +0.000 OA
ATOM     32  C   UNL     1       6.028   6.968  17.496  0.00  0.00    +0.000 C 
BRANCH  30  33
ATOM     33  C   UNL     1       9.006   9.228  18.319  0.00  0.00    +0.000 C 
ATOM     34  C   UNL     1       9.340  10.706  18.304  0.00  0.00    +0.000 C 
ATOM     35  C   UNL     1       8.961  10.045  19.597  0.00  0.00    +0.000 C 
ENDBRANCH  30  33
ENDBRANCH  25  26
ENDBRANCH   6  25
TORSDOF 5
ENDMDL
