MODEL 1
REMARK VINA RESULT:      -8.3      0.000      0.000
REMARK  Name = 
REMARK  10 active torsions:
REMARK  status: ('A' for Active; 'I' for Inactive)
REMARK    1  A    between atoms: C_2  and  C_3
REMARK    2  A    between atoms: C_2  and  C_15
REMARK    3  A    between atoms: C_4  and  C_5
REMARK    4  A    between atoms: C_7  and  O_8
REMARK    5  A    between atoms: C_11  and  N_12
REMARK    6  A    between atoms: C_15  and  C_16
REMARK    7  A    between atoms: C_16  and  C_18
REMARK    8  A    between atoms: C_19  and  C_20
REMARK    9  A    between atoms: C_22  and  O_23
REMARK   10  A    between atoms: C_26  and  N_27
REMARK                            x       y       z     vdW  Elec       q    Type
REMARK                         _______ _______ _______ _____ _____    ______ ____
ROOT
ATOM      1  C   UNL     1       1.385   3.372  19.501  0.00  0.00    +0.000 C 
ENDROOT
BRANCH   1   3
ATOM      2  O   UNL     1       2.051   4.291  21.599  0.00  0.00    +0.000 OA
ATOM      3  C   UNL     1       1.637   4.521  20.460  0.00  0.00    +0.000 C 
BRANCH   3   4
ATOM      4  C   UNL     1       1.457   5.930  20.007  0.00  0.00    +0.000 C 
ATOM      5  C   UNL     1       1.536   6.971  20.851  0.00  0.00    +0.000 C 
BRANCH   5   6
ATOM      6  C   UNL     1       1.318   8.334  20.353  0.00  0.00    +0.000 A 
ATOM      7  C   UNL     1       1.744   8.626  19.046  0.00  0.00    +0.000 A 
ATOM      8  C   UNL     1       1.570   9.907  18.521  0.00  0.00    +0.000 A 
ATOM      9  C   UNL     1       0.959  10.915  19.263  0.00  0.00    +0.000 A 
ATOM     10  C   UNL     1       0.522  10.647  20.558  0.00  0.00    +0.000 A 
ATOM     11  C   UNL     1       0.705   9.360  21.090  0.00  0.00    +0.000 A 
BRANCH  11  12
ATOM     12  N   UNL     1       0.240   9.133  22.451  0.00  0.00    +0.000 N 
ATOM     13  O   UNL     1       0.926   9.589  23.376  0.00  0.00    +0.000 OA
ATOM     14  O   UNL     1      -0.787   8.459  22.584  0.00  0.00    +0.000 OA
ENDBRANCH  11  12
BRANCH   8  15
ATOM     15  O   UNL     1       1.997  10.222  17.266  0.00  0.00    +0.000 OA
ATOM     16  H   UNL     1       2.886   9.855  17.127  0.00  0.00    +0.000 HD
ENDBRANCH   8  15
ENDBRANCH   5   6
ENDBRANCH   3   4
ENDBRANCH   1   3
BRANCH   1  17
ATOM     17  C   UNL     1       2.508   2.997  18.571  0.00  0.00    +0.000 C 
ATOM     18  O   UNL     1       2.334   2.232  17.622  0.00  0.00    +0.000 OA
BRANCH  17  19
ATOM     19  C   UNL     1       3.857   3.580  18.826  0.00  0.00    +0.000 C 
ATOM     20  C   UNL     1       4.145   4.740  18.219  0.00  0.00    +0.000 C 
BRANCH  20  21
ATOM     21  C   UNL     1       5.423   5.446  18.329  0.00  0.00    +0.000 A 
ATOM     22  C   UNL     1       6.235   5.143  19.434  0.00  0.00    +0.000 A 
ATOM     23  C   UNL     1       7.513   5.691  19.532  0.00  0.00    +0.000 A 
ATOM     24  C   UNL     1       8.012   6.538  18.546  0.00  0.00    +0.000 A 
ATOM     25  C   UNL     1       7.223   6.855  17.442  0.00  0.00    +0.000 A 
ATOM     26  C   UNL     1       5.934   6.313  17.347  0.00  0.00    +0.000 A 
BRANCH  26  27
ATOM     27  N   UNL     1       5.141   6.670  16.184  0.00  0.00    +0.000 N 
ATOM     28  O   UNL     1       4.158   7.401  16.369  0.00  0.00    +0.000 OA
ATOM     29  O   UNL     1       5.537   6.253  15.086  0.00  0.00    +0.000 OA
ENDBRANCH  26  27
BRANCH  23  30
ATOM     30  O   UNL     1       8.327   5.405  20.587  0.00  0.00    +0.000 OA
ATOM     31  H   UNL     1       9.164   5.034  20.260  0.00  0.00    +0.000 HD
ENDBRANCH  23  30
ENDBRANCH  20  21
ENDBRANCH  17  19
ENDBRANCH   1  17
TORSDOF 10
ENDMDL
MODEL 2
REMARK VINA RESULT:      -8.1      1.332      6.423
REMARK  Name = 
REMARK  10 active torsions:
REMARK  status: ('A' for Active; 'I' for Inactive)
REMARK    1  A    between atoms: C_2  and  C_3
REMARK    2  A    between atoms: C_2  and  C_15
REMARK    3  A    between atoms: C_4  and  C_5
REMARK    4  A    between atoms: C_7  and  O_8
REMARK    5  A    between atoms: C_11  and  N_12
REMARK    6  A    between atoms: C_15  and  C_16
REMARK    7  A    between atoms: C_16  and  C_18
REMARK    8  A    between atoms: C_19  and  C_20
REMARK    9  A    between atoms: C_22  and  O_23
REMARK   10  A    between atoms: C_26  and  N_27
REMARK                            x       y       z     vdW  Elec       q    Type
REMARK                         _______ _______ _______ _____ _____    ______ ____
ROOT
ATOM      1  C   UNL     1       1.601   2.527  19.795  0.00  0.00    +0.000 C 
ENDROOT
BRANCH   1   3
ATOM      2  O   UNL     1       1.941   2.352  17.441  0.00  0.00    +0.000 OA
ATOM      3  C   UNL     1       2.416   2.694  18.526  0.00  0.00    +0.000 C 
BRANCH   3   4
ATOM      4  C   UNL     1       3.761   3.338  18.578  0.00  0.00    +0.000 C 
ATOM      5  C   UNL     1       3.997   4.548  18.046  0.00  0.00    +0.000 C 
BRANCH   5   6
ATOM      6  C   UNL     1       5.348   5.117  18.099  0.00  0.00    +0.000 A 
ATOM      7  C   UNL     1       6.019   5.091  19.333  0.00  0.00    +0.000 A 
ATOM      8  C   UNL     1       7.303   5.625  19.445  0.00  0.00    +0.000 A 
ATOM      9  C   UNL     1       7.956   6.175  18.346  0.00  0.00    +0.000 A 
ATOM     10  C   UNL     1       7.315   6.206  17.110  0.00  0.00    +0.000 A 
ATOM     11  C   UNL     1       6.018   5.677  16.998  0.00  0.00    +0.000 A 
BRANCH  11  12
ATOM     12  N   UNL     1       5.386   5.741  15.688  0.00  0.00    +0.000 N 
ATOM     13  O   UNL     1       4.930   6.833  15.323  0.00  0.00    +0.000 OA
ATOM     14  O   UNL     1       5.311   4.683  15.053  0.00  0.00    +0.000 OA
ENDBRANCH  11  12
BRANCH   8  15
ATOM     15  O   UNL     1       7.965   5.635  20.637  0.00  0.00    +0.000 OA
ATOM     16  H   UNL     1       7.321   5.684  21.363  0.00  0.00    +0.000 HD
ENDBRANCH   8  15
ENDBRANCH   5   6
ENDBRANCH   3   4
ENDBRANCH   1   3
BRANCH   1  17
ATOM     17  C   UNL     1       1.712   3.615  20.829  0.00  0.00    +0.000 C 
ATOM     18  O   UNL     1       2.306   3.439  21.892  0.00  0.00    +0.000 OA
BRANCH  17  19
ATOM     19  C   UNL     1       1.078   4.933  20.535  0.00  0.00    +0.000 C 
ATOM     20  C   UNL     1       1.842   6.025  20.685  0.00  0.00    +0.000 C 
BRANCH  20  21
ATOM     21  C   UNL     1       1.386   7.400  20.468  0.00  0.00    +0.000 A 
ATOM     22  C   UNL     1       0.741   8.041  21.538  0.00  0.00    +0.000 A 
ATOM     23  C   UNL     1       0.391   9.387  21.435  0.00  0.00    +0.000 A 
ATOM     24  C   UNL     1       0.675  10.120  20.286  0.00  0.00    +0.000 A 
ATOM     25  C   UNL     1       1.312   9.503  19.211  0.00  0.00    +0.000 A 
ATOM     26  C   UNL     1       1.655   8.147  19.309  0.00  0.00    +0.000 A 
BRANCH  26  27
ATOM     27  N   UNL     1       2.315   7.539  18.167  0.00  0.00    +0.000 N 
ATOM     28  O   UNL     1       1.694   6.660  17.555  0.00  0.00    +0.000 OA
ATOM     29  O   UNL     1       3.432   7.980  17.864  0.00  0.00    +0.000 OA
ENDBRANCH  26  27
BRANCH  23  30
ATOM     30  O   UNL     1      -0.226  10.039  22.461  0.00  0.00    +0.000 OA
ATOM     31  H   UNL     1      -1.178   9.847  22.441  0.00  0.00    +0.000 HD
ENDBRANCH  23  30
ENDBRANCH  20  21
ENDBRANCH  17  19
ENDBRANCH   1  17
TORSDOF 10
ENDMDL
MODEL 3
REMARK VINA RESULT:      -8.0      1.515      6.931
REMARK  Name = 
REMARK  10 active torsions:
REMARK  status: ('A' for Active; 'I' for Inactive)
REMARK    1  A    between atoms: C_2  and  C_3
REMARK    2  A    between atoms: C_2  and  C_15
REMARK    3  A    between atoms: C_4  and  C_5
REMARK    4  A    between atoms: C_7  and  O_8
REMARK    5  A    between atoms: C_11  and  N_12
REMARK    6  A    between atoms: C_15  and  C_16
REMARK    7  A    between atoms: C_16  and  C_18
REMARK    8  A    between atoms: C_19  and  C_20
REMARK    9  A    between atoms: C_22  and  O_23
REMARK   10  A    between atoms: C_26  and  N_27
REMARK                            x       y       z     vdW  Elec       q    Type
REMARK                         _______ _______ _______ _____ _____    ______ ____
ROOT
ATOM      1  C   UNL     1       1.060   3.805  19.867  0.00  0.00    +0.000 C 
ENDROOT
BRANCH   1   3
ATOM      2  O   UNL     1       1.425   1.806  18.619  0.00  0.00    +0.000 OA
ATOM      3  C   UNL     1       1.775   2.971  18.820  0.00  0.00    +0.000 C 
BRANCH   3   4
ATOM      4  C   UNL     1       2.849   3.578  17.982  0.00  0.00    +0.000 C 
ATOM      5  C   UNL     1       4.149   3.303  18.173  0.00  0.00    +0.000 C 
BRANCH   5   6
ATOM      6  C   UNL     1       5.164   3.956  17.338  0.00  0.00    +0.000 A 
ATOM      7  C   UNL     1       5.176   3.649  15.967  0.00  0.00    +0.000 A 
ATOM      8  C   UNL     1       6.123   4.233  15.125  0.00  0.00    +0.000 A 
ATOM      9  C   UNL     1       7.060   5.141  15.611  0.00  0.00    +0.000 A 
ATOM     10  C   UNL     1       7.063   5.467  16.965  0.00  0.00    +0.000 A 
ATOM     11  C   UNL     1       6.116   4.872  17.815  0.00  0.00    +0.000 A 
BRANCH  11  12
ATOM     12  N   UNL     1       6.166   5.237  19.224  0.00  0.00    +0.000 N 
ATOM     13  O   UNL     1       7.234   5.058  19.826  0.00  0.00    +0.000 OA
ATOM     14  O   UNL     1       5.120   5.660  19.728  0.00  0.00    +0.000 OA
ENDBRANCH  11  12
BRANCH   8  15
ATOM     15  O   UNL     1       6.171   3.933  13.797  0.00  0.00    +0.000 OA
ATOM     16  H   UNL     1       5.773   3.059  13.650  0.00  0.00    +0.000 HD
ENDBRANCH   8  15
ENDBRANCH   5   6
ENDBRANCH   3   4
ENDBRANCH   1   3
BRANCH   1  17
ATOM     17  C   UNL     1       1.896   4.775  20.659  0.00  0.00    +0.000 C 
ATOM     18  O   UNL     1       2.475   4.438  21.692  0.00  0.00    +0.000 OA
BRANCH  17  19
ATOM     19  C   UNL     1       2.013   6.175  20.158  0.00  0.00    +0.000 C 
ATOM     20  C   UNL     1       1.256   7.104  20.760  0.00  0.00    +0.000 C 
BRANCH  20  21
ATOM     21  C   UNL     1       1.219   8.520  20.389  0.00  0.00    +0.000 A 
ATOM     22  C   UNL     1       1.666   8.862  19.102  0.00  0.00    +0.000 A 
ATOM     23  C   UNL     1       1.544  10.174  18.647  0.00  0.00    +0.000 A 
ATOM     24  C   UNL     1       0.977  11.164  19.445  0.00  0.00    +0.000 A 
ATOM     25  C   UNL     1       0.529  10.848  20.727  0.00  0.00    +0.000 A 
ATOM     26  C   UNL     1       0.661   9.532  21.189  0.00  0.00    +0.000 A 
BRANCH  26  27
ATOM     27  N   UNL     1       0.186   9.242  22.531  0.00  0.00    +0.000 N 
ATOM     28  O   UNL     1       0.871   9.654  23.477  0.00  0.00    +0.000 OA
ATOM     29  O   UNL     1      -0.895   8.645  22.626  0.00  0.00    +0.000 OA
ENDBRANCH  26  27
BRANCH  23  30
ATOM     30  O   UNL     1       1.958  10.532  17.399  0.00  0.00    +0.000 OA
ATOM     31  H   UNL     1       2.527   9.834  17.034  0.00  0.00    +0.000 HD
ENDBRANCH  23  30
ENDBRANCH  20  21
ENDBRANCH  17  19
ENDBRANCH   1  17
TORSDOF 10
ENDMDL
MODEL 4
REMARK VINA RESULT:      -8.0      1.268      2.388
REMARK  Name = 
REMARK  10 active torsions:
REMARK  status: ('A' for Active; 'I' for Inactive)
REMARK    1  A    between atoms: C_2  and  C_3
REMARK    2  A    between atoms: C_2  and  C_15
REMARK    3  A    between atoms: C_4  and  C_5
REMARK    4  A    between atoms: C_7  and  O_8
REMARK    5  A    between atoms: C_11  and  N_12
REMARK    6  A    between atoms: C_15  and  C_16
REMARK    7  A    between atoms: C_16  and  C_18
REMARK    8  A    between atoms: C_19  and  C_20
REMARK    9  A    between atoms: C_22  and  O_23
REMARK   10  A    between atoms: C_26  and  N_27
REMARK                            x       y       z     vdW  Elec       q    Type
REMARK                         _______ _______ _______ _____ _____    ______ ____
ROOT
ATOM      1  C   UNL     1       1.086   3.218  19.069  0.00  0.00    +0.000 C 
ENDROOT
BRANCH   1   3
ATOM      2  O   UNL     1       1.460   3.445  21.413  0.00  0.00    +0.000 OA
ATOM      3  C   UNL     1       1.126   4.004  20.366  0.00  0.00    +0.000 C 
BRANCH   3   4
ATOM      4  C   UNL     1       0.835   5.467  20.367  0.00  0.00    +0.000 C 
ATOM      5  C   UNL     1       1.748   6.379  20.735  0.00  0.00    +0.000 C 
BRANCH   5   6
ATOM      6  C   UNL     1       1.395   7.804  20.747  0.00  0.00    +0.000 A 
ATOM      7  C   UNL     1       0.905   8.343  21.949  0.00  0.00    +0.000 A 
ATOM      8  C   UNL     1       0.546   9.690  22.018  0.00  0.00    +0.000 A 
ATOM      9  C   UNL     1       0.678  10.531  20.916  0.00  0.00    +0.000 A 
ATOM     10  C   UNL     1       1.168  10.021  19.716  0.00  0.00    +0.000 A 
ATOM     11  C   UNL     1       1.522   8.663  19.644  0.00  0.00    +0.000 A 
BRANCH  11  12
ATOM     12  N   UNL     1       2.019   8.175  18.365  0.00  0.00    +0.000 N 
ATOM     13  O   UNL     1       3.225   7.902  18.284  0.00  0.00    +0.000 OA
ATOM     14  O   UNL     1       1.205   8.110  17.438  0.00  0.00    +0.000 OA
ENDBRANCH  11  12
BRANCH   8  15
ATOM     15  O   UNL     1       0.045  10.231  23.163  0.00  0.00    +0.000 OA
ATOM     16  H   UNL     1       0.200  11.191  23.162  0.00  0.00    +0.000 HD
ENDBRANCH   8  15
ENDBRANCH   5   6
ENDBRANCH   3   4
ENDBRANCH   1   3
BRANCH   1  17
ATOM     17  C   UNL     1       2.181   3.486  18.072  0.00  0.00    +0.000 C 
ATOM     18  O   UNL     1       2.142   3.028  16.930  0.00  0.00    +0.000 OA
BRANCH  17  19
ATOM     19  C   UNL     1       3.333   4.331  18.501  0.00  0.00    +0.000 C 
ATOM     20  C   UNL     1       4.351   4.459  17.638  0.00  0.00    +0.000 C 
BRANCH  20  21
ATOM     21  C   UNL     1       5.573   5.225  17.895  0.00  0.00    +0.000 A 
ATOM     22  C   UNL     1       6.170   5.081  19.157  0.00  0.00    +0.000 A 
ATOM     23  C   UNL     1       7.397   5.689  19.421  0.00  0.00    +0.000 A 
ATOM     24  C   UNL     1       8.054   6.439  18.450  0.00  0.00    +0.000 A 
ATOM     25  C   UNL     1       7.478   6.598  17.190  0.00  0.00    +0.000 A 
ATOM     26  C   UNL     1       6.240   5.996  16.927  0.00  0.00    +0.000 A 
BRANCH  26  27
ATOM     27  N   UNL     1       5.669   6.187  15.605  0.00  0.00    +0.000 N 
ATOM     28  O   UNL     1       4.876   7.126  15.459  0.00  0.00    +0.000 OA
ATOM     29  O   UNL     1       6.058   5.422  14.711  0.00  0.00    +0.000 OA
ENDBRANCH  26  27
BRANCH  23  30
ATOM     30  O   UNL     1       8.007   5.557  20.633  0.00  0.00    +0.000 OA
ATOM     31  H   UNL     1       7.479   6.009  21.312  0.00  0.00    +0.000 HD
ENDBRANCH  23  30
ENDBRANCH  20  21
ENDBRANCH  17  19
ENDBRANCH   1  17
TORSDOF 10
ENDMDL
MODEL 5
REMARK VINA RESULT:      -7.8      2.129      6.512
REMARK  Name = 
REMARK  10 active torsions:
REMARK  status: ('A' for Active; 'I' for Inactive)
REMARK    1  A    between atoms: C_2  and  C_3
REMARK    2  A    between atoms: C_2  and  C_15
REMARK    3  A    between atoms: C_4  and  C_5
REMARK    4  A    between atoms: C_7  and  O_8
REMARK    5  A    between atoms: C_11  and  N_12
REMARK    6  A    between atoms: C_15  and  C_16
REMARK    7  A    between atoms: C_16  and  C_18
REMARK    8  A    between atoms: C_19  and  C_20
REMARK    9  A    between atoms: C_22  and  O_23
REMARK   10  A    between atoms: C_26  and  N_27
REMARK                            x       y       z     vdW  Elec       q    Type
REMARK                         _______ _______ _______ _____ _____    ______ ____
ROOT
ATOM      1  C   UNL     1       2.683   2.499  20.094  0.00  0.00    +0.000 C 
ENDROOT
BRANCH   1   3
ATOM      2  O   UNL     1       4.844   2.019  20.980  0.00  0.00    +0.000 OA
ATOM      3  C   UNL     1       4.197   2.438  20.018  0.00  0.00    +0.000 C 
BRANCH   3   4
ATOM      4  C   UNL     1       4.901   2.812  18.757  0.00  0.00    +0.000 C 
ATOM      5  C   UNL     1       4.918   4.071  18.292  0.00  0.00    +0.000 C 
BRANCH   5   6
ATOM      6  C   UNL     1       5.600   4.373  17.028  0.00  0.00    +0.000 A 
ATOM      7  C   UNL     1       4.954   4.006  15.835  0.00  0.00    +0.000 A 
ATOM      8  C   UNL     1       5.558   4.262  14.603  0.00  0.00    +0.000 A 
ATOM      9  C   UNL     1       6.794   4.897  14.522  0.00  0.00    +0.000 A 
ATOM     10  C   UNL     1       7.450   5.277  15.690  0.00  0.00    +0.000 A 
ATOM     11  C   UNL     1       6.847   5.012  16.931  0.00  0.00    +0.000 A 
BRANCH  11  12
ATOM     12  N   UNL     1       7.576   5.419  18.124  0.00  0.00    +0.000 N 
ATOM     13  O   UNL     1       8.224   4.551  18.725  0.00  0.00    +0.000 OA
ATOM     14  O   UNL     1       7.458   6.598  18.474  0.00  0.00    +0.000 OA
ENDBRANCH  11  12
BRANCH   8  15
ATOM     15  O   UNL     1       4.964   3.893  13.434  0.00  0.00    +0.000 OA
ATOM     16  H   UNL     1       3.999   3.891  13.549  0.00  0.00    +0.000 HD
ENDBRANCH   8  15
ENDBRANCH   5   6
ENDBRANCH   3   4
ENDBRANCH   1   3
BRANCH   1  17
ATOM     17  C   UNL     1       2.085   3.390  21.149  0.00  0.00    +0.000 C 
ATOM     18  O   UNL     1       2.112   3.089  22.342  0.00  0.00    +0.000 OA
BRANCH  17  19
ATOM     19  C   UNL     1       1.449   4.668  20.713  0.00  0.00    +0.000 C 
ATOM     20  C   UNL     1       2.247   5.740  20.600  0.00  0.00    +0.000 C 
BRANCH  20  21
ATOM     21  C   UNL     1       1.798   7.078  20.212  0.00  0.00    +0.000 A 
ATOM     22  C   UNL     1       1.133   7.842  21.184  0.00  0.00    +0.000 A 
ATOM     23  C   UNL     1       0.787   9.166  20.914  0.00  0.00    +0.000 A 
ATOM     24  C   UNL     1       1.095   9.757  19.692  0.00  0.00    +0.000 A 
ATOM     25  C   UNL     1       1.753   9.016  18.711  0.00  0.00    +0.000 A 
ATOM     26  C   UNL     1       2.091   7.683  18.977  0.00  0.00    +0.000 A 
BRANCH  26  27
ATOM     27  N   UNL     1       2.772   6.943  17.929  0.00  0.00    +0.000 N 
ATOM     28  O   UNL     1       3.899   7.336  17.596  0.00  0.00    +0.000 OA
ATOM     29  O   UNL     1       2.193   5.943  17.481  0.00  0.00    +0.000 OA
ENDBRANCH  26  27
BRANCH  23  30
ATOM     30  O   UNL     1       0.151   9.935  21.843  0.00  0.00    +0.000 OA
ATOM     31  H   UNL     1      -0.708   9.537  22.060  0.00  0.00    +0.000 HD
ENDBRANCH  23  30
ENDBRANCH  20  21
ENDBRANCH  17  19
ENDBRANCH   1  17
TORSDOF 10
ENDMDL
MODEL 6
REMARK VINA RESULT:      -7.7      4.572      7.873
REMARK  Name = 
REMARK  10 active torsions:
REMARK  status: ('A' for Active; 'I' for Inactive)
REMARK    1  A    between atoms: C_2  and  C_3
REMARK    2  A    between atoms: C_2  and  C_15
REMARK    3  A    between atoms: C_4  and  C_5
REMARK    4  A    between atoms: C_7  and  O_8
REMARK    5  A    between atoms: C_11  and  N_12
REMARK    6  A    between atoms: C_15  and  C_16
REMARK    7  A    between atoms: C_16  and  C_18
REMARK    8  A    between atoms: C_19  and  C_20
REMARK    9  A    between atoms: C_22  and  O_23
REMARK   10  A    between atoms: C_26  and  N_27
REMARK                            x       y       z     vdW  Elec       q    Type
REMARK                         _______ _______ _______ _____ _____    ______ ____
ROOT
ATOM      1  C   UNL     1       8.348   6.957  18.596  0.00  0.00    +0.000 C 
ENDROOT
BRANCH   1   3
ATOM      2  O   UNL     1       7.340   8.219  16.841  0.00  0.00    +0.000 OA
ATOM      3  C   UNL     1       7.961   8.252  17.906  0.00  0.00    +0.000 C 
BRANCH   3   4
ATOM      4  C   UNL     1       8.263   9.564  18.548  0.00  0.00    +0.000 C 
ATOM      5  C   UNL     1       9.352   9.756  19.309  0.00  0.00    +0.000 C 
BRANCH   5   6
ATOM      6  C   UNL     1       9.580  11.060  19.942  0.00  0.00    +0.000 A 
ATOM      7  C   UNL     1       9.073  11.252  21.239  0.00  0.00    +0.000 A 
ATOM      8  C   UNL     1       9.253  12.474  21.888  0.00  0.00    +0.000 A 
ATOM      9  C   UNL     1       9.948  13.518  21.284  0.00  0.00    +0.000 A 
ATOM     10  C   UNL     1      10.467  13.349  20.003  0.00  0.00    +0.000 A 
ATOM     11  C   UNL     1      10.278  12.123  19.345  0.00  0.00    +0.000 A 
BRANCH  11  12
ATOM     12  N   UNL     1      10.830  11.998  18.004  0.00  0.00    +0.000 N 
ATOM     13  O   UNL     1      10.137  12.397  17.057  0.00  0.00    +0.000 OA
ATOM     14  O   UNL     1      11.938  11.458  17.904  0.00  0.00    +0.000 OA
ENDBRANCH  11  12
BRANCH   8  15
ATOM     15  O   UNL     1       8.748  12.695  23.135  0.00  0.00    +0.000 OA
ATOM     16  H   UNL     1       9.335  12.291  23.796  0.00  0.00    +0.000 HD
ENDBRANCH   8  15
ENDBRANCH   5   6
ENDBRANCH   3   4
ENDBRANCH   1   3
BRANCH   1  17
ATOM     17  C   UNL     1       7.462   5.764  18.360  0.00  0.00    +0.000 C 
ATOM     18  O   UNL     1       7.672   4.973  17.441  0.00  0.00    +0.000 OA
BRANCH  17  19
ATOM     19  C   UNL     1       6.305   5.554  19.279  0.00  0.00    +0.000 C 
ATOM     20  C   UNL     1       5.172   5.085  18.737  0.00  0.00    +0.000 C 
BRANCH  20  21
ATOM     21  C   UNL     1       3.931   4.842  19.475  0.00  0.00    +0.000 A 
ATOM     22  C   UNL     1       3.166   5.962  19.836  0.00  0.00    +0.000 A 
ATOM     23  C   UNL     1       1.917   5.791  20.434  0.00  0.00    +0.000 A 
ATOM     24  C   UNL     1       1.403   4.521  20.677  0.00  0.00    +0.000 A 
ATOM     25  C   UNL     1       2.146   3.394  20.329  0.00  0.00    +0.000 A 
ATOM     26  C   UNL     1       3.406   3.565  19.739  0.00  0.00    +0.000 A 
BRANCH  26  27
ATOM     27  N   UNL     1       4.152   2.368  19.393  0.00  0.00    +0.000 N 
ATOM     28  O   UNL     1       5.000   1.974  20.204  0.00  0.00    +0.000 OA
ATOM     29  O   UNL     1       3.847   1.804  18.333  0.00  0.00    +0.000 OA
ENDBRANCH  26  27
BRANCH  23  30
ATOM     30  O   UNL     1       1.148   6.860  20.785  0.00  0.00    +0.000 OA
ATOM     31  H   UNL     1       1.603   7.682  20.538  0.00  0.00    +0.000 HD
ENDBRANCH  23  30
ENDBRANCH  20  21
ENDBRANCH  17  19
ENDBRANCH   1  17
TORSDOF 10
ENDMDL
MODEL 7
REMARK VINA RESULT:      -7.7      4.890      7.769
REMARK  Name = 
REMARK  10 active torsions:
REMARK  status: ('A' for Active; 'I' for Inactive)
REMARK    1  A    between atoms: C_2  and  C_3
REMARK    2  A    between atoms: C_2  and  C_15
REMARK    3  A    between atoms: C_4  and  C_5
REMARK    4  A    between atoms: C_7  and  O_8
REMARK    5  A    between atoms: C_11  and  N_12
REMARK    6  A    between atoms: C_15  and  C_16
REMARK    7  A    between atoms: C_16  and  C_18
REMARK    8  A    between atoms: C_19  and  C_20
REMARK    9  A    between atoms: C_22  and  O_23
REMARK   10  A    between atoms: C_26  and  N_27
REMARK                            x       y       z     vdW  Elec       q    Type
REMARK                         _______ _______ _______ _____ _____    ______ ____
ROOT
ATOM      1  C   UNL     1       7.009   8.165  17.408  0.00  0.00    +0.000 C 
ENDROOT
BRANCH   1   3
ATOM      2  O   UNL     1       8.691   7.723  19.039  0.00  0.00    +0.000 OA
ATOM      3  C   UNL     1       8.238   8.527  18.222  0.00  0.00    +0.000 C 
BRANCH   3   4
ATOM      4  C   UNL     1       8.942   9.820  17.982  0.00  0.00    +0.000 C 
ATOM      5  C   UNL     1       9.328  10.622  18.987  0.00  0.00    +0.000 C 
BRANCH   5   6
ATOM      6  C   UNL     1       9.989  11.898  18.689  0.00  0.00    +0.000 A 
ATOM      7  C   UNL     1      10.670  12.009  17.465  0.00  0.00    +0.000 A 
ATOM      8  C   UNL     1      11.324  13.196  17.131  0.00  0.00    +0.000 A 
ATOM      9  C   UNL     1      11.304  14.297  17.984  0.00  0.00    +0.000 A 
ATOM     10  C   UNL     1      10.628  14.214  19.199  0.00  0.00    +0.000 A 
ATOM     11  C   UNL     1       9.978  13.016  19.539  0.00  0.00    +0.000 A 
BRANCH  11  12
ATOM     12  N   UNL     1       9.294  12.975  20.824  0.00  0.00    +0.000 N 
ATOM     13  O   UNL     1       8.156  13.460  20.886  0.00  0.00    +0.000 OA
ATOM     14  O   UNL     1       9.922  12.495  21.775  0.00  0.00    +0.000 OA
ENDBRANCH  11  12
BRANCH   8  15
ATOM     15  O   UNL     1      12.013  13.320  15.962  0.00  0.00    +0.000 OA
ATOM     16  H   UNL     1      12.887  12.907  16.058  0.00  0.00    +0.000 HD
ENDBRANCH   8  15
ENDBRANCH   5   6
ENDBRANCH   3   4
ENDBRANCH   1   3
BRANCH   1  17
ATOM     17  C   UNL     1       6.850   6.722  17.011  0.00  0.00    +0.000 C 
ATOM     18  O   UNL     1       7.561   6.206  16.149  0.00  0.00    +0.000 OA
BRANCH  17  19
ATOM     19  C   UNL     1       5.797   5.916  17.695  0.00  0.00    +0.000 C 
ATOM     20  C   UNL     1       4.644   5.733  17.036  0.00  0.00    +0.000 C 
BRANCH  20  21
ATOM     21  C   UNL     1       3.492   4.995  17.557  0.00  0.00    +0.000 A 
ATOM     22  C   UNL     1       3.455   3.611  17.326  0.00  0.00    +0.000 A 
ATOM     23  C   UNL     1       2.447   2.835  17.898  0.00  0.00    +0.000 A 
ATOM     24  C   UNL     1       1.469   3.406  18.706  0.00  0.00    +0.000 A 
ATOM     25  C   UNL     1       1.484   4.779  18.947  0.00  0.00    +0.000 A 
ATOM     26  C   UNL     1       2.490   5.561  18.364  0.00  0.00    +0.000 A 
BRANCH  26  27
ATOM     27  N   UNL     1       2.471   6.988  18.635  0.00  0.00    +0.000 N 
ATOM     28  O   UNL     1       2.305   7.747  17.671  0.00  0.00    +0.000 OA
ATOM     29  O   UNL     1       2.574   7.335  19.820  0.00  0.00    +0.000 OA
ENDBRANCH  26  27
BRANCH  23  30
ATOM     30  O   UNL     1       2.393   1.487  17.700  0.00  0.00    +0.000 OA
ATOM     31  H   UNL     1       3.293   1.139  17.588  0.00  0.00    +0.000 HD
ENDBRANCH  23  30
ENDBRANCH  20  21
ENDBRANCH  17  19
ENDBRANCH   1  17
TORSDOF 10
ENDMDL
MODEL 8
REMARK VINA RESULT:      -7.7      4.250      7.227
REMARK  Name = 
REMARK  10 active torsions:
REMARK  status: ('A' for Active; 'I' for Inactive)
REMARK    1  A    between atoms: C_2  and  C_3
REMARK    2  A    between atoms: C_2  and  C_15
REMARK    3  A    between atoms: C_4  and  C_5
REMARK    4  A    between atoms: C_7  and  O_8
REMARK    5  A    between atoms: C_11  and  N_12
REMARK    6  A    between atoms: C_15  and  C_16
REMARK    7  A    between atoms: C_16  and  C_18
REMARK    8  A    between atoms: C_19  and  C_20
REMARK    9  A    between atoms: C_22  and  O_23
REMARK   10  A    between atoms: C_26  and  N_27
REMARK                            x       y       z     vdW  Elec       q    Type
REMARK                         _______ _______ _______ _____ _____    ______ ____
ROOT
ATOM      1  C   UNL     1       8.236   7.291  18.945  0.00  0.00    +0.000 C 
ENDROOT
BRANCH   1   3
ATOM      2  O   UNL     1       8.564   5.083  19.785  0.00  0.00    +0.000 OA
ATOM      3  C   UNL     1       7.837   5.839  19.136  0.00  0.00    +0.000 C 
BRANCH   3   4
ATOM      4  C   UNL     1       6.535   5.342  18.606  0.00  0.00    +0.000 C 
ATOM      5  C   UNL     1       5.453   5.192  19.387  0.00  0.00    +0.000 C 
BRANCH   5   6
ATOM      6  C   UNL     1       4.207   4.668  18.816  0.00  0.00    +0.000 A 
ATOM      7  C   UNL     1       4.063   3.272  18.736  0.00  0.00    +0.000 A 
ATOM      8  C   UNL     1       2.903   2.717  18.195  0.00  0.00    +0.000 A 
ATOM      9  C   UNL     1       1.860   3.520  17.742  0.00  0.00    +0.000 A 
ATOM     10  C   UNL     1       1.976   4.906  17.819  0.00  0.00    +0.000 A 
ATOM     11  C   UNL     1       3.147   5.466  18.354  0.00  0.00    +0.000 A 
BRANCH  11  12
ATOM     12  N   UNL     1       3.226   6.919  18.403  0.00  0.00    +0.000 N 
ATOM     13  O   UNL     1       2.571   7.501  19.280  0.00  0.00    +0.000 OA
ATOM     14  O   UNL     1       3.909   7.470  17.534  0.00  0.00    +0.000 OA
ENDBRANCH  11  12
BRANCH   8  15
ATOM     15  O   UNL     1       2.750   1.367  18.083  0.00  0.00    +0.000 OA
ATOM     16  H   UNL     1       3.568   0.978  17.732  0.00  0.00    +0.000 HD
ENDBRANCH   8  15
ENDBRANCH   5   6
ENDBRANCH   3   4
ENDBRANCH   1   3
BRANCH   1  17
ATOM     17  C   UNL     1       7.864   7.937  17.638  0.00  0.00    +0.000 C 
ATOM     18  O   UNL     1       7.604   7.270  16.637  0.00  0.00    +0.000 OA
BRANCH  17  19
ATOM     19  C   UNL     1       7.816   9.427  17.578  0.00  0.00    +0.000 C 
ATOM     20  C   UNL     1       8.873  10.093  18.065  0.00  0.00    +0.000 C 
BRANCH  20  21
ATOM     21  C   UNL     1       8.992  11.551  18.115  0.00  0.00    +0.000 A 
ATOM     22  C   UNL     1       7.950  12.303  17.547  0.00  0.00    +0.000 A 
ATOM     23  C   UNL     1       7.947  13.692  17.668  0.00  0.00    +0.000 A 
ATOM     24  C   UNL     1       8.960  14.359  18.350  0.00  0.00    +0.000 A 
ATOM     25  C   UNL     1      10.006  13.633  18.919  0.00  0.00    +0.000 A 
ATOM     26  C   UNL     1      10.016  12.238  18.789  0.00  0.00    +0.000 A 
BRANCH  26  27
ATOM     27  N   UNL     1      11.124  11.517  19.392  0.00  0.00    +0.000 N 
ATOM     28  O   UNL     1      12.051  11.174  18.646  0.00  0.00    +0.000 OA
ATOM     29  O   UNL     1      11.078  11.341  20.617  0.00  0.00    +0.000 OA
ENDBRANCH  26  27
BRANCH  23  30
ATOM     30  O   UNL     1       6.943  14.446  17.138  0.00  0.00    +0.000 OA
ATOM     31  H   UNL     1       6.995  14.419  16.168  0.00  0.00    +0.000 HD
ENDBRANCH  23  30
ENDBRANCH  20  21
ENDBRANCH  17  19
ENDBRANCH   1  17
TORSDOF 10
ENDMDL
MODEL 9
REMARK VINA RESULT:      -7.6      1.864      7.275
REMARK  Name = 
REMARK  10 active torsions:
REMARK  status: ('A' for Active; 'I' for Inactive)
REMARK    1  A    between atoms: C_2  and  C_3
REMARK    2  A    between atoms: C_2  and  C_15
REMARK    3  A    between atoms: C_4  and  C_5
REMARK    4  A    between atoms: C_7  and  O_8
REMARK    5  A    between atoms: C_11  and  N_12
REMARK    6  A    between atoms: C_15  and  C_16
REMARK    7  A    between atoms: C_16  and  C_18
REMARK    8  A    between atoms: C_19  and  C_20
REMARK    9  A    between atoms: C_22  and  O_23
REMARK   10  A    between atoms: C_26  and  N_27
REMARK                            x       y       z     vdW  Elec       q    Type
REMARK                         _______ _______ _______ _____ _____    ______ ____
ROOT
ATOM      1  C   UNL     1       2.236   3.554  19.607  0.00  0.00    +0.000 C 
ENDROOT
BRANCH   1   3
ATOM      2  O   UNL     1       3.941   2.052  20.332  0.00  0.00    +0.000 OA
ATOM      3  C   UNL     1       3.576   2.855  19.470  0.00  0.00    +0.000 C 
BRANCH   3   4
ATOM      4  C   UNL     1       4.419   3.078  18.260  0.00  0.00    +0.000 C 
ATOM      5  C   UNL     1       4.701   4.307  17.800  0.00  0.00    +0.000 C 
BRANCH   5   6
ATOM      6  C   UNL     1       5.509   4.465  16.585  0.00  0.00    +0.000 A 
ATOM      7  C   UNL     1       4.923   4.101  15.361  0.00  0.00    +0.000 A 
ATOM      8  C   UNL     1       5.646   4.222  14.173  0.00  0.00    +0.000 A 
ATOM      9  C   UNL     1       6.946   4.719  14.167  0.00  0.00    +0.000 A 
ATOM     10  C   UNL     1       7.546   5.093  15.366  0.00  0.00    +0.000 A 
ATOM     11  C   UNL     1       6.822   4.964  16.563  0.00  0.00    +0.000 A 
BRANCH  11  12
ATOM     12  N   UNL     1       7.495   5.359  17.792  0.00  0.00    +0.000 N 
ATOM     13  O   UNL     1       7.452   6.555  18.112  0.00  0.00    +0.000 OA
ATOM     14  O   UNL     1       8.100   4.474  18.406  0.00  0.00    +0.000 OA
ENDBRANCH  11  12
BRANCH   8  15
ATOM     15  O   UNL     1       5.109   3.852  12.977  0.00  0.00    +0.000 OA
ATOM     16  H   UNL     1       5.825   3.661  12.348  0.00  0.00    +0.000 HD
ENDBRANCH   8  15
ENDBRANCH   5   6
ENDBRANCH   3   4
ENDBRANCH   1   3
BRANCH   1  17
ATOM     17  C   UNL     1       2.170   4.729  20.546  0.00  0.00    +0.000 C 
ATOM     18  O   UNL     1       2.177   4.582  21.768  0.00  0.00    +0.000 OA
BRANCH  17  19
ATOM     19  C   UNL     1       2.095   6.097  19.956  0.00  0.00    +0.000 C 
ATOM     20  C   UNL     1       1.569   7.064  20.722  0.00  0.00    +0.000 C 
BRANCH  20  21
ATOM     21  C   UNL     1       1.391   8.457  20.305  0.00  0.00    +0.000 A 
ATOM     22  C   UNL     1       1.853   8.812  19.028  0.00  0.00    +0.000 A 
ATOM     23  C   UNL     1       1.606  10.089  18.527  0.00  0.00    +0.000 A 
ATOM     24  C   UNL     1       0.900  11.031  19.270  0.00  0.00    +0.000 A 
ATOM     25  C   UNL     1       0.435  10.702  20.542  0.00  0.00    +0.000 A 
ATOM     26  C   UNL     1       0.691   9.421  21.051  0.00  0.00    +0.000 A 
BRANCH  26  27
ATOM     27  N   UNL     1       0.193   9.116  22.381  0.00  0.00    +0.000 N 
ATOM     28  O   UNL     1      -0.792   8.371  22.461  0.00  0.00    +0.000 OA
ATOM     29  O   UNL     1       0.824   9.589  23.337  0.00  0.00    +0.000 OA
ENDBRANCH  26  27
BRANCH  23  30
ATOM     30  O   UNL     1       2.033  10.458  17.286  0.00  0.00    +0.000 OA
ATOM     31  H   UNL     1       1.751  11.370  17.104  0.00  0.00    +0.000 HD
ENDBRANCH  23  30
ENDBRANCH  20  21
ENDBRANCH  17  19
ENDBRANCH   1  17
TORSDOF 10
ENDMDL
