MODEL 1
REMARK VINA RESULT:      -8.7      0.000      0.000
REMARK  Name = 
REMARK  4 active torsions:
REMARK  status: ('A' for Active; 'I' for Inactive)
REMARK    1  A    between atoms: C_5  and  N_6
REMARK    2  A    between atoms: C_10  and  C_11
REMARK    3  A    between atoms: N_14  and  C_15
REMARK    4  A    between atoms: C_15  and  C_16
REMARK                            x       y       z     vdW  Elec       q    Type
REMARK                         _______ _______ _______ _____ _____    ______ ____
ROOT
ATOM      1  N   UNL     1       0.879  10.344  18.891  0.00  0.00    +0.000 N 
ATOM      2  C   UNL     1       1.742   9.827  17.840  0.00  0.00    +0.000 C 
ATOM      3  C   UNL     1       2.190   8.525  18.413  0.00  0.00    +0.000 A 
ATOM      4  C   UNL     1       3.032   7.562  17.890  0.00  0.00    +0.000 A 
ATOM      5  C   UNL     1       3.279   6.399  18.652  0.00  0.00    +0.000 A 
ATOM      6  C   UNL     1       2.732   6.275  19.952  0.00  0.00    +0.000 A 
ATOM      7  C   UNL     1       1.866   7.237  20.458  0.00  0.00    +0.000 A 
ATOM      8  C   UNL     1       1.599   8.320  19.652  0.00  0.00    +0.000 A 
ATOM      9  C   UNL     1       0.699   9.433  19.911  0.00  0.00    +0.000 C 
ATOM     10  O   UNL     1      -0.068   9.474  20.851  0.00  0.00    +0.000 OA
ENDROOT
BRANCH   1  15
ATOM     11  O   UNL     1      -0.822  12.962  22.594  0.00  0.00    +0.000 OA
ATOM     12  C   UNL     1      -0.486  12.642  21.454  0.00  0.00    +0.000 C 
ATOM     13  C   UNL     1       0.930  12.826  20.958  0.00  0.00    +0.000 C 
ATOM     14  C   UNL     1       1.037  12.783  19.442  0.00  0.00    +0.000 C 
ATOM     15  C   UNL     1       0.239  11.649  18.802  0.00  0.00    +0.000 C 
ATOM     16  C   UNL     1      -1.189  11.573  19.339  0.00  0.00    +0.000 C 
ATOM     17  O   UNL     1      -2.088  10.994  18.730  0.00  0.00    +0.000 OA
ATOM     18  N   UNL     1      -1.402  12.098  20.589  0.00  0.00    +0.000 N 
ATOM     19  H   UNL     1      -2.327  11.955  20.971  0.00  0.00    +0.000 HD
ENDBRANCH   1  15
BRANCH   5  20
ATOM     20  C   UNL     1       4.103   5.243  18.118  0.00  0.00    +0.000 C 
ATOM     21  C   UNL     1       5.381   5.029  18.916  0.00  0.00    +0.000 C 
ATOM     22  C   UNL     1       6.412   5.811  18.126  0.00  0.00    +0.000 C 
ATOM     23  N   UNL     1       6.060   5.602  16.710  0.00  0.00    +0.000 NA
ATOM     24  C   UNL     1       4.589   5.426  16.670  0.00  0.00    +0.000 C 
BRANCH  23  25
ATOM     25  C   UNL     1       6.757   4.422  16.170  0.00  0.00    +0.000 C 
BRANCH  25  26
ATOM     26  C   UNL     1       6.819   4.402  14.658  0.00  0.00    +0.000 A 
ATOM     27  C   UNL     1       7.713   5.232  13.966  0.00  0.00    +0.000 A 
ATOM     28  C   UNL     1       7.772   5.200  12.572  0.00  0.00    +0.000 A 
ATOM     29  C   UNL     1       6.938   4.342  11.857  0.00  0.00    +0.000 A 
ATOM     30  C   UNL     1       6.038   3.520  12.532  0.00  0.00    +0.000 A 
ATOM     31  C   UNL     1       5.978   3.550  13.926  0.00  0.00    +0.000 A 
ENDBRANCH  25  26
ENDBRANCH  23  25
ENDBRANCH   5  20
TORSDOF 4
ENDMDL
MODEL 2
REMARK VINA RESULT:      -8.7      3.473     10.597
REMARK  Name = 
REMARK  4 active torsions:
REMARK  status: ('A' for Active; 'I' for Inactive)
REMARK    1  A    between atoms: C_5  and  N_6
REMARK    2  A    between atoms: C_10  and  C_11
REMARK    3  A    between atoms: N_14  and  C_15
REMARK    4  A    between atoms: C_15  and  C_16
REMARK                            x       y       z     vdW  Elec       q    Type
REMARK                         _______ _______ _______ _____ _____    ______ ____
ROOT
ATOM      1  N   UNL     1       3.785   6.067  18.200  0.00  0.00    +0.000 N 
ATOM      2  C   UNL     1       3.485   7.338  17.558  0.00  0.00    +0.000 C 
ATOM      3  C   UNL     1       2.523   7.954  18.516  0.00  0.00    +0.000 A 
ATOM      4  C   UNL     1       1.869   9.170  18.466  0.00  0.00    +0.000 A 
ATOM      5  C   UNL     1       1.009   9.516  19.531  0.00  0.00    +0.000 A 
ATOM      6  C   UNL     1       0.772   8.593  20.578  0.00  0.00    +0.000 A 
ATOM      7  C   UNL     1       1.454   7.383  20.632  0.00  0.00    +0.000 A 
ATOM      8  C   UNL     1       2.335   7.119  19.609  0.00  0.00    +0.000 A 
ATOM      9  C   UNL     1       3.206   5.965  19.448  0.00  0.00    +0.000 C 
ATOM     10  O   UNL     1       3.373   5.123  20.306  0.00  0.00    +0.000 OA
ENDROOT
BRANCH   1  15
ATOM     11  O   UNL     1       3.753   1.301  19.062  0.00  0.00    +0.000 OA
ATOM     12  C   UNL     1       4.030   2.389  18.560  0.00  0.00    +0.000 C 
ATOM     13  C   UNL     1       3.211   2.981  17.435  0.00  0.00    +0.000 C 
ATOM     14  C   UNL     1       3.945   4.080  16.682  0.00  0.00    +0.000 C 
ATOM     15  C   UNL     1       4.661   5.075  17.593  0.00  0.00    +0.000 C 
ATOM     16  C   UNL     1       5.493   4.379  18.668  0.00  0.00    +0.000 C 
ATOM     17  O   UNL     1       6.408   4.950  19.261  0.00  0.00    +0.000 OA
ATOM     18  N   UNL     1       5.107   3.109  19.015  0.00  0.00    +0.000 N 
ATOM     19  H   UNL     1       5.604   2.697  19.793  0.00  0.00    +0.000 HD
ENDBRANCH   1  15
BRANCH   5  20
ATOM     20  C   UNL     1       0.331  10.871  19.615  0.00  0.00    +0.000 C 
ATOM     21  C   UNL     1       0.925  11.745  20.711  0.00  0.00    +0.000 C 
ATOM     22  C   UNL     1       0.006  11.484  21.889  0.00  0.00    +0.000 C 
ATOM     23  N   UNL     1      -1.345  11.367  21.313  0.00  0.00    +0.000 NA
ATOM     24  C   UNL     1      -1.168  10.811  19.950  0.00  0.00    +0.000 C 
BRANCH  23  25
ATOM     25  C   UNL     1      -2.010  12.680  21.276  0.00  0.00    +0.000 C 
BRANCH  25  26
ATOM     26  C   UNL     1      -3.217  12.768  22.185  0.00  0.00    +0.000 A 
ATOM     27  C   UNL     1      -3.104  12.494  23.555  0.00  0.00    +0.000 A 
ATOM     28  C   UNL     1      -4.220  12.588  24.389  0.00  0.00    +0.000 A 
ATOM     29  C   UNL     1      -5.457  12.952  23.861  0.00  0.00    +0.000 A 
ATOM     30  C   UNL     1      -5.585  13.217  22.499  0.00  0.00    +0.000 A 
ATOM     31  C   UNL     1      -4.471  13.124  21.664  0.00  0.00    +0.000 A 
ENDBRANCH  25  26
ENDBRANCH  23  25
ENDBRANCH   5  20
TORSDOF 4
ENDMDL
MODEL 3
REMARK VINA RESULT:      -8.7      3.480     10.224
REMARK  Name = 
REMARK  4 active torsions:
REMARK  status: ('A' for Active; 'I' for Inactive)
REMARK    1  A    between atoms: C_5  and  N_6
REMARK    2  A    between atoms: C_10  and  C_11
REMARK    3  A    between atoms: N_14  and  C_15
REMARK    4  A    between atoms: C_15  and  C_16
REMARK                            x       y       z     vdW  Elec       q    Type
REMARK                         _______ _______ _______ _____ _____    ______ ____
ROOT
ATOM      1  N   UNL     1       3.747   6.090  18.237  0.00  0.00    +0.000 N 
ATOM      2  C   UNL     1       3.406   7.347  17.586  0.00  0.00    +0.000 C 
ATOM      3  C   UNL     1       2.441   7.949  18.551  0.00  0.00    +0.000 A 
ATOM      4  C   UNL     1       1.756   9.148  18.497  0.00  0.00    +0.000 A 
ATOM      5  C   UNL     1       0.901   9.483  19.569  0.00  0.00    +0.000 A 
ATOM      6  C   UNL     1       0.702   8.565  20.629  0.00  0.00    +0.000 A 
ATOM      7  C   UNL     1       1.414   7.374  20.686  0.00  0.00    +0.000 A 
ATOM      8  C   UNL     1       2.289   7.121  19.654  0.00  0.00    +0.000 A 
ATOM      9  C   UNL     1       3.186   5.988  19.494  0.00  0.00    +0.000 C 
ATOM     10  O   UNL     1       3.385   5.159  20.357  0.00  0.00    +0.000 OA
ENDROOT
BRANCH   1  15
ATOM     11  O   UNL     1       3.782   1.321  19.076  0.00  0.00    +0.000 OA
ATOM     12  C   UNL     1       4.045   2.415  18.580  0.00  0.00    +0.000 C 
ATOM     13  C   UNL     1       3.221   3.001  17.455  0.00  0.00    +0.000 C 
ATOM     14  C   UNL     1       3.941   4.114  16.711  0.00  0.00    +0.000 C 
ATOM     15  C   UNL     1       4.639   5.115  17.628  0.00  0.00    +0.000 C 
ATOM     16  C   UNL     1       5.478   4.426  18.703  0.00  0.00    +0.000 C 
ATOM     17  O   UNL     1       6.382   5.008  19.303  0.00  0.00    +0.000 OA
ATOM     18  N   UNL     1       5.109   3.149  19.043  0.00  0.00    +0.000 N 
ATOM     19  H   UNL     1       5.610   2.741  19.821  0.00  0.00    +0.000 HD
ENDBRANCH   1  15
BRANCH   5  20
ATOM     20  C   UNL     1       0.191  10.821  19.649  0.00  0.00    +0.000 C 
ATOM     21  C   UNL     1       1.117  11.985  19.324  0.00  0.00    +0.000 C 
ATOM     22  C   UNL     1       1.593  12.432  20.693  0.00  0.00    +0.000 C 
ATOM     23  N   UNL     1       0.426  12.289  21.580  0.00  0.00    +0.000 NA
ATOM     24  C   UNL     1      -0.370  11.160  21.040  0.00  0.00    +0.000 C 
BRANCH  23  25
ATOM     25  C   UNL     1      -0.360  13.534  21.610  0.00  0.00    +0.000 C 
BRANCH  25  26
ATOM     26  C   UNL     1      -1.805  13.322  22.009  0.00  0.00    +0.000 A 
ATOM     27  C   UNL     1      -2.839  13.499  21.079  0.00  0.00    +0.000 A 
ATOM     28  C   UNL     1      -4.168  13.291  21.452  0.00  0.00    +0.000 A 
ATOM     29  C   UNL     1      -4.475  12.908  22.757  0.00  0.00    +0.000 A 
ATOM     30  C   UNL     1      -3.458  12.739  23.692  0.00  0.00    +0.000 A 
ATOM     31  C   UNL     1      -2.129  12.946  23.322  0.00  0.00    +0.000 A 
ENDBRANCH  25  26
ENDBRANCH  23  25
ENDBRANCH   5  20
TORSDOF 4
ENDMDL
MODEL 4
REMARK VINA RESULT:      -8.6      1.417      2.015
REMARK  Name = 
REMARK  4 active torsions:
REMARK  status: ('A' for Active; 'I' for Inactive)
REMARK    1  A    between atoms: C_5  and  N_6
REMARK    2  A    between atoms: C_10  and  C_11
REMARK    3  A    between atoms: N_14  and  C_15
REMARK    4  A    between atoms: C_15  and  C_16
REMARK                            x       y       z     vdW  Elec       q    Type
REMARK                         _______ _______ _______ _____ _____    ______ ____
ROOT
ATOM      1  N   UNL     1       1.107   9.713  19.894  0.00  0.00    +0.000 N 
ATOM      2  C   UNL     1       1.747   9.265  18.667  0.00  0.00    +0.000 C 
ATOM      3  C   UNL     1       2.122   7.861  19.003  0.00  0.00    +0.000 A 
ATOM      4  C   UNL     1       2.767   6.904  18.244  0.00  0.00    +0.000 A 
ATOM      5  C   UNL     1       2.988   5.630  18.813  0.00  0.00    +0.000 A 
ATOM      6  C   UNL     1       2.622   5.383  20.158  0.00  0.00    +0.000 A 
ATOM      7  C   UNL     1       1.951   6.345  20.905  0.00  0.00    +0.000 A 
ATOM      8  C   UNL     1       1.695   7.546  20.286  0.00  0.00    +0.000 A 
ATOM      9  C   UNL     1       0.973   8.693  20.813  0.00  0.00    +0.000 C 
ATOM     10  O   UNL     1       0.358   8.679  21.860  0.00  0.00    +0.000 OA
ENDROOT
BRANCH   1  15
ATOM     11  O   UNL     1      -2.150  11.947  17.091  0.00  0.00    +0.000 OA
ATOM     12  C   UNL     1      -1.375  11.723  18.020  0.00  0.00    +0.000 C 
ATOM     13  C   UNL     1      -1.804  10.957  19.251  0.00  0.00    +0.000 C 
ATOM     14  C   UNL     1      -0.867  11.160  20.431  0.00  0.00    +0.000 C 
ATOM     15  C   UNL     1       0.612  11.072  20.063  0.00  0.00    +0.000 C 
ATOM     16  C   UNL     1       0.952  11.913  18.833  0.00  0.00    +0.000 C 
ATOM     17  O   UNL     1       2.102  12.270  18.580  0.00  0.00    +0.000 OA
ATOM     18  N   UNL     1      -0.077  12.168  17.962  0.00  0.00    +0.000 N 
ATOM     19  H   UNL     1       0.180  12.641  17.107  0.00  0.00    +0.000 HD
ENDBRANCH   1  15
BRANCH   5  20
ATOM     20  C   UNL     1       3.592   4.485  18.022  0.00  0.00    +0.000 C 
ATOM     21  C   UNL     1       4.812   3.890  18.710  0.00  0.00    +0.000 C 
ATOM     22  C   UNL     1       5.965   4.627  18.057  0.00  0.00    +0.000 C 
ATOM     23  N   UNL     1       5.579   4.782  16.644  0.00  0.00    +0.000 NA
ATOM     24  C   UNL     1       4.100   4.878  16.625  0.00  0.00    +0.000 C 
BRANCH  23  25
ATOM     25  C   UNL     1       6.054   3.638  15.847  0.00  0.00    +0.000 C 
BRANCH  25  26
ATOM     26  C   UNL     1       6.497   4.021  14.451  0.00  0.00    +0.000 A 
ATOM     27  C   UNL     1       7.435   5.044  14.253  0.00  0.00    +0.000 A 
ATOM     28  C   UNL     1       7.848   5.384  12.963  0.00  0.00    +0.000 A 
ATOM     29  C   UNL     1       7.324   4.708  11.862  0.00  0.00    +0.000 A 
ATOM     30  C   UNL     1       6.384   3.698  12.045  0.00  0.00    +0.000 A 
ATOM     31  C   UNL     1       5.970   3.355  13.333  0.00  0.00    +0.000 A 
ENDBRANCH  25  26
ENDBRANCH  23  25
ENDBRANCH   5  20
TORSDOF 4
ENDMDL
MODEL 5
REMARK VINA RESULT:      -8.5      3.402     10.398
REMARK  Name = 
REMARK  4 active torsions:
REMARK  status: ('A' for Active; 'I' for Inactive)
REMARK    1  A    between atoms: C_5  and  N_6
REMARK    2  A    between atoms: C_10  and  C_11
REMARK    3  A    between atoms: N_14  and  C_15
REMARK    4  A    between atoms: C_15  and  C_16
REMARK                            x       y       z     vdW  Elec       q    Type
REMARK                         _______ _______ _______ _____ _____    ______ ____
ROOT
ATOM      1  N   UNL     1       3.867   6.138  18.131  0.00  0.00    +0.000 N 
ATOM      2  C   UNL     1       3.591   7.375  17.416  0.00  0.00    +0.000 C 
ATOM      3  C   UNL     1       2.612   8.047  18.317  0.00  0.00    +0.000 A 
ATOM      4  C   UNL     1       1.969   9.263  18.188  0.00  0.00    +0.000 A 
ATOM      5  C   UNL     1       1.087   9.671  19.213  0.00  0.00    +0.000 A 
ATOM      6  C   UNL     1       0.820   8.806  20.302  0.00  0.00    +0.000 A 
ATOM      7  C   UNL     1       1.491   7.596  20.436  0.00  0.00    +0.000 A 
ATOM      8  C   UNL     1       2.393   7.273  19.448  0.00  0.00    +0.000 A 
ATOM      9  C   UNL     1       3.259   6.107  19.369  0.00  0.00    +0.000 C 
ATOM     10  O   UNL     1       3.400   5.310  20.273  0.00  0.00    +0.000 OA
ENDROOT
BRANCH   1  15
ATOM     11  O   UNL     1       3.788   1.427  19.252  0.00  0.00    +0.000 OA
ATOM     12  C   UNL     1       4.082   2.485  18.697  0.00  0.00    +0.000 C 
ATOM     13  C   UNL     1       3.289   3.018  17.524  0.00  0.00    +0.000 C 
ATOM     14  C   UNL     1       4.045   4.070  16.728  0.00  0.00    +0.000 C 
ATOM     15  C   UNL     1       4.749   5.110  17.597  0.00  0.00    +0.000 C 
ATOM     16  C   UNL     1       5.555   4.470  18.725  0.00  0.00    +0.000 C 
ATOM     17  O   UNL     1       6.461   5.068  19.306  0.00  0.00    +0.000 OA
ATOM     18  N   UNL     1       5.153   3.223  19.134  0.00  0.00    +0.000 N 
ATOM     19  H   UNL     1       5.633   2.852  19.943  0.00  0.00    +0.000 HD
ENDBRANCH   1  15
BRANCH   5  20
ATOM     20  C   UNL     1       0.418  11.032  19.210  0.00  0.00    +0.000 C 
ATOM     21  C   UNL     1       0.905  11.916  20.349  0.00  0.00    +0.000 C 
ATOM     22  C   UNL     1      -0.132  11.680  21.430  0.00  0.00    +0.000 C 
ATOM     23  N   UNL     1      -1.418  11.566  20.720  0.00  0.00    +0.000 NA
ATOM     24  C   UNL     1      -1.109  10.990  19.390  0.00  0.00    +0.000 C 
BRANCH  23  25
ATOM     25  C   UNL     1      -2.062  12.885  20.598  0.00  0.00    +0.000 C 
BRANCH  25  26
ATOM     26  C   UNL     1      -3.540  12.863  20.927  0.00  0.00    +0.000 A 
ATOM     27  C   UNL     1      -4.492  12.593  19.934  0.00  0.00    +0.000 A 
ATOM     28  C   UNL     1      -5.852  12.564  20.248  0.00  0.00    +0.000 A 
ATOM     29  C   UNL     1      -6.272  12.808  21.554  0.00  0.00    +0.000 A 
ATOM     30  C   UNL     1      -5.337  13.089  22.548  0.00  0.00    +0.000 A 
ATOM     31  C   UNL     1      -3.977  13.117  22.237  0.00  0.00    +0.000 A 
ENDBRANCH  25  26
ENDBRANCH  23  25
ENDBRANCH   5  20
TORSDOF 4
ENDMDL
MODEL 6
REMARK VINA RESULT:      -8.4      3.567      9.588
REMARK  Name = 
REMARK  4 active torsions:
REMARK  status: ('A' for Active; 'I' for Inactive)
REMARK    1  A    between atoms: C_5  and  N_6
REMARK    2  A    between atoms: C_10  and  C_11
REMARK    3  A    between atoms: N_14  and  C_15
REMARK    4  A    between atoms: C_15  and  C_16
REMARK                            x       y       z     vdW  Elec       q    Type
REMARK                         _______ _______ _______ _____ _____    ______ ____
ROOT
ATOM      1  N   UNL     1       3.336   6.342  18.411  0.00  0.00    +0.000 N 
ATOM      2  C   UNL     1       2.961   7.652  17.901  0.00  0.00    +0.000 C 
ATOM      3  C   UNL     1       2.062   8.162  18.976  0.00  0.00    +0.000 A 
ATOM      4  C   UNL     1       1.380   9.360  19.075  0.00  0.00    +0.000 A 
ATOM      5  C   UNL     1       0.597   9.595  20.227  0.00  0.00    +0.000 A 
ATOM      6  C   UNL     1       0.461   8.584  21.209  0.00  0.00    +0.000 A 
ATOM      7  C   UNL     1       1.171   7.393  21.111  0.00  0.00    +0.000 A 
ATOM      8  C   UNL     1       1.976   7.237  20.007  0.00  0.00    +0.000 A 
ATOM      9  C   UNL     1       2.856   6.124  19.686  0.00  0.00    +0.000 C 
ATOM     10  O   UNL     1       3.106   5.220  20.456  0.00  0.00    +0.000 OA
ENDROOT
BRANCH   1  15
ATOM     11  O   UNL     1       4.251   1.717  19.519  0.00  0.00    +0.000 OA
ATOM     12  C   UNL     1       4.228   2.782  18.903  0.00  0.00    +0.000 C 
ATOM     13  C   UNL     1       3.081   3.150  17.989  0.00  0.00    +0.000 C 
ATOM     14  C   UNL     1       3.433   4.264  17.016  0.00  0.00    +0.000 C 
ATOM     15  C   UNL     1       4.184   5.428  17.660  0.00  0.00    +0.000 C 
ATOM     16  C   UNL     1       5.347   4.954  18.529  0.00  0.00    +0.000 C 
ATOM     17  O   UNL     1       6.277   5.697  18.841  0.00  0.00    +0.000 OA
ATOM     18  N   UNL     1       5.257   3.681  19.033  0.00  0.00    +0.000 N 
ATOM     19  H   UNL     1       5.984   3.415  19.683  0.00  0.00    +0.000 HD
ENDBRANCH   1  15
BRANCH   5  20
ATOM     20  C   UNL     1      -0.100  10.920  20.473  0.00  0.00    +0.000 C 
ATOM     21  C   UNL     1      -1.067  11.279  19.354  0.00  0.00    +0.000 C 
ATOM     22  C   UNL     1      -0.230  12.166  18.453  0.00  0.00    +0.000 C 
ATOM     23  N   UNL     1       0.604  12.970  19.362  0.00  0.00    +0.000 NA
ATOM     24  C   UNL     1       0.846  12.129  20.559  0.00  0.00    +0.000 C 
BRANCH  23  25
ATOM     25  C   UNL     1      -0.077  14.227  19.718  0.00  0.00    +0.000 C 
BRANCH  25  26
ATOM     26  C   UNL     1       0.459  15.431  18.973  0.00  0.00    +0.000 A 
ATOM     27  C   UNL     1       1.834  15.580  18.746  0.00  0.00    +0.000 A 
ATOM     28  C   UNL     1       2.319  16.688  18.049  0.00  0.00    +0.000 A 
ATOM     29  C   UNL     1       1.436  17.657  17.576  0.00  0.00    +0.000 A 
ATOM     30  C   UNL     1       0.069  17.526  17.804  0.00  0.00    +0.000 A 
ATOM     31  C   UNL     1      -0.419  16.419  18.500  0.00  0.00    +0.000 A 
ENDBRANCH  25  26
ENDBRANCH  23  25
ENDBRANCH   5  20
TORSDOF 4
ENDMDL
MODEL 7
REMARK VINA RESULT:      -8.4      3.485     10.526
REMARK  Name = 
REMARK  4 active torsions:
REMARK  status: ('A' for Active; 'I' for Inactive)
REMARK    1  A    between atoms: C_5  and  N_6
REMARK    2  A    between atoms: C_10  and  C_11
REMARK    3  A    between atoms: N_14  and  C_15
REMARK    4  A    between atoms: C_15  and  C_16
REMARK                            x       y       z     vdW  Elec       q    Type
REMARK                         _______ _______ _______ _____ _____    ______ ____
ROOT
ATOM      1  N   UNL     1       3.592   6.175  18.100  0.00  0.00    +0.000 N 
ATOM      2  C   UNL     1       3.227   7.379  17.368  0.00  0.00    +0.000 C 
ATOM      3  C   UNL     1       2.335   8.077  18.338  0.00  0.00    +0.000 A 
ATOM      4  C   UNL     1       1.664   9.280  18.227  0.00  0.00    +0.000 A 
ATOM      5  C   UNL     1       0.885   9.720  19.319  0.00  0.00    +0.000 A 
ATOM      6  C   UNL     1       0.742   8.898  20.463  0.00  0.00    +0.000 A 
ATOM      7  C   UNL     1       1.441   7.702  20.576  0.00  0.00    +0.000 A 
ATOM      8  C   UNL     1       2.244   7.348  19.515  0.00  0.00    +0.000 A 
ATOM      9  C   UNL     1       3.114   6.188  19.394  0.00  0.00    +0.000 C 
ATOM     10  O   UNL     1       3.357   5.431  20.311  0.00  0.00    +0.000 OA
ENDROOT
BRANCH   1  15
ATOM     11  O   UNL     1       4.464   1.805  19.997  0.00  0.00    +0.000 OA
ATOM     12  C   UNL     1       4.450   2.746  19.205  0.00  0.00    +0.000 C 
ATOM     13  C   UNL     1       3.306   2.961  18.239  0.00  0.00    +0.000 C 
ATOM     14  C   UNL     1       3.669   3.885  17.088  0.00  0.00    +0.000 C 
ATOM     15  C   UNL     1       4.431   5.136  17.521  0.00  0.00    +0.000 C 
ATOM     16  C   UNL     1       5.590   4.810  18.460  0.00  0.00    +0.000 C 
ATOM     17  O   UNL     1       6.528   5.587  18.640  0.00  0.00    +0.000 OA
ATOM     18  N   UNL     1       5.488   3.644  19.178  0.00  0.00    +0.000 N 
ATOM     19  H   UNL     1       6.213   3.489  19.865  0.00  0.00    +0.000 HD
ENDBRANCH   1  15
BRANCH   5  20
ATOM     20  C   UNL     1       0.199  11.073  19.330  0.00  0.00    +0.000 C 
ATOM     21  C   UNL     1       1.185  12.217  19.515  0.00  0.00    +0.000 C 
ATOM     22  C   UNL     1       1.148  12.459  21.012  0.00  0.00    +0.000 C 
ATOM     23  N   UNL     1      -0.258  12.265  21.405  0.00  0.00    +0.000 NA
ATOM     24  C   UNL     1      -0.817  11.260  20.470  0.00  0.00    +0.000 C 
BRANCH  23  25
ATOM     25  C   UNL     1      -0.998  13.537  21.331  0.00  0.00    +0.000 C 
BRANCH  25  26
ATOM     26  C   UNL     1      -1.590  13.964  22.658  0.00  0.00    +0.000 A 
ATOM     27  C   UNL     1      -0.927  14.891  23.474  0.00  0.00    +0.000 A 
ATOM     28  C   UNL     1      -1.485  15.289  24.690  0.00  0.00    +0.000 A 
ATOM     29  C   UNL     1      -2.708  14.762  25.102  0.00  0.00    +0.000 A 
ATOM     30  C   UNL     1      -3.371  13.832  24.306  0.00  0.00    +0.000 A 
ATOM     31  C   UNL     1      -2.816  13.434  23.089  0.00  0.00    +0.000 A 
ENDBRANCH  25  26
ENDBRANCH  23  25
ENDBRANCH   5  20
TORSDOF 4
ENDMDL
MODEL 8
REMARK VINA RESULT:      -8.4      3.467     10.400
REMARK  Name = 
REMARK  4 active torsions:
REMARK  status: ('A' for Active; 'I' for Inactive)
REMARK    1  A    between atoms: C_5  and  N_6
REMARK    2  A    between atoms: C_10  and  C_11
REMARK    3  A    between atoms: N_14  and  C_15
REMARK    4  A    between atoms: C_15  and  C_16
REMARK                            x       y       z     vdW  Elec       q    Type
REMARK                         _______ _______ _______ _____ _____    ______ ____
ROOT
ATOM      1  N   UNL     1       4.025   6.199  18.147  0.00  0.00    +0.000 N 
ATOM      2  C   UNL     1       3.235   6.113  19.366  0.00  0.00    +0.000 C 
ATOM      3  C   UNL     1       2.418   7.359  19.299  0.00  0.00    +0.000 A 
ATOM      4  C   UNL     1       1.470   7.852  20.175  0.00  0.00    +0.000 A 
ATOM      5  C   UNL     1       0.829   9.069  19.856  0.00  0.00    +0.000 A 
ATOM      6  C   UNL     1       1.217   9.793  18.703  0.00  0.00    +0.000 A 
ATOM      7  C   UNL     1       2.153   9.276  17.816  0.00  0.00    +0.000 A 
ATOM      8  C   UNL     1       2.701   8.053  18.131  0.00  0.00    +0.000 A 
ATOM      9  C   UNL     1       3.653   7.269  17.361  0.00  0.00    +0.000 C 
ATOM     10  O   UNL     1       3.991   7.544  16.228  0.00  0.00    +0.000 OA
ENDROOT
BRANCH   1  15
ATOM     11  O   UNL     1       3.914   1.490  19.276  0.00  0.00    +0.000 OA
ATOM     12  C   UNL     1       4.268   2.557  18.777  0.00  0.00    +0.000 C 
ATOM     13  C   UNL     1       3.693   3.057  17.471  0.00  0.00    +0.000 C 
ATOM     14  C   UNL     1       4.546   4.137  16.823  0.00  0.00    +0.000 C 
ATOM     15  C   UNL     1       5.031   5.205  17.800  0.00  0.00    +0.000 C 
ATOM     16  C   UNL     1       5.632   4.599  19.067  0.00  0.00    +0.000 C 
ATOM     17  O   UNL     1       6.387   5.233  19.803  0.00  0.00    +0.000 OA
ATOM     18  N   UNL     1       5.208   3.338  19.403  0.00  0.00    +0.000 N 
ATOM     19  H   UNL     1       5.538   2.988  20.292  0.00  0.00    +0.000 HD
ENDBRANCH   1  15
BRANCH   5  20
ATOM     20  C   UNL     1      -0.298   9.634  20.701  0.00  0.00    +0.000 C 
ATOM     21  C   UNL     1      -0.940  10.857  20.061  0.00  0.00    +0.000 C 
ATOM     22  C   UNL     1      -0.200  12.010  20.712  0.00  0.00    +0.000 C 
ATOM     23  N   UNL     1       0.013  11.597  22.111  0.00  0.00    +0.000 NA
ATOM     24  C   UNL     1       0.136  10.120  22.094  0.00  0.00    +0.000 C 
BRANCH  23  25
ATOM     25  C   UNL     1      -1.110  12.034  22.958  0.00  0.00    +0.000 C 
BRANCH  25  26
ATOM     26  C   UNL     1      -1.518  13.472  22.719  0.00  0.00    +0.000 A 
ATOM     27  C   UNL     1      -0.657  14.527  23.053  0.00  0.00    +0.000 A 
ATOM     28  C   UNL     1      -1.036  15.849  22.819  0.00  0.00    +0.000 A 
ATOM     29  C   UNL     1      -2.279  16.130  22.253  0.00  0.00    +0.000 A 
ATOM     30  C   UNL     1      -3.148  15.091  21.927  0.00  0.00    +0.000 A 
ATOM     31  C   UNL     1      -2.770  13.768  22.159  0.00  0.00    +0.000 A 
ENDBRANCH  25  26
ENDBRANCH  23  25
ENDBRANCH   5  20
TORSDOF 4
ENDMDL
MODEL 9
REMARK VINA RESULT:      -8.3      3.267     10.287
REMARK  Name = 
REMARK  4 active torsions:
REMARK  status: ('A' for Active; 'I' for Inactive)
REMARK    1  A    between atoms: C_5  and  N_6
REMARK    2  A    between atoms: C_10  and  C_11
REMARK    3  A    between atoms: N_14  and  C_15
REMARK    4  A    between atoms: C_15  and  C_16
REMARK                            x       y       z     vdW  Elec       q    Type
REMARK                         _______ _______ _______ _____ _____    ______ ____
ROOT
ATOM      1  N   UNL     1       4.118   5.816  18.749  0.00  0.00    +0.000 N 
ATOM      2  C   UNL     1       3.260   5.914  19.920  0.00  0.00    +0.000 C 
ATOM      3  C   UNL     1       2.453   7.131  19.618  0.00  0.00    +0.000 A 
ATOM      4  C   UNL     1       1.460   7.748  20.353  0.00  0.00    +0.000 A 
ATOM      5  C   UNL     1       0.842   8.899  19.816  0.00  0.00    +0.000 A 
ATOM      6  C   UNL     1       1.297   9.440  18.589  0.00  0.00    +0.000 A 
ATOM      7  C   UNL     1       2.279   8.797  17.846  0.00  0.00    +0.000 A 
ATOM      8  C   UNL     1       2.803   7.640  18.375  0.00  0.00    +0.000 A 
ATOM      9  C   UNL     1       3.795   6.752  17.788  0.00  0.00    +0.000 C 
ATOM     10  O   UNL     1       4.196   6.851  16.647  0.00  0.00    +0.000 OA
ENDROOT
BRANCH   1  15
ATOM     11  O   UNL     1       7.640   5.684  15.426  0.00  0.00    +0.000 OA
ATOM     12  C   UNL     1       6.958   5.396  16.409  0.00  0.00    +0.000 C 
ATOM     13  C   UNL     1       7.183   6.048  17.755  0.00  0.00    +0.000 C 
ATOM     14  C   UNL     1       6.558   5.269  18.902  0.00  0.00    +0.000 C 
ATOM     15  C   UNL     1       5.138   4.786  18.615  0.00  0.00    +0.000 C 
ATOM     16  C   UNL     1       5.024   4.106  17.251  0.00  0.00    +0.000 C 
ATOM     17  O   UNL     1       4.097   3.346  16.973  0.00  0.00    +0.000 OA
ATOM     18  N   UNL     1       5.956   4.463  16.309  0.00  0.00    +0.000 N 
ATOM     19  H   UNL     1       5.812   4.080  15.385  0.00  0.00    +0.000 HD
ENDBRANCH   1  15
BRANCH   5  20
ATOM     20  C   UNL     1      -0.328   9.581  20.500  0.00  0.00    +0.000 C 
ATOM     21  C   UNL     1      -0.566  10.987  19.968  0.00  0.00    +0.000 C 
ATOM     22  C   UNL     1       0.199  11.856  20.948  0.00  0.00    +0.000 C 
ATOM     23  N   UNL     1      -0.002  11.229  22.266  0.00  0.00    +0.000 NA
ATOM     24  C   UNL     1      -0.152   9.775  22.015  0.00  0.00    +0.000 C 
BRANCH  23  25
ATOM     25  C   UNL     1      -1.193  11.785  22.930  0.00  0.00    +0.000 C 
BRANCH  25  26
ATOM     26  C   UNL     1      -1.463  13.229  22.565  0.00  0.00    +0.000 A 
ATOM     27  C   UNL     1      -2.558  13.572  21.759  0.00  0.00    +0.000 A 
ATOM     28  C   UNL     1      -2.808  14.907  21.436  0.00  0.00    +0.000 A 
ATOM     29  C   UNL     1      -1.964  15.910  21.911  0.00  0.00    +0.000 A 
ATOM     30  C   UNL     1      -0.867  15.581  22.704  0.00  0.00    +0.000 A 
ATOM     31  C   UNL     1      -0.616  14.248  23.029  0.00  0.00    +0.000 A 
ENDBRANCH  25  26
ENDBRANCH  23  25
ENDBRANCH   5  20
TORSDOF 4
ENDMDL
