MODEL 1
REMARK VINA RESULT:      -8.4      0.000      0.000
REMARK  Name = 
REMARK  5 active torsions:
REMARK  status: ('A' for Active; 'I' for Inactive)
REMARK    1  A    between atoms: C_1  and  C_2
REMARK    2  A    between atoms: C_12  and  C_13
REMARK    3  A    between atoms: C_16  and  O_17
REMARK    4  A    between atoms: O_17  and  C_18
REMARK    5  A    between atoms: C_27  and  O_28
REMARK                            x       y       z     vdW  Elec       q    Type
REMARK                         _______ _______ _______ _____ _____    ______ ____
ROOT
ATOM      1  C   UNL     1       1.457   4.302  17.454  0.00  0.00    +0.000 C 
ATOM      2  C   UNL     1       2.595   4.080  18.423  0.00  0.00    +0.000 A 
ATOM      3  C   UNL     1       2.445   2.971  19.280  0.00  0.00    +0.000 A 
ATOM      4  C   UNL     1       3.525   2.433  19.964  0.00  0.00    +0.000 A 
ATOM      5  C   UNL     1       4.791   2.970  19.774  0.00  0.00    +0.000 A 
ATOM      6  C   UNL     1       4.993   4.100  18.956  0.00  0.00    +0.000 A 
ATOM      7  C   UNL     1       3.860   4.711  18.338  0.00  0.00    +0.000 A 
ATOM      8  N   UNL     1       4.035   5.918  17.598  0.00  0.00    +0.000 N 
ATOM      9  C   UNL     1       5.098   6.158  16.743  0.00  0.00    +0.000 A 
ATOM     10  N   UNL     1       5.032   7.369  16.249  0.00  0.00    +0.000 NA
ATOM     11  N   UNL     1       3.926   7.960  16.762  0.00  0.00    +0.000 NA
ATOM     12  C   UNL     1       3.301   7.110  17.563  0.00  0.00    +0.000 A 
ATOM     13  C   UNL     1       6.136   5.157  16.421  0.00  0.00    +0.000 C 
ATOM     14  C   UNL     1       7.088   4.991  17.592  0.00  0.00    +0.000 C 
ATOM     15  C   UNL     1       6.422   4.640  18.937  0.00  0.00    +0.000 C 
ENDROOT
BRANCH  12  16
ATOM     16  C   UNL     1       2.061   7.520  18.329  0.00  0.00    +0.000 C 
ATOM     17  C   UNL     1       2.305   7.486  19.845  0.00  0.00    +0.000 C 
ATOM     18  C   UNL     1       1.151   8.107  20.634  0.00  0.00    +0.000 C 
ATOM     19  C   UNL     1       0.856   9.550  20.213  0.00  0.00    +0.000 C 
ATOM     20  C   UNL     1       0.558   9.596  18.709  0.00  0.00    +0.000 C 
ATOM     21  C   UNL     1       1.641   8.940  17.862  0.00  0.00    +0.000 C 
BRANCH  19  22
ATOM     22  O   UNL     1      -0.338  10.016  20.857  0.00  0.00    +0.000 OA
BRANCH  22  23
ATOM     23  C   UNL     1      -0.310  11.308  21.350  0.00  0.00    +0.000 A 
ATOM     24  C   UNL     1      -1.143  11.564  22.424  0.00  0.00    +0.000 A 
ATOM     25  C   UNL     1      -1.154  12.843  22.974  0.00  0.00    +0.000 A 
ATOM     26  C   UNL     1      -0.332  13.819  22.421  0.00  0.00    +0.000 A 
ATOM     27  C   UNL     1       0.470  13.465  21.342  0.00  0.00    +0.000 A 
ATOM     28  N   UNL     1       0.503  12.229  20.795  0.00  0.00    +0.000 NA
ENDBRANCH  22  23
ENDBRANCH  19  22
ENDBRANCH  12  16
BRANCH  14  29
ATOM     29  O   UNL     1       8.082   4.012  17.258  0.00  0.00    +0.000 OA
ATOM     30  H   UNL     1       7.870   3.639  16.384  0.00  0.00    +0.000 HD
ENDBRANCH  14  29
TORSDOF 4
ENDMDL
MODEL 2
REMARK VINA RESULT:      -8.3      2.507      4.057
REMARK  Name = 
REMARK  5 active torsions:
REMARK  status: ('A' for Active; 'I' for Inactive)
REMARK    1  A    between atoms: C_1  and  C_2
REMARK    2  A    between atoms: C_12  and  C_13
REMARK    3  A    between atoms: C_16  and  O_17
REMARK    4  A    between atoms: O_17  and  C_18
REMARK    5  A    between atoms: C_27  and  O_28
REMARK                            x       y       z     vdW  Elec       q    Type
REMARK                         _______ _______ _______ _____ _____    ______ ____
ROOT
ATOM      1  C   UNL     1       5.944   6.794  18.595  0.00  0.00    +0.000 C 
ATOM      2  C   UNL     1       5.305   5.893  17.565  0.00  0.00    +0.000 A 
ATOM      3  C   UNL     1       5.877   5.953  16.279  0.00  0.00    +0.000 A 
ATOM      4  C   UNL     1       5.648   4.960  15.338  0.00  0.00    +0.000 A 
ATOM      5  C   UNL     1       4.871   3.860  15.678  0.00  0.00    +0.000 A 
ATOM      6  C   UNL     1       4.247   3.765  16.939  0.00  0.00    +0.000 A 
ATOM      7  C   UNL     1       4.403   4.842  17.864  0.00  0.00    +0.000 A 
ATOM      8  N   UNL     1       3.688   4.810  19.098  0.00  0.00    +0.000 N 
ATOM      9  C   UNL     1       3.529   3.673  19.875  0.00  0.00    +0.000 A 
ATOM     10  N   UNL     1       2.778   3.926  20.917  0.00  0.00    +0.000 NA
ATOM     11  N   UNL     1       2.424   5.233  20.860  0.00  0.00    +0.000 NA
ATOM     12  C   UNL     1       2.966   5.791  19.787  0.00  0.00    +0.000 A 
ATOM     13  C   UNL     1       4.157   2.373  19.566  0.00  0.00    +0.000 C 
ATOM     14  C   UNL     1       3.441   1.705  18.404  0.00  0.00    +0.000 C 
ATOM     15  C   UNL     1       3.336   2.554  17.122  0.00  0.00    +0.000 C 
ENDROOT
BRANCH  12  16
ATOM     16  C   UNL     1       2.690   7.236  19.431  0.00  0.00    +0.000 C 
ATOM     17  C   UNL     1       2.132   7.362  18.005  0.00  0.00    +0.000 C 
ATOM     18  C   UNL     1       1.634   8.775  17.698  0.00  0.00    +0.000 C 
ATOM     19  C   UNL     1       0.569   9.256  18.689  0.00  0.00    +0.000 C 
ATOM     20  C   UNL     1       1.127   9.186  20.117  0.00  0.00    +0.000 C 
ATOM     21  C   UNL     1       1.696   7.819  20.473  0.00  0.00    +0.000 C 
BRANCH  19  22
ATOM     22  O   UNL     1       0.271  10.639  18.458  0.00  0.00    +0.000 OA
BRANCH  22  23
ATOM     23  C   UNL     1      -1.068  10.988  18.439  0.00  0.00    +0.000 A 
ATOM     24  C   UNL     1      -1.846  10.349  17.491  0.00  0.00    +0.000 A 
ATOM     25  C   UNL     1      -3.204  10.648  17.427  0.00  0.00    +0.000 A 
ATOM     26  C   UNL     1      -3.729  11.582  18.314  0.00  0.00    +0.000 A 
ATOM     27  C   UNL     1      -2.866  12.171  19.231  0.00  0.00    +0.000 A 
ATOM     28  N   UNL     1      -1.546  11.893  19.316  0.00  0.00    +0.000 NA
ENDBRANCH  22  23
ENDBRANCH  19  22
ENDBRANCH  12  16
BRANCH  14  29
ATOM     29  O   UNL     1       4.071   0.448  18.120  0.00  0.00    +0.000 OA
ATOM     30  H   UNL     1       3.853   0.190  17.207  0.00  0.00    +0.000 HD
ENDBRANCH  14  29
TORSDOF 4
ENDMDL
MODEL 3
REMARK VINA RESULT:      -7.5      2.535      9.332
REMARK  Name = 
REMARK  5 active torsions:
REMARK  status: ('A' for Active; 'I' for Inactive)
REMARK    1  A    between atoms: C_1  and  C_2
REMARK    2  A    between atoms: C_12  and  C_13
REMARK    3  A    between atoms: C_16  and  O_17
REMARK    4  A    between atoms: O_17  and  C_18
REMARK    5  A    between atoms: C_27  and  O_28
REMARK                            x       y       z     vdW  Elec       q    Type
REMARK                         _______ _______ _______ _____ _____    ______ ____
ROOT
ATOM      1  C   UNL     1       2.492  12.748  18.200  0.00  0.00    +0.000 C 
ATOM      2  C   UNL     1       2.217  13.177  19.622  0.00  0.00    +0.000 A 
ATOM      3  C   UNL     1       3.201  14.004  20.199  0.00  0.00    +0.000 A 
ATOM      4  C   UNL     1       2.940  14.754  21.337  0.00  0.00    +0.000 A 
ATOM      5  C   UNL     1       1.671  14.723  21.900  0.00  0.00    +0.000 A 
ATOM      6  C   UNL     1       0.660  13.887  21.385  0.00  0.00    +0.000 A 
ATOM      7  C   UNL     1       0.969  13.041  20.277  0.00  0.00    +0.000 A 
ATOM      8  N   UNL     1      -0.011  12.111  19.816  0.00  0.00    +0.000 N 
ATOM      9  C   UNL     1      -1.361  12.399  19.698  0.00  0.00    +0.000 A 
ATOM     10  N   UNL     1      -2.028  11.341  19.310  0.00  0.00    +0.000 NA
ATOM     11  N   UNL     1      -1.139  10.329  19.159  0.00  0.00    +0.000 NA
ATOM     12  C   UNL     1       0.079  10.765  19.443  0.00  0.00    +0.000 A 
ATOM     13  C   UNL     1      -1.941  13.733  19.950  0.00  0.00    +0.000 C 
ATOM     14  C   UNL     1      -1.990  14.013  21.442  0.00  0.00    +0.000 C 
ATOM     15  C   UNL     1      -0.644  13.880  22.181  0.00  0.00    +0.000 C 
ENDROOT
BRANCH  12  16
ATOM     16  C   UNL     1       1.271   9.831  19.420  0.00  0.00    +0.000 C 
ATOM     17  C   UNL     1       1.088   8.670  20.408  0.00  0.00    +0.000 C 
ATOM     18  C   UNL     1       2.165   7.595  20.247  0.00  0.00    +0.000 C 
ATOM     19  C   UNL     1       2.227   7.028  18.825  0.00  0.00    +0.000 C 
ATOM     20  C   UNL     1       2.462   8.170  17.827  0.00  0.00    +0.000 C 
ATOM     21  C   UNL     1       1.459   9.308  17.970  0.00  0.00    +0.000 C 
BRANCH  19  22
ATOM     22  O   UNL     1       3.360   6.160  18.692  0.00  0.00    +0.000 OA
BRANCH  22  23
ATOM     23  C   UNL     1       3.092   4.836  18.394  0.00  0.00    +0.000 A 
ATOM     24  C   UNL     1       1.765   4.454  18.476  0.00  0.00    +0.000 A 
ATOM     25  C   UNL     1       1.427   3.137  18.180  0.00  0.00    +0.000 A 
ATOM     26  C   UNL     1       2.435   2.250  17.816  0.00  0.00    +0.000 A 
ATOM     27  C   UNL     1       3.739   2.728  17.762  0.00  0.00    +0.000 A 
ATOM     28  N   UNL     1       4.091   4.003  18.040  0.00  0.00    +0.000 NA
ENDBRANCH  22  23
ENDBRANCH  19  22
ENDBRANCH  12  16
BRANCH  14  29
ATOM     29  O   UNL     1      -2.552  15.314  21.661  0.00  0.00    +0.000 OA
ATOM     30  H   UNL     1      -2.508  15.517  22.613  0.00  0.00    +0.000 HD
ENDBRANCH  14  29
TORSDOF 4
ENDMDL
MODEL 4
REMARK VINA RESULT:      -7.4      1.958      3.535
REMARK  Name = 
REMARK  5 active torsions:
REMARK  status: ('A' for Active; 'I' for Inactive)
REMARK    1  A    between atoms: C_1  and  C_2
REMARK    2  A    between atoms: C_12  and  C_13
REMARK    3  A    between atoms: C_16  and  O_17
REMARK    4  A    between atoms: O_17  and  C_18
REMARK    5  A    between atoms: C_27  and  O_28
REMARK                            x       y       z     vdW  Elec       q    Type
REMARK                         _______ _______ _______ _____ _____    ______ ____
ROOT
ATOM      1  C   UNL     1       5.895   6.859  18.590  0.00  0.00    +0.000 C 
ATOM      2  C   UNL     1       5.252   5.961  17.559  0.00  0.00    +0.000 A 
ATOM      3  C   UNL     1       5.852   5.986  16.284  0.00  0.00    +0.000 A 
ATOM      4  C   UNL     1       5.614   4.987  15.352  0.00  0.00    +0.000 A 
ATOM      5  C   UNL     1       4.800   3.915  15.691  0.00  0.00    +0.000 A 
ATOM      6  C   UNL     1       4.147   3.856  16.939  0.00  0.00    +0.000 A 
ATOM      7  C   UNL     1       4.315   4.941  17.853  0.00  0.00    +0.000 A 
ATOM      8  N   UNL     1       3.574   4.946  19.072  0.00  0.00    +0.000 N 
ATOM      9  C   UNL     1       3.367   3.826  19.860  0.00  0.00    +0.000 A 
ATOM     10  N   UNL     1       2.602   4.115  20.884  0.00  0.00    +0.000 NA
ATOM     11  N   UNL     1       2.286   5.430  20.801  0.00  0.00    +0.000 NA
ATOM     12  C   UNL     1       2.866   5.957  19.732  0.00  0.00    +0.000 A 
ATOM     13  C   UNL     1       3.963   2.504  19.583  0.00  0.00    +0.000 C 
ATOM     14  C   UNL     1       3.252   1.840  18.416  0.00  0.00    +0.000 C 
ATOM     15  C   UNL     1       3.198   2.673  17.119  0.00  0.00    +0.000 C 
ENDROOT
BRANCH  12  16
ATOM     16  C   UNL     1       2.638   7.405  19.351  0.00  0.00    +0.000 C 
ATOM     17  C   UNL     1       2.012   7.520  17.953  0.00  0.00    +0.000 C 
ATOM     18  C   UNL     1       1.564   8.948  17.633  0.00  0.00    +0.000 C 
ATOM     19  C   UNL     1       0.577   9.504  18.664  0.00  0.00    +0.000 C 
ATOM     20  C   UNL     1       1.207   9.444  20.063  0.00  0.00    +0.000 C 
ATOM     21  C   UNL     1       1.731   8.061  20.427  0.00  0.00    +0.000 C 
BRANCH  19  22
ATOM     22  O   UNL     1       0.332  10.894  18.411  0.00  0.00    +0.000 OA
BRANCH  22  23
ATOM     23  C   UNL     1      -0.099  11.651  19.485  0.00  0.00    +0.000 A 
ATOM     24  C   UNL     1      -1.428  11.502  19.836  0.00  0.00    +0.000 A 
ATOM     25  C   UNL     1      -1.922  12.229  20.916  0.00  0.00    +0.000 A 
ATOM     26  C   UNL     1      -1.064  13.083  21.600  0.00  0.00    +0.000 A 
ATOM     27  C   UNL     1       0.256  13.165  21.172  0.00  0.00    +0.000 A 
ATOM     28  N   UNL     1       0.760  12.465  20.130  0.00  0.00    +0.000 NA
ENDBRANCH  22  23
ENDBRANCH  19  22
ENDBRANCH  12  16
BRANCH  14  29
ATOM     29  O   UNL     1       3.851   0.562  18.162  0.00  0.00    +0.000 OA
ATOM     30  H   UNL     1       3.294  -0.128  18.563  0.00  0.00    +0.000 HD
ENDBRANCH  14  29
TORSDOF 4
ENDMDL
MODEL 5
REMARK VINA RESULT:      -7.3      2.074      3.748
REMARK  Name = 
REMARK  5 active torsions:
REMARK  status: ('A' for Active; 'I' for Inactive)
REMARK    1  A    between atoms: C_1  and  C_2
REMARK    2  A    between atoms: C_12  and  C_13
REMARK    3  A    between atoms: C_16  and  O_17
REMARK    4  A    between atoms: O_17  and  C_18
REMARK    5  A    between atoms: C_27  and  O_28
REMARK                            x       y       z     vdW  Elec       q    Type
REMARK                         _______ _______ _______ _____ _____    ______ ____
ROOT
ATOM      1  C   UNL     1       5.801   6.978  18.503  0.00  0.00    +0.000 C 
ATOM      2  C   UNL     1       5.162   6.046  17.501  0.00  0.00    +0.000 A 
ATOM      3  C   UNL     1       5.739   6.059  16.216  0.00  0.00    +0.000 A 
ATOM      4  C   UNL     1       5.509   5.037  15.308  0.00  0.00    +0.000 A 
ATOM      5  C   UNL     1       4.725   3.953  15.682  0.00  0.00    +0.000 A 
ATOM      6  C   UNL     1       4.095   3.904  16.942  0.00  0.00    +0.000 A 
ATOM      7  C   UNL     1       4.253   5.011  17.831  0.00  0.00    +0.000 A 
ATOM      8  N   UNL     1       3.533   5.024  19.063  0.00  0.00    +0.000 N 
ATOM      9  C   UNL     1       3.364   3.915  19.876  0.00  0.00    +0.000 A 
ATOM     10  N   UNL     1       2.610   4.207  20.906  0.00  0.00    +0.000 NA
ATOM     11  N   UNL     1       2.263   5.512  20.803  0.00  0.00    +0.000 NA
ATOM     12  C   UNL     1       2.813   6.031  19.715  0.00  0.00    +0.000 A 
ATOM     13  C   UNL     1       3.986   2.601  19.614  0.00  0.00    +0.000 C 
ATOM     14  C   UNL     1       3.272   1.899  18.473  0.00  0.00    +0.000 C 
ATOM     15  C   UNL     1       3.177   2.704  17.162  0.00  0.00    +0.000 C 
ENDROOT
BRANCH  12  16
ATOM     16  C   UNL     1       2.546   7.465  19.309  0.00  0.00    +0.000 C 
ATOM     17  C   UNL     1       1.922   7.540  17.908  0.00  0.00    +0.000 C 
ATOM     18  C   UNL     1       1.435   8.949  17.563  0.00  0.00    +0.000 C 
ATOM     19  C   UNL     1       0.429   9.494  18.582  0.00  0.00    +0.000 C 
ATOM     20  C   UNL     1       1.055   9.474  19.983  0.00  0.00    +0.000 C 
ATOM     21  C   UNL     1       1.616   8.113  20.371  0.00  0.00    +0.000 C 
BRANCH  19  22
ATOM     22  O   UNL     1       0.145  10.872  18.305  0.00  0.00    +0.000 OA
BRANCH  22  23
ATOM     23  C   UNL     1       0.740  11.804  19.137  0.00  0.00    +0.000 A 
ATOM     24  C   UNL     1       1.925  12.352  18.682  0.00  0.00    +0.000 A 
ATOM     25  C   UNL     1       2.569  13.304  19.468  0.00  0.00    +0.000 A 
ATOM     26  C   UNL     1       2.000  13.667  20.684  0.00  0.00    +0.000 A 
ATOM     27  C   UNL     1       0.806  13.060  21.055  0.00  0.00    +0.000 A 
ATOM     28  N   UNL     1       0.160  12.138  20.307  0.00  0.00    +0.000 NA
ENDBRANCH  22  23
ENDBRANCH  19  22
ENDBRANCH  12  16
BRANCH  14  29
ATOM     29  O   UNL     1       3.896   0.630  18.233  0.00  0.00    +0.000 OA
ATOM     30  H   UNL     1       4.350   0.664  17.373  0.00  0.00    +0.000 HD
ENDBRANCH  14  29
TORSDOF 4
ENDMDL
MODEL 6
REMARK VINA RESULT:      -7.3      1.469      1.889
REMARK  Name = 
REMARK  5 active torsions:
REMARK  status: ('A' for Active; 'I' for Inactive)
REMARK    1  A    between atoms: C_1  and  C_2
REMARK    2  A    between atoms: C_12  and  C_13
REMARK    3  A    between atoms: C_16  and  O_17
REMARK    4  A    between atoms: O_17  and  C_18
REMARK    5  A    between atoms: C_27  and  O_28
REMARK                            x       y       z     vdW  Elec       q    Type
REMARK                         _______ _______ _______ _____ _____    ______ ____
ROOT
ATOM      1  C   UNL     1       1.593   4.276  17.522  0.00  0.00    +0.000 C 
ATOM      2  C   UNL     1       2.696   4.118  18.543  0.00  0.00    +0.000 A 
ATOM      3  C   UNL     1       2.497   3.089  19.485  0.00  0.00    +0.000 A 
ATOM      4  C   UNL     1       3.544   2.592  20.247  0.00  0.00    +0.000 A 
ATOM      5  C   UNL     1       4.827   3.088  20.052  0.00  0.00    +0.000 A 
ATOM      6  C   UNL     1       5.077   4.140  19.147  0.00  0.00    +0.000 A 
ATOM      7  C   UNL     1       3.976   4.716  18.444  0.00  0.00    +0.000 A 
ATOM      8  N   UNL     1       4.199   5.852  17.610  0.00  0.00    +0.000 N 
ATOM      9  C   UNL     1       5.292   5.997  16.771  0.00  0.00    +0.000 A 
ATOM     10  N   UNL     1       5.266   7.163  16.175  0.00  0.00    +0.000 NA
ATOM     11  N   UNL     1       4.158   7.816  16.599  0.00  0.00    +0.000 NA
ATOM     12  C   UNL     1       3.492   7.049  17.450  0.00  0.00    +0.000 A 
ATOM     13  C   UNL     1       6.318   4.954  16.569  0.00  0.00    +0.000 C 
ATOM     14  C   UNL     1       7.231   4.871  17.780  0.00  0.00    +0.000 C 
ATOM     15  C   UNL     1       6.517   4.649  19.128  0.00  0.00    +0.000 C 
ENDROOT
BRANCH  12  16
ATOM     16  C   UNL     1       2.238   7.546  18.138  0.00  0.00    +0.000 C 
ATOM     17  C   UNL     1       2.355   7.427  19.665  0.00  0.00    +0.000 C 
ATOM     18  C   UNL     1       1.205   8.125  20.393  0.00  0.00    +0.000 C 
ATOM     19  C   UNL     1       1.080   9.606  20.020  0.00  0.00    +0.000 C 
ATOM     20  C   UNL     1       0.910   9.741  18.501  0.00  0.00    +0.000 C 
ATOM     21  C   UNL     1       1.991   9.018  17.709  0.00  0.00    +0.000 C 
BRANCH  19  22
ATOM     22  O   UNL     1      -0.112  10.158  20.593  0.00  0.00    +0.000 OA
BRANCH  22  23
ATOM     23  C   UNL     1      -1.018  10.720  19.711  0.00  0.00    +0.000 A 
ATOM     24  C   UNL     1      -1.696   9.833  18.894  0.00  0.00    +0.000 A 
ATOM     25  C   UNL     1      -2.630  10.334  17.991  0.00  0.00    +0.000 A 
ATOM     26  C   UNL     1      -2.844  11.707  17.938  0.00  0.00    +0.000 A 
ATOM     27  C   UNL     1      -2.114  12.517  18.800  0.00  0.00    +0.000 A 
ATOM     28  N   UNL     1      -1.207  12.054  19.690  0.00  0.00    +0.000 NA
ENDBRANCH  22  23
ENDBRANCH  19  22
ENDBRANCH  12  16
BRANCH  14  29
ATOM     29  O   UNL     1       8.213   3.849  17.563  0.00  0.00    +0.000 OA
ATOM     30  H   UNL     1       8.748   3.754  18.371  0.00  0.00    +0.000 HD
ENDBRANCH  14  29
TORSDOF 4
ENDMDL
MODEL 7
REMARK VINA RESULT:      -7.2      2.499      9.591
REMARK  Name = 
REMARK  5 active torsions:
REMARK  status: ('A' for Active; 'I' for Inactive)
REMARK    1  A    between atoms: C_1  and  C_2
REMARK    2  A    between atoms: C_12  and  C_13
REMARK    3  A    between atoms: C_16  and  O_17
REMARK    4  A    between atoms: O_17  and  C_18
REMARK    5  A    between atoms: C_27  and  O_28
REMARK                            x       y       z     vdW  Elec       q    Type
REMARK                         _______ _______ _______ _____ _____    ______ ____
ROOT
ATOM      1  C   UNL     1       1.141  13.371  18.966  0.00  0.00    +0.000 C 
ATOM      2  C   UNL     1       0.433  13.366  20.301  0.00  0.00    +0.000 A 
ATOM      3  C   UNL     1       0.993  14.210  21.280  0.00  0.00    +0.000 A 
ATOM      4  C   UNL     1       0.280  14.583  22.409  0.00  0.00    +0.000 A 
ATOM      5  C   UNL     1      -1.031  14.149  22.564  0.00  0.00    +0.000 A 
ATOM      6  C   UNL     1      -1.630  13.276  21.633  0.00  0.00    +0.000 A 
ATOM      7  C   UNL     1      -0.852  12.815  20.528  0.00  0.00    +0.000 A 
ATOM      8  N   UNL     1      -1.409  11.846  19.640  0.00  0.00    +0.000 N 
ATOM      9  C   UNL     1      -2.719  11.867  19.190  0.00  0.00    +0.000 A 
ATOM     10  N   UNL     1      -2.967  10.824  18.438  0.00  0.00    +0.000 NA
ATOM     11  N   UNL     1      -1.831  10.089  18.370  0.00  0.00    +0.000 NA
ATOM     12  C   UNL     1      -0.877  10.685  19.069  0.00  0.00    +0.000 A 
ATOM     13  C   UNL     1      -3.678  12.946  19.501  0.00  0.00    +0.000 C 
ATOM     14  C   UNL     1      -4.152  12.830  20.940  0.00  0.00    +0.000 C 
ATOM     15  C   UNL     1      -3.034  12.801  22.000  0.00  0.00    +0.000 C 
ENDROOT
BRANCH  12  16
ATOM     16  C   UNL     1       0.492  10.055  19.224  0.00  0.00    +0.000 C 
ATOM     17  C   UNL     1       0.485   8.967  20.308  0.00  0.00    +0.000 C 
ATOM     18  C   UNL     1       1.786   8.161  20.331  0.00  0.00    +0.000 C 
ATOM     19  C   UNL     1       2.104   7.511  18.981  0.00  0.00    +0.000 C 
ATOM     20  C   UNL     1       2.166   8.592  17.893  0.00  0.00    +0.000 C 
ATOM     21  C   UNL     1       0.924   9.473  17.850  0.00  0.00    +0.000 C 
BRANCH  19  22
ATOM     22  O   UNL     1       3.411   6.922  19.015  0.00  0.00    +0.000 OA
BRANCH  22  23
ATOM     23  C   UNL     1       3.489   5.575  18.708  0.00  0.00    +0.000 A 
ATOM     24  C   UNL     1       2.444   5.063  17.961  0.00  0.00    +0.000 A 
ATOM     25  C   UNL     1       2.467   3.716  17.610  0.00  0.00    +0.000 A 
ATOM     26  C   UNL     1       3.538   2.932  18.027  0.00  0.00    +0.000 A 
ATOM     27  C   UNL     1       4.541   3.538  18.775  0.00  0.00    +0.000 A 
ATOM     28  N   UNL     1       4.543   4.844  19.123  0.00  0.00    +0.000 NA
ENDBRANCH  22  23
ENDBRANCH  19  22
ENDBRANCH  12  16
BRANCH  14  29
ATOM     29  O   UNL     1      -5.077  13.890  21.220  0.00  0.00    +0.000 OA
ATOM     30  H   UNL     1      -4.638  14.542  21.794  0.00  0.00    +0.000 HD
ENDBRANCH  14  29
TORSDOF 4
ENDMDL
MODEL 8
REMARK VINA RESULT:      -7.0      2.616      9.755
REMARK  Name = 
REMARK  5 active torsions:
REMARK  status: ('A' for Active; 'I' for Inactive)
REMARK    1  A    between atoms: C_1  and  C_2
REMARK    2  A    between atoms: C_12  and  C_13
REMARK    3  A    between atoms: C_16  and  O_17
REMARK    4  A    between atoms: O_17  and  C_18
REMARK    5  A    between atoms: C_27  and  O_28
REMARK                            x       y       z     vdW  Elec       q    Type
REMARK                         _______ _______ _______ _____ _____    ______ ____
ROOT
ATOM      1  C   UNL     1       0.676  13.649  19.378  0.00  0.00    +0.000 C 
ATOM      2  C   UNL     1      -0.100  13.468  20.661  0.00  0.00    +0.000 A 
ATOM      3  C   UNL     1       0.369  14.220  21.757  0.00  0.00    +0.000 A 
ATOM      4  C   UNL     1      -0.419  14.436  22.878  0.00  0.00    +0.000 A 
ATOM      5  C   UNL     1      -1.715  13.937  22.909  0.00  0.00    +0.000 A 
ATOM      6  C   UNL     1      -2.223  13.150  21.856  0.00  0.00    +0.000 A 
ATOM      7  C   UNL     1      -1.369  12.845  20.754  0.00  0.00    +0.000 A 
ATOM      8  N   UNL     1      -1.833  11.960  19.735  0.00  0.00    +0.000 N 
ATOM      9  C   UNL     1      -3.117  11.979  19.216  0.00  0.00    +0.000 A 
ATOM     10  N   UNL     1      -3.278  11.016  18.342  0.00  0.00    +0.000 NA
ATOM     11  N   UNL     1      -2.107  10.339  18.260  0.00  0.00    +0.000 NA
ATOM     12  C   UNL     1      -1.219  10.890  19.073  0.00  0.00    +0.000 A 
ATOM     13  C   UNL     1      -4.140  12.978  19.588  0.00  0.00    +0.000 C 
ATOM     14  C   UNL     1      -4.683  12.684  20.975  0.00  0.00    +0.000 C 
ATOM     15  C   UNL     1      -3.622  12.582  22.089  0.00  0.00    +0.000 C 
ENDROOT
BRANCH  12  16
ATOM     16  C   UNL     1       0.167  10.302  19.237  0.00  0.00    +0.000 C 
ATOM     17  C   UNL     1       0.210   9.292  20.393  0.00  0.00    +0.000 C 
ATOM     18  C   UNL     1       1.529   8.518  20.440  0.00  0.00    +0.000 C 
ATOM     19  C   UNL     1       1.830   7.782  19.130  0.00  0.00    +0.000 C 
ATOM     20  C   UNL     1       1.841   8.785  17.968  0.00  0.00    +0.000 C 
ATOM     21  C   UNL     1       0.579   9.635  17.896  0.00  0.00    +0.000 C 
BRANCH  19  22
ATOM     22  O   UNL     1       3.150   7.225  19.172  0.00  0.00    +0.000 OA
BRANCH  22  23
ATOM     23  C   UNL     1       3.364   6.087  18.413  0.00  0.00    +0.000 A 
ATOM     24  C   UNL     1       4.478   6.108  17.594  0.00  0.00    +0.000 A 
ATOM     25  C   UNL     1       4.756   4.990  16.812  0.00  0.00    +0.000 A 
ATOM     26  C   UNL     1       3.902   3.895  16.879  0.00  0.00    +0.000 A 
ATOM     27  C   UNL     1       2.807   3.969  17.733  0.00  0.00    +0.000 A 
ATOM     28  N   UNL     1       2.520   5.041  18.505  0.00  0.00    +0.000 NA
ENDBRANCH  22  23
ENDBRANCH  19  22
ENDBRANCH  12  16
BRANCH  14  29
ATOM     29  O   UNL     1      -5.668  13.669  21.316  0.00  0.00    +0.000 OA
ATOM     30  H   UNL     1      -6.043  13.447  22.187  0.00  0.00    +0.000 HD
ENDBRANCH  14  29
TORSDOF 4
ENDMDL
MODEL 9
REMARK VINA RESULT:      -6.9      2.896     10.266
REMARK  Name = 
REMARK  5 active torsions:
REMARK  status: ('A' for Active; 'I' for Inactive)
REMARK    1  A    between atoms: C_1  and  C_2
REMARK    2  A    between atoms: C_12  and  C_13
REMARK    3  A    between atoms: C_16  and  O_17
REMARK    4  A    between atoms: O_17  and  C_18
REMARK    5  A    between atoms: C_27  and  O_28
REMARK                            x       y       z     vdW  Elec       q    Type
REMARK                         _______ _______ _______ _____ _____    ______ ____
ROOT
ATOM      1  C   UNL     1      -0.309  14.606  20.612  0.00  0.00    +0.000 C 
ATOM      2  C   UNL     1      -1.100  14.138  21.812  0.00  0.00    +0.000 A 
ATOM      3  C   UNL     1      -0.666  14.647  23.052  0.00  0.00    +0.000 A 
ATOM      4  C   UNL     1      -1.476  14.602  24.177  0.00  0.00    +0.000 A 
ATOM      5  C   UNL     1      -2.759  14.081  24.075  0.00  0.00    +0.000 A 
ATOM      6  C   UNL     1      -3.232  13.527  22.868  0.00  0.00    +0.000 A 
ATOM      7  C   UNL     1      -2.354  13.483  21.743  0.00  0.00    +0.000 A 
ATOM      8  N   UNL     1      -2.781  12.827  20.550  0.00  0.00    +0.000 N 
ATOM      9  C   UNL     1      -4.057  12.931  20.021  0.00  0.00    +0.000 A 
ATOM     10  N   UNL     1      -4.181  12.175  18.958  0.00  0.00    +0.000 NA
ATOM     11  N   UNL     1      -2.993  11.555  18.756  0.00  0.00    +0.000 NA
ATOM     12  C   UNL     1      -2.131  11.937  19.687  0.00  0.00    +0.000 A 
ATOM     13  C   UNL     1      -5.109  13.805  20.577  0.00  0.00    +0.000 C 
ATOM     14  C   UNL     1      -5.666  13.210  21.858  0.00  0.00    +0.000 C 
ATOM     15  C   UNL     1      -4.620  12.893  22.945  0.00  0.00    +0.000 C 
ENDROOT
BRANCH  12  16
ATOM     16  C   UNL     1      -0.734  11.356  19.749  0.00  0.00    +0.000 C 
ATOM     17  C   UNL     1      -0.528  10.535  21.030  0.00  0.00    +0.000 C 
ATOM     18  C   UNL     1       0.787   9.754  21.015  0.00  0.00    +0.000 C 
ATOM     19  C   UNL     1       0.908   8.821  19.806  0.00  0.00    +0.000 C 
ATOM     20  C   UNL     1       0.756   9.634  18.513  0.00  0.00    +0.000 C 
ATOM     21  C   UNL     1      -0.507  10.485  18.483  0.00  0.00    +0.000 C 
BRANCH  19  22
ATOM     22  O   UNL     1       2.223   8.253  19.752  0.00  0.00    +0.000 OA
BRANCH  22  23
ATOM     23  C   UNL     1       2.300   6.898  19.484  0.00  0.00    +0.000 A 
ATOM     24  C   UNL     1       1.874   6.056  20.495  0.00  0.00    +0.000 A 
ATOM     25  C   UNL     1       1.916   4.680  20.284  0.00  0.00    +0.000 A 
ATOM     26  C   UNL     1       2.390   4.201  19.067  0.00  0.00    +0.000 A 
ATOM     27  C   UNL     1       2.797   5.127  18.113  0.00  0.00    +0.000 A 
ATOM     28  N   UNL     1       2.759   6.466  18.292  0.00  0.00    +0.000 NA
ENDBRANCH  22  23
ENDBRANCH  19  22
ENDBRANCH  12  16
BRANCH  14  29
ATOM     29  O   UNL     1      -6.680  14.078  22.381  0.00  0.00    +0.000 OA
ATOM     30  H   UNL     1      -6.968  13.736  23.246  0.00  0.00    +0.000 HD
ENDBRANCH  14  29
TORSDOF 4
ENDMDL
