MODEL 1
REMARK VINA RESULT:      -7.9      0.000      0.000
REMARK  Name = 
REMARK  5 active torsions:
REMARK  status: ('A' for Active; 'I' for Inactive)
REMARK    1  A    between atoms: C_1  and  O_2
REMARK    2  A    between atoms: O_2  and  C_3
REMARK    3  A    between atoms: C_5  and  C_6
REMARK    4  A    between atoms: N_10  and  C_11
REMARK    5  A    between atoms: C_24  and  O_25
REMARK                            x       y       z     vdW  Elec       q    Type
REMARK                         _______ _______ _______ _____ _____    ______ ____
ROOT
ATOM      1  C   UNL     1       3.640   5.847  18.750  0.00  0.00    +0.000 C 
ATOM      2  C   UNL     1       2.875   6.945  18.806  0.00  0.00    +0.000 C 
ATOM      3  S   UNL     1       2.813   8.265  17.704  0.00  0.00    +0.000 S 
ATOM      4  C   UNL     1       1.516   8.975  18.649  0.00  0.00    +0.000 C 
ATOM      5  N   UNL     1       0.975  10.121  18.136  0.00  0.00    +0.000 N 
ATOM      6  N   UNL     1       1.187   8.329  19.717  0.00  0.00    +0.000 NA
ATOM      7  C   UNL     1       1.912   7.179  19.913  0.00  0.00    +0.000 C 
ATOM      8  O   UNL     1       1.789   6.432  20.873  0.00  0.00    +0.000 OA
ATOM      9  H   UNL     1       1.327  10.400  17.225  0.00  0.00    +0.000 HD
ENDROOT
BRANCH   5  10
ATOM     10  C   UNL     1      -0.327  10.613  18.410  0.00  0.00    +0.000 A 
ATOM     11  C   UNL     1      -1.449  10.190  17.681  0.00  0.00    +0.000 A 
ATOM     12  C   UNL     1      -2.707  10.755  17.886  0.00  0.00    +0.000 A 
ATOM     13  C   UNL     1      -2.876  11.741  18.850  0.00  0.00    +0.000 A 
ATOM     14  C   UNL     1      -1.791  12.148  19.629  0.00  0.00    +0.000 A 
ATOM     15 CL   UNL     1      -2.083  13.367  20.820  0.00  0.00    +0.000 Cl
ATOM     16  C   UNL     1      -0.522  11.585  19.419  0.00  0.00    +0.000 A 
ATOM     17 CL   UNL     1       0.848  12.090  20.366  0.00  0.00    +0.000 Cl
ENDBRANCH   5  10
BRANCH   1  20
ATOM     18  C   UNL     1       6.745   6.105  16.620  0.00  0.00    +0.000 A 
ATOM     19  C   UNL     1       5.766   6.388  17.582  0.00  0.00    +0.000 A 
ATOM     20  C   UNL     1       4.623   5.593  17.701  0.00  0.00    +0.000 A 
ATOM     21  C   UNL     1       4.441   4.511  16.840  0.00  0.00    +0.000 A 
ATOM     22  C   UNL     1       5.404   4.218  15.878  0.00  0.00    +0.000 A 
ATOM     23  C   UNL     1       6.554   5.007  15.771  0.00  0.00    +0.000 A 
BRANCH  18  25
ATOM     24  C   UNL     1       7.750   8.042  17.598  0.00  0.00    +0.000 C 
ATOM     25  O   UNL     1       7.798   6.980  16.657  0.00  0.00    +0.000 OA
ENDBRANCH  18  25
BRANCH  23  26
ATOM     26  O   UNL     1       7.476   4.666  14.821  0.00  0.00    +0.000 OA
ATOM     27  H   UNL     1       8.026   5.440  14.618  0.00  0.00    +0.000 HD
ENDBRANCH  23  26
ENDBRANCH   1  20
TORSDOF 4
ENDMDL
MODEL 2
REMARK VINA RESULT:      -7.9      1.708      2.031
REMARK  Name = 
REMARK  5 active torsions:
REMARK  status: ('A' for Active; 'I' for Inactive)
REMARK    1  A    between atoms: C_1  and  O_2
REMARK    2  A    between atoms: O_2  and  C_3
REMARK    3  A    between atoms: C_5  and  C_6
REMARK    4  A    between atoms: N_10  and  C_11
REMARK    5  A    between atoms: C_24  and  O_25
REMARK                            x       y       z     vdW  Elec       q    Type
REMARK                         _______ _______ _______ _____ _____    ______ ____
ROOT
ATOM      1  C   UNL     1       2.950   6.467  19.330  0.00  0.00    +0.000 C 
ATOM      2  C   UNL     1       2.235   7.597  19.251  0.00  0.00    +0.000 C 
ATOM      3  S   UNL     1       1.995   8.620  17.888  0.00  0.00    +0.000 S 
ATOM      4  C   UNL     1       0.918   9.621  18.846  0.00  0.00    +0.000 C 
ATOM      5  N   UNL     1       0.316  10.647  18.174  0.00  0.00    +0.000 N 
ATOM      6  N   UNL     1       0.783   9.269  20.081  0.00  0.00    +0.000 NA
ATOM      7  C   UNL     1       1.504   8.151  20.420  0.00  0.00    +0.000 C 
ATOM      8  O   UNL     1       1.549   7.662  21.540  0.00  0.00    +0.000 OA
ATOM      9  H   UNL     1       0.495  10.678  17.174  0.00  0.00    +0.000 HD
ENDROOT
BRANCH   5  10
ATOM     10  C   UNL     1      -0.898  11.278  18.547  0.00  0.00    +0.000 A 
ATOM     11  C   UNL     1      -0.951  12.243  19.565  0.00  0.00    +0.000 A 
ATOM     12  C   UNL     1      -2.163  12.782  19.996  0.00  0.00    +0.000 A 
ATOM     13  C   UNL     1      -3.352  12.385  19.396  0.00  0.00    +0.000 A 
ATOM     14  C   UNL     1      -3.329  11.465  18.346  0.00  0.00    +0.000 A 
ATOM     15 CL   UNL     1      -4.846  11.033  17.638  0.00  0.00    +0.000 Cl
ATOM     16  C   UNL     1      -2.111  10.917  17.915  0.00  0.00    +0.000 A 
ATOM     17 CL   UNL     1      -2.061   9.755  16.620  0.00  0.00    +0.000 Cl
ENDBRANCH   5  10
BRANCH   1  20
ATOM     18  C   UNL     1       5.628   5.973  16.717  0.00  0.00    +0.000 A 
ATOM     19  C   UNL     1       4.858   6.544  17.739  0.00  0.00    +0.000 A 
ATOM     20  C   UNL     1       3.710   5.906  18.217  0.00  0.00    +0.000 A 
ATOM     21  C   UNL     1       3.311   4.691  17.659  0.00  0.00    +0.000 A 
ATOM     22  C   UNL     1       4.065   4.112  16.642  0.00  0.00    +0.000 A 
ATOM     23  C   UNL     1       5.222   4.746  16.176  0.00  0.00    +0.000 A 
BRANCH  18  25
ATOM     24  C   UNL     1       7.510   7.258  17.442  0.00  0.00    +0.000 C 
ATOM     25  O   UNL     1       6.721   6.729  16.387  0.00  0.00    +0.000 OA
ENDBRANCH  18  25
BRANCH  23  26
ATOM     26  O   UNL     1       5.934   4.127  15.187  0.00  0.00    +0.000 OA
ATOM     27  H   UNL     1       5.636   4.457  14.325  0.00  0.00    +0.000 HD
ENDBRANCH  23  26
ENDBRANCH   1  20
TORSDOF 4
ENDMDL
MODEL 3
REMARK VINA RESULT:      -7.4      2.054      2.355
REMARK  Name = 
REMARK  5 active torsions:
REMARK  status: ('A' for Active; 'I' for Inactive)
REMARK    1  A    between atoms: C_1  and  O_2
REMARK    2  A    between atoms: O_2  and  C_3
REMARK    3  A    between atoms: C_5  and  C_6
REMARK    4  A    between atoms: N_10  and  C_11
REMARK    5  A    between atoms: C_24  and  O_25
REMARK                            x       y       z     vdW  Elec       q    Type
REMARK                         _______ _______ _______ _____ _____    ______ ____
ROOT
ATOM      1  C   UNL     1       2.868   6.300  19.918  0.00  0.00    +0.000 C 
ATOM      2  C   UNL     1       2.192   7.429  19.674  0.00  0.00    +0.000 C 
ATOM      3  S   UNL     1       2.025   8.280  18.188  0.00  0.00    +0.000 S 
ATOM      4  C   UNL     1       0.952   9.422  18.977  0.00  0.00    +0.000 C 
ATOM      5  N   UNL     1       0.402  10.372  18.163  0.00  0.00    +0.000 N 
ATOM      6  N   UNL     1       0.769   9.231  20.241  0.00  0.00    +0.000 NA
ATOM      7  C   UNL     1       1.444   8.145  20.741  0.00  0.00    +0.000 C 
ATOM      8  O   UNL     1       1.440   7.800  21.914  0.00  0.00    +0.000 OA
ATOM      9  H   UNL     1       0.612  10.272  17.173  0.00  0.00    +0.000 HD
ENDROOT
BRANCH   5  10
ATOM     10  C   UNL     1      -0.802  11.077  18.413  0.00  0.00    +0.000 A 
ATOM     11  C   UNL     1      -0.895  12.056  19.414  0.00  0.00    +0.000 A 
ATOM     12  C   UNL     1      -2.108  12.671  19.723  0.00  0.00    +0.000 A 
ATOM     13  C   UNL     1      -3.255  12.337  19.015  0.00  0.00    +0.000 A 
ATOM     14  C   UNL     1      -3.188  11.404  17.978  0.00  0.00    +0.000 A 
ATOM     15 CL   UNL     1      -4.653  11.053  17.131  0.00  0.00    +0.000 Cl
ATOM     16  C   UNL     1      -1.968  10.780  17.670  0.00  0.00    +0.000 A 
ATOM     17 CL   UNL     1      -1.865   9.601  16.393  0.00  0.00    +0.000 Cl
ENDBRANCH   5  10
BRANCH   1  20
ATOM     18  C   UNL     1       5.771   4.720  18.094  0.00  0.00    +0.000 A 
ATOM     19  C   UNL     1       5.031   5.466  19.023  0.00  0.00    +0.000 A 
ATOM     20  C   UNL     1       3.643   5.582  18.910  0.00  0.00    +0.000 A 
ATOM     21  C   UNL     1       2.982   4.964  17.849  0.00  0.00    +0.000 A 
ATOM     22  C   UNL     1       3.702   4.221  16.917  0.00  0.00    +0.000 A 
ATOM     23  C   UNL     1       5.090   4.094  17.041  0.00  0.00    +0.000 A 
BRANCH  18  25
ATOM     24  C   UNL     1       7.632   5.724  19.209  0.00  0.00    +0.000 C 
ATOM     25  O   UNL     1       7.112   4.705  18.368  0.00  0.00    +0.000 OA
ENDBRANCH  18  25
BRANCH  23  26
ATOM     26  O   UNL     1       5.747   3.340  16.110  0.00  0.00    +0.000 OA
ATOM     27  H   UNL     1       5.137   3.128  15.384  0.00  0.00    +0.000 HD
ENDBRANCH  23  26
ENDBRANCH   1  20
TORSDOF 4
ENDMDL
MODEL 4
REMARK VINA RESULT:      -7.3      2.132      3.013
REMARK  Name = 
REMARK  5 active torsions:
REMARK  status: ('A' for Active; 'I' for Inactive)
REMARK    1  A    between atoms: C_1  and  O_2
REMARK    2  A    between atoms: O_2  and  C_3
REMARK    3  A    between atoms: C_5  and  C_6
REMARK    4  A    between atoms: N_10  and  C_11
REMARK    5  A    between atoms: C_24  and  O_25
REMARK                            x       y       z     vdW  Elec       q    Type
REMARK                         _______ _______ _______ _____ _____    ______ ____
ROOT
ATOM      1  C   UNL     1       2.833   6.750  19.497  0.00  0.00    +0.000 C 
ATOM      2  C   UNL     1       2.063   7.836  19.356  0.00  0.00    +0.000 C 
ATOM      3  S   UNL     1       1.737   8.741  17.929  0.00  0.00    +0.000 S 
ATOM      4  C   UNL     1       0.641   9.762  18.843  0.00  0.00    +0.000 C 
ATOM      5  N   UNL     1      -0.028  10.706  18.116  0.00  0.00    +0.000 N 
ATOM      6  N   UNL     1       0.557   9.498  20.105  0.00  0.00    +0.000 NA
ATOM      7  C   UNL     1       1.340   8.443  20.503  0.00  0.00    +0.000 C 
ATOM      8  O   UNL     1       1.439   8.043  21.654  0.00  0.00    +0.000 OA
ATOM      9  H   UNL     1       0.122  10.669  17.111  0.00  0.00    +0.000 HD
ENDROOT
BRANCH   5  10
ATOM     10  C   UNL     1      -1.260  11.307  18.478  0.00  0.00    +0.000 A 
ATOM     11  C   UNL     1      -1.364  12.193  19.562  0.00  0.00    +0.000 A 
ATOM     12  C   UNL     1      -2.596  12.698  19.976  0.00  0.00    +0.000 A 
ATOM     13  C   UNL     1      -3.754  12.348  19.293  0.00  0.00    +0.000 A 
ATOM     14  C   UNL     1      -3.680  11.510  18.179  0.00  0.00    +0.000 A 
ATOM     15 CL   UNL     1      -5.161  11.133  17.371  0.00  0.00    +0.000 Cl
ATOM     16  C   UNL     1      -2.441  10.995  17.765  0.00  0.00    +0.000 A 
ATOM     17 CL   UNL     1      -2.328   9.934  16.389  0.00  0.00    +0.000 Cl
ENDBRANCH   5  10
BRANCH   1  20
ATOM     18  C   UNL     1       4.219   4.180  17.104  0.00  0.00    +0.000 A 
ATOM     19  C   UNL     1       3.551   4.760  18.191  0.00  0.00    +0.000 A 
ATOM     20  C   UNL     1       3.588   6.141  18.405  0.00  0.00    +0.000 A 
ATOM     21  C   UNL     1       4.316   6.955  17.537  0.00  0.00    +0.000 A 
ATOM     22  C   UNL     1       4.986   6.394  16.454  0.00  0.00    +0.000 A 
ATOM     23  C   UNL     1       4.934   5.013  16.233  0.00  0.00    +0.000 A 
BRANCH  18  25
ATOM     24  C   UNL     1       3.406   2.177  18.128  0.00  0.00    +0.000 C 
ATOM     25  O   UNL     1       4.061   2.821  17.045  0.00  0.00    +0.000 OA
ENDBRANCH  18  25
BRANCH  23  26
ATOM     26  O   UNL     1       5.596   4.516  15.146  0.00  0.00    +0.000 OA
ATOM     27  H   UNL     1       6.431   4.997  15.034  0.00  0.00    +0.000 HD
ENDBRANCH  23  26
ENDBRANCH   1  20
TORSDOF 4
ENDMDL
MODEL 5
REMARK VINA RESULT:      -7.1      0.806      1.824
REMARK  Name = 
REMARK  5 active torsions:
REMARK  status: ('A' for Active; 'I' for Inactive)
REMARK    1  A    between atoms: C_1  and  O_2
REMARK    2  A    between atoms: O_2  and  C_3
REMARK    3  A    between atoms: C_5  and  C_6
REMARK    4  A    between atoms: N_10  and  C_11
REMARK    5  A    between atoms: C_24  and  O_25
REMARK                            x       y       z     vdW  Elec       q    Type
REMARK                         _______ _______ _______ _____ _____    ______ ____
ROOT
ATOM      1  C   UNL     1       3.842   5.907  18.694  0.00  0.00    +0.000 C 
ATOM      2  C   UNL     1       3.023   6.966  18.733  0.00  0.00    +0.000 C 
ATOM      3  S   UNL     1       2.943   8.300  17.649  0.00  0.00    +0.000 S 
ATOM      4  C   UNL     1       1.575   8.932  18.549  0.00  0.00    +0.000 C 
ATOM      5  N   UNL     1       1.001  10.059  18.031  0.00  0.00    +0.000 N 
ATOM      6  N   UNL     1       1.233   8.252  19.592  0.00  0.00    +0.000 NA
ATOM      7  C   UNL     1       2.003   7.134  19.801  0.00  0.00    +0.000 C 
ATOM      8  O   UNL     1       1.877   6.366  20.744  0.00  0.00    +0.000 OA
ATOM      9  H   UNL     1       1.377  10.370  17.140  0.00  0.00    +0.000 HD
ENDROOT
BRANCH   5  10
ATOM     10  C   UNL     1      -0.333  10.483  18.257  0.00  0.00    +0.000 A 
ATOM     11  C   UNL     1      -1.406   9.996  17.494  0.00  0.00    +0.000 A 
ATOM     12  C   UNL     1      -2.699  10.494  17.651  0.00  0.00    +0.000 A 
ATOM     13  C   UNL     1      -2.952  11.478  18.600  0.00  0.00    +0.000 A 
ATOM     14  C   UNL     1      -1.917  11.949  19.410  0.00  0.00    +0.000 A 
ATOM     15 CL   UNL     1      -2.313  13.160  20.578  0.00  0.00    +0.000 Cl
ATOM     16  C   UNL     1      -0.614  11.452  19.248  0.00  0.00    +0.000 A 
ATOM     17 CL   UNL     1       0.695  12.037  20.236  0.00  0.00    +0.000 Cl
ENDBRANCH   5  10
BRANCH   1  20
ATOM     18  C   UNL     1       5.557   5.021  15.450  0.00  0.00    +0.000 A 
ATOM     19  C   UNL     1       4.579   5.142  16.447  0.00  0.00    +0.000 A 
ATOM     20  C   UNL     1       4.879   5.718  17.684  0.00  0.00    +0.000 A 
ATOM     21  C   UNL     1       6.175   6.165  17.941  0.00  0.00    +0.000 A 
ATOM     22  C   UNL     1       7.158   6.051  16.962  0.00  0.00    +0.000 A 
ATOM     23  C   UNL     1       6.850   5.488  15.719  0.00  0.00    +0.000 A 
BRANCH  18  25
ATOM     24  C   UNL     1       5.967   3.637  13.544  0.00  0.00    +0.000 C 
ATOM     25  O   UNL     1       5.081   4.446  14.303  0.00  0.00    +0.000 OA
ENDBRANCH  18  25
BRANCH  23  26
ATOM     26  O   UNL     1       7.848   5.414  14.787  0.00  0.00    +0.000 OA
ATOM     27  H   UNL     1       7.849   4.528  14.391  0.00  0.00    +0.000 HD
ENDBRANCH  23  26
ENDBRANCH   1  20
TORSDOF 4
ENDMDL
MODEL 6
REMARK VINA RESULT:      -7.1      4.182      9.328
REMARK  Name = 
REMARK  5 active torsions:
REMARK  status: ('A' for Active; 'I' for Inactive)
REMARK    1  A    between atoms: C_1  and  O_2
REMARK    2  A    between atoms: O_2  and  C_3
REMARK    3  A    between atoms: C_5  and  C_6
REMARK    4  A    between atoms: N_10  and  C_11
REMARK    5  A    between atoms: C_24  and  O_25
REMARK                            x       y       z     vdW  Elec       q    Type
REMARK                         _______ _______ _______ _____ _____    ______ ____
ROOT
ATOM      1  C   UNL     1       0.174  10.632  19.500  0.00  0.00    +0.000 C 
ATOM      2  C   UNL     1       0.955   9.545  19.558  0.00  0.00    +0.000 C 
ATOM      3  S   UNL     1       1.185   8.459  20.872  0.00  0.00    +0.000 S 
ATOM      4  C   UNL     1       2.229   7.477  19.861  0.00  0.00    +0.000 C 
ATOM      5  N   UNL     1       2.685   6.322  20.432  0.00  0.00    +0.000 N 
ATOM      6  N   UNL     1       2.439   7.932  18.671  0.00  0.00    +0.000 NA
ATOM      7  C   UNL     1       1.785   9.109  18.405  0.00  0.00    +0.000 C 
ATOM      8  O   UNL     1       1.867   9.732  17.356  0.00  0.00    +0.000 OA
ATOM      9  H   UNL     1       2.310   6.114  21.354  0.00  0.00    +0.000 HD
ENDROOT
BRANCH   5  10
ATOM     10  C   UNL     1       3.118   5.169  19.730  0.00  0.00    +0.000 A 
ATOM     11  C   UNL     1       4.389   5.094  19.139  0.00  0.00    +0.000 A 
ATOM     12  C   UNL     1       4.769   3.999  18.362  0.00  0.00    +0.000 A 
ATOM     13  C   UNL     1       3.890   2.938  18.182  0.00  0.00    +0.000 A 
ATOM     14  C   UNL     1       2.637   2.958  18.799  0.00  0.00    +0.000 A 
ATOM     15 CL   UNL     1       1.606   1.594  18.543  0.00  0.00    +0.000 Cl
ATOM     16  C   UNL     1       2.251   4.062  19.576  0.00  0.00    +0.000 A 
ATOM     17 CL   UNL     1       0.688   4.115  20.339  0.00  0.00    +0.000 Cl
ENDBRANCH   5  10
BRANCH   1  20
ATOM     18  C   UNL     1      -2.502  12.422  21.470  0.00  0.00    +0.000 A 
ATOM     19  C   UNL     1      -1.685  12.008  20.409  0.00  0.00    +0.000 A 
ATOM     20  C   UNL     1      -0.631  11.116  20.619  0.00  0.00    +0.000 A 
ATOM     21  C   UNL     1      -0.373  10.640  21.904  0.00  0.00    +0.000 A 
ATOM     22  C   UNL     1      -1.175  11.042  22.969  0.00  0.00    +0.000 A 
ATOM     23  C   UNL     1      -2.239  11.924  22.753  0.00  0.00    +0.000 A 
BRANCH  18  25
ATOM     24  C   UNL     1      -4.777  12.748  20.807  0.00  0.00    +0.000 C 
ATOM     25  O   UNL     1      -3.490  13.285  21.077  0.00  0.00    +0.000 OA
ENDBRANCH  18  25
BRANCH  23  26
ATOM     26  O   UNL     1      -3.006  12.274  23.829  0.00  0.00    +0.000 OA
ATOM     27  H   UNL     1      -2.428  12.437  24.592  0.00  0.00    +0.000 HD
ENDBRANCH  23  26
ENDBRANCH   1  20
TORSDOF 4
ENDMDL
MODEL 7
REMARK VINA RESULT:      -7.0      4.479      9.106
REMARK  Name = 
REMARK  5 active torsions:
REMARK  status: ('A' for Active; 'I' for Inactive)
REMARK    1  A    between atoms: C_1  and  O_2
REMARK    2  A    between atoms: O_2  and  C_3
REMARK    3  A    between atoms: C_5  and  C_6
REMARK    4  A    between atoms: N_10  and  C_11
REMARK    5  A    between atoms: C_24  and  O_25
REMARK                            x       y       z     vdW  Elec       q    Type
REMARK                         _______ _______ _______ _____ _____    ______ ____
ROOT
ATOM      1  C   UNL     1       0.817  11.042  19.355  0.00  0.00    +0.000 C 
ATOM      2  C   UNL     1       1.231   9.783  19.546  0.00  0.00    +0.000 C 
ATOM      3  S   UNL     1       1.286   8.883  21.011  0.00  0.00    +0.000 S 
ATOM      4  C   UNL     1       1.847   7.483  20.115  0.00  0.00    +0.000 C 
ATOM      5  N   UNL     1       1.999   6.338  20.846  0.00  0.00    +0.000 N 
ATOM      6  N   UNL     1       2.032   7.669  18.851  0.00  0.00    +0.000 NA
ATOM      7  C   UNL     1       1.737   8.943  18.430  0.00  0.00    +0.000 C 
ATOM      8  O   UNL     1       1.871   9.347  17.284  0.00  0.00    +0.000 OA
ATOM      9  H   UNL     1       1.699   6.397  21.815  0.00  0.00    +0.000 HD
ENDROOT
BRANCH   5  10
ATOM     10  C   UNL     1       1.969   5.018  20.329  0.00  0.00    +0.000 A 
ATOM     11  C   UNL     1       0.821   4.215  20.408  0.00  0.00    +0.000 A 
ATOM     12  C   UNL     1       0.832   2.884  19.992  0.00  0.00    +0.000 A 
ATOM     13  C   UNL     1       1.990   2.333  19.458  0.00  0.00    +0.000 A 
ATOM     14  C   UNL     1       3.136   3.119  19.318  0.00  0.00    +0.000 A 
ATOM     15 CL   UNL     1       4.533   2.369  18.630  0.00  0.00    +0.000 Cl
ATOM     16  C   UNL     1       3.128   4.458  19.743  0.00  0.00    +0.000 A 
ATOM     17 CL   UNL     1       4.550   5.451  19.593  0.00  0.00    +0.000 Cl
ENDBRANCH   5  10
BRANCH   1  20
ATOM     18  C   UNL     1      -1.190  12.370  22.263  0.00  0.00    +0.000 A 
ATOM     19  C   UNL     1      -0.775  11.570  21.190  0.00  0.00    +0.000 A 
ATOM     20  C   UNL     1       0.344  11.914  20.427  0.00  0.00    +0.000 A 
ATOM     21  C   UNL     1       1.051  13.080  20.722  0.00  0.00    +0.000 A 
ATOM     22  C   UNL     1       0.650  13.886  21.784  0.00  0.00    +0.000 A 
ATOM     23  C   UNL     1      -0.462  13.531  22.556  0.00  0.00    +0.000 A 
BRANCH  18  25
ATOM     24  C   UNL     1      -3.540  12.514  22.681  0.00  0.00    +0.000 C 
ATOM     25  O   UNL     1      -2.293  11.873  22.904  0.00  0.00    +0.000 OA
ENDBRANCH  18  25
BRANCH  23  26
ATOM     26  O   UNL     1      -0.803  14.349  23.597  0.00  0.00    +0.000 OA
ATOM     27  H   UNL     1      -1.770  14.375  23.677  0.00  0.00    +0.000 HD
ENDBRANCH  23  26
ENDBRANCH   1  20
TORSDOF 4
ENDMDL
MODEL 8
REMARK VINA RESULT:      -6.9      4.394      8.852
REMARK  Name = 
REMARK  5 active torsions:
REMARK  status: ('A' for Active; 'I' for Inactive)
REMARK    1  A    between atoms: C_1  and  O_2
REMARK    2  A    between atoms: O_2  and  C_3
REMARK    3  A    between atoms: C_5  and  C_6
REMARK    4  A    between atoms: N_10  and  C_11
REMARK    5  A    between atoms: C_24  and  O_25
REMARK                            x       y       z     vdW  Elec       q    Type
REMARK                         _______ _______ _______ _____ _____    ______ ____
ROOT
ATOM      1  C   UNL     1       0.795  11.001  19.122  0.00  0.00    +0.000 C 
ATOM      2  C   UNL     1       1.226   9.758  19.373  0.00  0.00    +0.000 C 
ATOM      3  S   UNL     1       1.248   8.913  20.872  0.00  0.00    +0.000 S 
ATOM      4  C   UNL     1       1.864   7.492  20.046  0.00  0.00    +0.000 C 
ATOM      5  N   UNL     1       2.012   6.378  20.824  0.00  0.00    +0.000 N 
ATOM      6  N   UNL     1       2.087   7.636  18.783  0.00  0.00    +0.000 NA
ATOM      7  C   UNL     1       1.784   8.887  18.306  0.00  0.00    +0.000 C 
ATOM      8  O   UNL     1       1.947   9.252  17.151  0.00  0.00    +0.000 OA
ATOM      9  H   UNL     1       1.679   6.467  21.780  0.00  0.00    +0.000 HD
ENDROOT
BRANCH   5  10
ATOM     10  C   UNL     1       2.023   5.040  20.356  0.00  0.00    +0.000 A 
ATOM     11  C   UNL     1       0.900   4.206  20.464  0.00  0.00    +0.000 A 
ATOM     12  C   UNL     1       0.951   2.861  20.096  0.00  0.00    +0.000 A 
ATOM     13  C   UNL     1       2.127   2.327  19.584  0.00  0.00    +0.000 A 
ATOM     14  C   UNL     1       3.248   3.142  19.416  0.00  0.00    +0.000 A 
ATOM     15 CL   UNL     1       4.669   2.410  18.757  0.00  0.00    +0.000 Cl
ATOM     16  C   UNL     1       3.199   4.494  19.791  0.00  0.00    +0.000 A 
ATOM     17 CL   UNL     1       4.591   5.524  19.606  0.00  0.00    +0.000 Cl
ENDBRANCH   5  10
BRANCH   1  20
ATOM     18  C   UNL     1       0.600  13.724  21.729  0.00  0.00    +0.000 A 
ATOM     19  C   UNL     1       1.111  12.811  20.796  0.00  0.00    +0.000 A 
ATOM     20  C   UNL     1       0.272  11.903  20.145  0.00  0.00    +0.000 A 
ATOM     21  C   UNL     1      -1.092  11.889  20.438  0.00  0.00    +0.000 A 
ATOM     22  C   UNL     1      -1.614  12.788  21.363  0.00  0.00    +0.000 A 
ATOM     23  C   UNL     1      -0.774  13.707  22.002  0.00  0.00    +0.000 A 
BRANCH  18  25
ATOM     24  C   UNL     1       1.702  15.847  21.708  0.00  0.00    +0.000 C 
ATOM     25  O   UNL     1       1.563  14.543  22.255  0.00  0.00    +0.000 OA
ENDBRANCH  18  25
BRANCH  23  26
ATOM     26  O   UNL     1      -1.340  14.579  22.889  0.00  0.00    +0.000 OA
ATOM     27  H   UNL     1      -2.260  14.746  22.628  0.00  0.00    +0.000 HD
ENDBRANCH  23  26
ENDBRANCH   1  20
TORSDOF 4
ENDMDL
MODEL 9
REMARK VINA RESULT:      -6.8      3.282      4.350
REMARK  Name = 
REMARK  5 active torsions:
REMARK  status: ('A' for Active; 'I' for Inactive)
REMARK    1  A    between atoms: C_1  and  O_2
REMARK    2  A    between atoms: O_2  and  C_3
REMARK    3  A    between atoms: C_5  and  C_6
REMARK    4  A    between atoms: N_10  and  C_11
REMARK    5  A    between atoms: C_24  and  O_25
REMARK                            x       y       z     vdW  Elec       q    Type
REMARK                         _______ _______ _______ _____ _____    ______ ____
ROOT
ATOM      1  C   UNL     1       2.961   6.859  18.141  0.00  0.00    +0.000 C 
ATOM      2  C   UNL     1       2.243   7.777  18.800  0.00  0.00    +0.000 C 
ATOM      3  S   UNL     1       1.761   7.779  20.452  0.00  0.00    +0.000 S 
ATOM      4  C   UNL     1       1.035   9.360  20.225  0.00  0.00    +0.000 C 
ATOM      5  N   UNL     1       0.514   9.935  21.350  0.00  0.00    +0.000 N 
ATOM      6  N   UNL     1       1.091   9.831  19.024  0.00  0.00    +0.000 NA
ATOM      7  C   UNL     1       1.732   9.004  18.134  0.00  0.00    +0.000 C 
ATOM      8  O   UNL     1       1.871   9.236  16.942  0.00  0.00    +0.000 OA
ATOM      9  H   UNL     1       0.669   9.422  22.213  0.00  0.00    +0.000 HD
ENDROOT
BRANCH   5  10
ATOM     10  C   UNL     1       0.317  11.325  21.551  0.00  0.00    +0.000 A 
ATOM     11  C   UNL     1       1.075  12.289  20.869  0.00  0.00    +0.000 A 
ATOM     12  C   UNL     1       0.947  13.650  21.148  0.00  0.00    +0.000 A 
ATOM     13  C   UNL     1       0.032  14.079  22.101  0.00  0.00    +0.000 A 
ATOM     14  C   UNL     1      -0.775  13.150  22.761  0.00  0.00    +0.000 A 
ATOM     15 CL   UNL     1      -1.902  13.761  23.921  0.00  0.00    +0.000 Cl
ATOM     16  C   UNL     1      -0.643  11.779  22.486  0.00  0.00    +0.000 A 
ATOM     17 CL   UNL     1      -1.626  10.602  23.309  0.00  0.00    +0.000 Cl
ENDBRANCH   5  10
BRANCH   1  20
ATOM     18  C   UNL     1       3.032   3.446  19.751  0.00  0.00    +0.000 A 
ATOM     19  C   UNL     1       2.565   4.662  19.232  0.00  0.00    +0.000 A 
ATOM     20  C   UNL     1       3.453   5.624  18.745  0.00  0.00    +0.000 A 
ATOM     21  C   UNL     1       4.827   5.384  18.791  0.00  0.00    +0.000 A 
ATOM     22  C   UNL     1       5.306   4.182  19.304  0.00  0.00    +0.000 A 
ATOM     23  C   UNL     1       4.414   3.214  19.776  0.00  0.00    +0.000 A 
BRANCH  18  25
ATOM     24  C   UNL     1       1.636   2.676  21.533  0.00  0.00    +0.000 C 
ATOM     25  O   UNL     1       2.023   2.621  20.168  0.00  0.00    +0.000 OA
ENDBRANCH  18  25
BRANCH  23  26
ATOM     26  O   UNL     1       4.936   2.045  20.255  0.00  0.00    +0.000 OA
ATOM     27  H   UNL     1       4.861   2.034  21.222  0.00  0.00    +0.000 HD
ENDBRANCH  23  26
ENDBRANCH   1  20
TORSDOF 4
ENDMDL
