MODEL 1
REMARK VINA RESULT:      -7.6      0.000      0.000
REMARK  Name = 
REMARK  9 active torsions:
REMARK  status: ('A' for Active; 'I' for Inactive)
REMARK    1  A    between atoms: C_1  and  C_2
REMARK    2  A    between atoms: C_5  and  O_6
REMARK    3  A    between atoms: O_6  and  C_7
REMARK    4  A    between atoms: C_7  and  C_8
REMARK    5  A    between atoms: N_10  and  C_11
REMARK    6  A    between atoms: C_14  and  O_15
REMARK    7  A    between atoms: O_15  and  C_16
REMARK    8  A    between atoms: C_16  and  C_17
REMARK    9  A    between atoms: C_17  and  O_19
REMARK                            x       y       z     vdW  Elec       q    Type
REMARK                         _______ _______ _______ _____ _____    ______ ____
ROOT
ATOM      1  C   UNL     1       7.704   7.729  17.915  0.00  0.00    +0.000 C 
ATOM      2  O   UNL     1       8.054   6.853  18.710  0.00  0.00    +0.000 OA
ATOM      3  N   UNL     1       6.618   7.640  17.062  0.00  0.00    +0.000 N 
ATOM      4  H   UNL     1       6.210   8.528  16.782  0.00  0.00    +0.000 HD
ENDROOT
BRANCH   3   5
ATOM      5  C   UNL     1       5.791   6.499  17.014  0.00  0.00    +0.000 A 
ATOM      6  C   UNL     1       4.556   6.553  17.666  0.00  0.00    +0.000 A 
ATOM      7  C   UNL     1       3.731   5.429  17.706  0.00  0.00    +0.000 A 
ATOM      8  C   UNL     1       4.092   4.262  17.029  0.00  0.00    +0.000 A 
ATOM      9  C   UNL     1       5.311   4.225  16.346  0.00  0.00    +0.000 A 
ATOM     10  F   UNL     1       5.699   3.125  15.683  0.00  0.00    +0.000 F 
ATOM     11  C   UNL     1       6.163   5.330  16.345  0.00  0.00    +0.000 A 
BRANCH   8  12
ATOM     12  O   UNL     1       3.185   3.243  17.137  0.00  0.00    +0.000 OA
BRANCH  12  13
ATOM     13  C   UNL     1       3.660   2.048  17.774  0.00  0.00    +0.000 C 
BRANCH  13  14
ATOM     14  C   UNL     1       3.745   2.327  19.267  0.00  0.00    +0.000 C 
ATOM     15  O   UNL     1       2.827   2.760  19.946  0.00  0.00    +0.000 OA
BRANCH  14  16
ATOM     16  O   UNL     1       4.966   2.045  19.805  0.00  0.00    +0.000 OA
ATOM     17  H   UNL     1       5.146   1.083  19.699  0.00  0.00    +0.000 HD
ENDBRANCH  14  16
ENDBRANCH  13  14
ENDBRANCH  12  13
ENDBRANCH   8  12
ENDBRANCH   3   5
BRANCH   1  18
ATOM     18  C   UNL     1       8.468   9.054  17.815  0.00  0.00    +0.000 C 
BRANCH  18  19
ATOM     19  O   UNL     1       8.689   9.602  19.111  0.00  0.00    +0.000 OA
BRANCH  19  24
ATOM     20  C   UNL     1      12.328  13.976  18.983  0.00  0.00    +0.000 C 
ATOM     21  C   UNL     1      11.358  12.833  19.041  0.00  0.00    +0.000 A 
ATOM     22  C   UNL     1      10.828  12.275  17.875  0.00  0.00    +0.000 A 
ATOM     23  C   UNL     1       9.932  11.202  17.945  0.00  0.00    +0.000 A 
ATOM     24  C   UNL     1       9.558  10.661  19.178  0.00  0.00    +0.000 A 
ATOM     25  C   UNL     1      10.062  11.237  20.347  0.00  0.00    +0.000 A 
ATOM     26  C   UNL     1      10.955  12.315  20.277  0.00  0.00    +0.000 A 
ENDBRANCH  19  24
ENDBRANCH  18  19
ENDBRANCH   1  18
TORSDOF 8
ENDMDL
MODEL 2
REMARK VINA RESULT:      -7.6      0.892      1.518
REMARK  Name = 
REMARK  9 active torsions:
REMARK  status: ('A' for Active; 'I' for Inactive)
REMARK    1  A    between atoms: C_1  and  C_2
REMARK    2  A    between atoms: C_5  and  O_6
REMARK    3  A    between atoms: O_6  and  C_7
REMARK    4  A    between atoms: C_7  and  C_8
REMARK    5  A    between atoms: N_10  and  C_11
REMARK    6  A    between atoms: C_14  and  O_15
REMARK    7  A    between atoms: O_15  and  C_16
REMARK    8  A    between atoms: C_16  and  C_17
REMARK    9  A    between atoms: C_17  and  O_19
REMARK                            x       y       z     vdW  Elec       q    Type
REMARK                         _______ _______ _______ _____ _____    ______ ____
ROOT
ATOM      1  C   UNL     1       7.749   7.792  17.918  0.00  0.00    +0.000 C 
ATOM      2  O   UNL     1       8.150   6.978  18.753  0.00  0.00    +0.000 OA
ATOM      3  N   UNL     1       6.685   7.587  17.055  0.00  0.00    +0.000 N 
ATOM      4  H   UNL     1       6.218   8.431  16.732  0.00  0.00    +0.000 HD
ENDROOT
BRANCH   3   5
ATOM      5  C   UNL     1       5.945   6.388  17.046  0.00  0.00    +0.000 A 
ATOM      6  C   UNL     1       4.808   6.308  17.853  0.00  0.00    +0.000 A 
ATOM      7  C   UNL     1       4.081   5.121  17.931  0.00  0.00    +0.000 A 
ATOM      8  C   UNL     1       4.433   4.023  17.143  0.00  0.00    +0.000 A 
ATOM      9  C   UNL     1       5.548   4.119  16.308  0.00  0.00    +0.000 A 
ATOM     10  F   UNL     1       5.924   3.089  15.535  0.00  0.00    +0.000 F 
ATOM     11  C   UNL     1       6.309   5.288  16.264  0.00  0.00    +0.000 A 
BRANCH   8  12
ATOM     12  O   UNL     1       3.625   2.930  17.306  0.00  0.00    +0.000 OA
BRANCH  12  13
ATOM     13  C   UNL     1       2.222   3.202  17.434  0.00  0.00    +0.000 C 
BRANCH  13  14
ATOM     14  C   UNL     1       1.710   2.414  18.630  0.00  0.00    +0.000 C 
ATOM     15  O   UNL     1       2.310   2.286  19.686  0.00  0.00    +0.000 OA
BRANCH  14  16
ATOM     16  O   UNL     1       0.488   1.845  18.424  0.00  0.00    +0.000 OA
ATOM     17  H   UNL     1       0.584   1.104  17.784  0.00  0.00    +0.000 HD
ENDBRANCH  14  16
ENDBRANCH  13  14
ENDBRANCH  12  13
ENDBRANCH   8  12
ENDBRANCH   3   5
BRANCH   1  18
ATOM     18  C   UNL     1       8.415   9.165  17.771  0.00  0.00    +0.000 C 
BRANCH  18  19
ATOM     19  O   UNL     1       8.763   9.690  19.048  0.00  0.00    +0.000 OA
BRANCH  19  24
ATOM     20  C   UNL     1      12.330  14.106  19.453  0.00  0.00    +0.000 C 
ATOM     21  C   UNL     1      11.404  12.933  19.323  0.00  0.00    +0.000 A 
ATOM     22  C   UNL     1      10.855  12.318  20.451  0.00  0.00    +0.000 A 
ATOM     23  C   UNL     1       9.983  11.231  20.313  0.00  0.00    +0.000 A 
ATOM     24  C   UNL     1       9.638  10.747  19.048  0.00  0.00    +0.000 A 
ATOM     25  C   UNL     1      10.211  11.339  17.921  0.00  0.00    +0.000 A 
ATOM     26  C   UNL     1      11.087  12.424  18.059  0.00  0.00    +0.000 A 
ENDBRANCH  19  24
ENDBRANCH  18  19
ENDBRANCH   1  18
TORSDOF 8
ENDMDL
MODEL 3
REMARK VINA RESULT:      -7.6      1.016      1.062
REMARK  Name = 
REMARK  9 active torsions:
REMARK  status: ('A' for Active; 'I' for Inactive)
REMARK    1  A    between atoms: C_1  and  C_2
REMARK    2  A    between atoms: C_5  and  O_6
REMARK    3  A    between atoms: O_6  and  C_7
REMARK    4  A    between atoms: C_7  and  C_8
REMARK    5  A    between atoms: N_10  and  C_11
REMARK    6  A    between atoms: C_14  and  O_15
REMARK    7  A    between atoms: O_15  and  C_16
REMARK    8  A    between atoms: C_16  and  C_17
REMARK    9  A    between atoms: C_17  and  O_19
REMARK                            x       y       z     vdW  Elec       q    Type
REMARK                         _______ _______ _______ _____ _____    ______ ____
ROOT
ATOM      1  C   UNL     1       7.824   7.954  17.992  0.00  0.00    +0.000 C 
ATOM      2  O   UNL     1       8.213   7.053  18.738  0.00  0.00    +0.000 OA
ATOM      3  N   UNL     1       6.762   7.854  17.110  0.00  0.00    +0.000 N 
ATOM      4  H   UNL     1       6.306   8.732  16.876  0.00  0.00    +0.000 HD
ENDROOT
BRANCH   3   5
ATOM      5  C   UNL     1       6.009   6.671  16.971  0.00  0.00    +0.000 A 
ATOM      6  C   UNL     1       4.756   6.611  17.586  0.00  0.00    +0.000 A 
ATOM      7  C   UNL     1       4.002   5.440  17.536  0.00  0.00    +0.000 A 
ATOM      8  C   UNL     1       4.452   4.339  16.804  0.00  0.00    +0.000 A 
ATOM      9  C   UNL     1       5.688   4.416  16.158  0.00  0.00    +0.000 A 
ATOM     10  F   UNL     1       6.162   3.382  15.445  0.00  0.00    +0.000 F 
ATOM     11  C   UNL     1       6.470   5.568  16.247  0.00  0.00    +0.000 A 
BRANCH   8  12
ATOM     12  O   UNL     1       3.607   3.263  16.826  0.00  0.00    +0.000 OA
BRANCH  12  13
ATOM     13  C   UNL     1       2.305   3.501  17.378  0.00  0.00    +0.000 C 
BRANCH  13  14
ATOM     14  C   UNL     1       1.935   2.289  18.220  0.00  0.00    +0.000 C 
ATOM     15  O   UNL     1       0.844   2.108  18.736  0.00  0.00    +0.000 OA
BRANCH  14  16
ATOM     16  O   UNL     1       2.952   1.390  18.356  0.00  0.00    +0.000 OA
ATOM     17  H   UNL     1       2.931   1.021  19.268  0.00  0.00    +0.000 HD
ENDBRANCH  14  16
ENDBRANCH  13  14
ENDBRANCH  12  13
ENDBRANCH   8  12
ENDBRANCH   3   5
BRANCH   1  18
ATOM     18  C   UNL     1       8.506   9.327  17.993  0.00  0.00    +0.000 C 
BRANCH  18  19
ATOM     19  O   UNL     1       9.231   9.524  19.203  0.00  0.00    +0.000 OA
BRANCH  19  24
ATOM     20  C   UNL     1      11.472  14.736  19.645  0.00  0.00    +0.000 C 
ATOM     21  C   UNL     1      10.863  13.368  19.550  0.00  0.00    +0.000 A 
ATOM     22  C   UNL     1      10.766  12.705  18.324  0.00  0.00    +0.000 A 
ATOM     23  C   UNL     1      10.205  11.424  18.253  0.00  0.00    +0.000 A 
ATOM     24  C   UNL     1       9.742  10.781  19.404  0.00  0.00    +0.000 A 
ATOM     25  C   UNL     1       9.808  11.455  20.625  0.00  0.00    +0.000 A 
ATOM     26  C   UNL     1      10.364  12.739  20.696  0.00  0.00    +0.000 A 
ENDBRANCH  19  24
ENDBRANCH  18  19
ENDBRANCH   1  18
TORSDOF 8
ENDMDL
MODEL 4
REMARK VINA RESULT:      -7.1      1.530      2.075
REMARK  Name = 
REMARK  9 active torsions:
REMARK  status: ('A' for Active; 'I' for Inactive)
REMARK    1  A    between atoms: C_1  and  C_2
REMARK    2  A    between atoms: C_5  and  O_6
REMARK    3  A    between atoms: O_6  and  C_7
REMARK    4  A    between atoms: C_7  and  C_8
REMARK    5  A    between atoms: N_10  and  C_11
REMARK    6  A    between atoms: C_14  and  O_15
REMARK    7  A    between atoms: O_15  and  C_16
REMARK    8  A    between atoms: C_16  and  C_17
REMARK    9  A    between atoms: C_17  and  O_19
REMARK                            x       y       z     vdW  Elec       q    Type
REMARK                         _______ _______ _______ _____ _____    ______ ____
ROOT
ATOM      1  C   UNL     1       7.033   7.011  17.987  0.00  0.00    +0.000 C 
ATOM      2  O   UNL     1       7.422   6.201  18.831  0.00  0.00    +0.000 OA
ATOM      3  N   UNL     1       5.806   6.966  17.347  0.00  0.00    +0.000 N 
ATOM      4  H   UNL     1       5.456   7.859  17.012  0.00  0.00    +0.000 HD
ENDROOT
BRANCH   3   5
ATOM      5  C   UNL     1       4.862   5.950  17.602  0.00  0.00    +0.000 A 
ATOM      6  C   UNL     1       3.705   6.289  18.308  0.00  0.00    +0.000 A 
ATOM      7  C   UNL     1       2.773   5.308  18.645  0.00  0.00    +0.000 A 
ATOM      8  C   UNL     1       2.945   3.991  18.213  0.00  0.00    +0.000 A 
ATOM      9  C   UNL     1       4.085   3.664  17.474  0.00  0.00    +0.000 A 
ATOM     10  F   UNL     1       4.291   2.411  17.039  0.00  0.00    +0.000 F 
ATOM     11  C   UNL     1       5.045   4.631  17.177  0.00  0.00    +0.000 A 
BRANCH   8  12
ATOM     12  O   UNL     1       1.949   3.136  18.599  0.00  0.00    +0.000 OA
BRANCH  12  13
ATOM     13  C   UNL     1       2.322   2.130  19.552  0.00  0.00    +0.000 C 
BRANCH  13  14
ATOM     14  C   UNL     1       1.933   2.640  20.932  0.00  0.00    +0.000 C 
ATOM     15  O   UNL     1       2.641   2.567  21.924  0.00  0.00    +0.000 OA
BRANCH  14  16
ATOM     16  O   UNL     1       0.692   3.205  20.974  0.00  0.00    +0.000 OA
ATOM     17  H   UNL     1       0.722   3.996  21.558  0.00  0.00    +0.000 HD
ENDBRANCH  14  16
ENDBRANCH  13  14
ENDBRANCH  12  13
ENDBRANCH   8  12
ENDBRANCH   3   5
BRANCH   1  18
ATOM     18  C   UNL     1       7.909   8.198  17.572  0.00  0.00    +0.000 C 
BRANCH  18  19
ATOM     19  O   UNL     1       8.697   8.646  18.670  0.00  0.00    +0.000 OA
BRANCH  19  24
ATOM     20  C   UNL     1       9.736  14.200  19.351  0.00  0.00    +0.000 C 
ATOM     21  C   UNL     1       9.468  12.739  19.143  0.00  0.00    +0.000 A 
ATOM     22  C   UNL     1       9.767  11.802  20.135  0.00  0.00    +0.000 A 
ATOM     23  C   UNL     1       9.501  10.442  19.932  0.00  0.00    +0.000 A 
ATOM     24  C   UNL     1       8.923   9.998  18.739  0.00  0.00    +0.000 A 
ATOM     25  C   UNL     1       8.652  10.928  17.734  0.00  0.00    +0.000 A 
ATOM     26  C   UNL     1       8.923  12.288  17.936  0.00  0.00    +0.000 A 
ENDBRANCH  19  24
ENDBRANCH  18  19
ENDBRANCH   1  18
TORSDOF 8
ENDMDL
MODEL 5
REMARK VINA RESULT:      -7.1      5.296      7.882
REMARK  Name = 
REMARK  9 active torsions:
REMARK  status: ('A' for Active; 'I' for Inactive)
REMARK    1  A    between atoms: C_1  and  C_2
REMARK    2  A    between atoms: C_5  and  O_6
REMARK    3  A    between atoms: O_6  and  C_7
REMARK    4  A    between atoms: C_7  and  C_8
REMARK    5  A    between atoms: N_10  and  C_11
REMARK    6  A    between atoms: C_14  and  O_15
REMARK    7  A    between atoms: O_15  and  C_16
REMARK    8  A    between atoms: C_16  and  C_17
REMARK    9  A    between atoms: C_17  and  O_19
REMARK                            x       y       z     vdW  Elec       q    Type
REMARK                         _______ _______ _______ _____ _____    ______ ____
ROOT
ATOM      1  C   UNL     1       2.721   4.872  19.359  0.00  0.00    +0.000 C 
ATOM      2  O   UNL     1       1.610   4.634  18.880  0.00  0.00    +0.000 OA
ATOM      3  N   UNL     1       3.118   6.092  19.879  0.00  0.00    +0.000 N 
ATOM      4  H   UNL     1       3.855   6.049  20.578  0.00  0.00    +0.000 HD
ENDROOT
BRANCH   3   5
ATOM      5  C   UNL     1       2.264   7.214  19.901  0.00  0.00    +0.000 A 
ATOM      6  C   UNL     1       2.205   8.020  18.761  0.00  0.00    +0.000 A 
ATOM      7  C   UNL     1       1.429   9.178  18.756  0.00  0.00    +0.000 A 
ATOM      8  C   UNL     1       0.639   9.504  19.861  0.00  0.00    +0.000 A 
ATOM      9  C   UNL     1       0.671   8.675  20.984  0.00  0.00    +0.000 A 
ATOM     10  F   UNL     1      -0.071   8.950  22.069  0.00  0.00    +0.000 F 
ATOM     11  C   UNL     1       1.484   7.542  21.013  0.00  0.00    +0.000 A 
BRANCH   8  12
ATOM     12  O   UNL     1      -0.085  10.657  19.716  0.00  0.00    +0.000 OA
BRANCH  12  13
ATOM     13  C   UNL     1      -0.922  10.728  18.553  0.00  0.00    +0.000 C 
BRANCH  13  14
ATOM     14  C   UNL     1      -1.131  12.199  18.228  0.00  0.00    +0.000 C 
ATOM     15  O   UNL     1      -0.901  13.119  18.997  0.00  0.00    +0.000 OA
BRANCH  14  16
ATOM     16  O   UNL     1      -1.607  12.417  16.969  0.00  0.00    +0.000 OA
ATOM     17  H   UNL     1      -1.402  13.343  16.706  0.00  0.00    +0.000 HD
ENDBRANCH  14  16
ENDBRANCH  13  14
ENDBRANCH  12  13
ENDBRANCH   8  12
ENDBRANCH   3   5
BRANCH   1  18
ATOM     18  C   UNL     1       3.796   3.782  19.436  0.00  0.00    +0.000 C 
BRANCH  18  19
ATOM     19  O   UNL     1       4.566   3.755  18.238  0.00  0.00    +0.000 OA
BRANCH  19  24
ATOM     20  C   UNL     1       8.037   8.217  17.585  0.00  0.00    +0.000 C 
ATOM     21  C   UNL     1       7.117   7.040  17.729  0.00  0.00    +0.000 A 
ATOM     22  C   UNL     1       7.348   6.057  18.695  0.00  0.00    +0.000 A 
ATOM     23  C   UNL     1       6.474   4.971  18.824  0.00  0.00    +0.000 A 
ATOM     24  C   UNL     1       5.351   4.854  18.000  0.00  0.00    +0.000 A 
ATOM     25  C   UNL     1       5.137   5.818  17.013  0.00  0.00    +0.000 A 
ATOM     26  C   UNL     1       6.014   6.903  16.880  0.00  0.00    +0.000 A 
ENDBRANCH  19  24
ENDBRANCH  18  19
ENDBRANCH   1  18
TORSDOF 8
ENDMDL
MODEL 6
REMARK VINA RESULT:      -7.1      1.744      2.404
REMARK  Name = 
REMARK  9 active torsions:
REMARK  status: ('A' for Active; 'I' for Inactive)
REMARK    1  A    between atoms: C_1  and  C_2
REMARK    2  A    between atoms: C_5  and  O_6
REMARK    3  A    between atoms: O_6  and  C_7
REMARK    4  A    between atoms: C_7  and  C_8
REMARK    5  A    between atoms: N_10  and  C_11
REMARK    6  A    between atoms: C_14  and  O_15
REMARK    7  A    between atoms: O_15  and  C_16
REMARK    8  A    between atoms: C_16  and  C_17
REMARK    9  A    between atoms: C_17  and  O_19
REMARK                            x       y       z     vdW  Elec       q    Type
REMARK                         _______ _______ _______ _____ _____    ______ ____
ROOT
ATOM      1  C   UNL     1       6.660   6.896  17.289  0.00  0.00    +0.000 C 
ATOM      2  O   UNL     1       6.374   6.751  16.099  0.00  0.00    +0.000 OA
ATOM      3  N   UNL     1       5.976   6.324  18.347  0.00  0.00    +0.000 N 
ATOM      4  H   UNL     1       6.521   6.182  19.194  0.00  0.00    +0.000 HD
ENDROOT
BRANCH   3   5
ATOM      5  C   UNL     1       4.846   5.503  18.155  0.00  0.00    +0.000 A 
ATOM      6  C   UNL     1       3.584   6.102  18.180  0.00  0.00    +0.000 A 
ATOM      7  C   UNL     1       2.432   5.325  18.063  0.00  0.00    +0.000 A 
ATOM      8  C   UNL     1       2.527   3.949  17.840  0.00  0.00    +0.000 A 
ATOM      9  C   UNL     1       3.792   3.360  17.778  0.00  0.00    +0.000 A 
ATOM     10  F   UNL     1       3.930   2.041  17.568  0.00  0.00    +0.000 F 
ATOM     11  C   UNL     1       4.946   4.125  17.945  0.00  0.00    +0.000 A 
BRANCH   8  12
ATOM     12  O   UNL     1       1.321   3.312  17.729  0.00  0.00    +0.000 OA
BRANCH  12  13
ATOM     13  C   UNL     1       1.084   2.253  18.668  0.00  0.00    +0.000 C 
BRANCH  13  14
ATOM     14  C   UNL     1       1.252   2.834  20.064  0.00  0.00    +0.000 C 
ATOM     15  O   UNL     1       2.114   2.494  20.858  0.00  0.00    +0.000 OA
BRANCH  14  16
ATOM     16  O   UNL     1       0.335   3.797  20.367  0.00  0.00    +0.000 OA
ATOM     17  H   UNL     1      -0.210   3.981  19.569  0.00  0.00    +0.000 HD
ENDBRANCH  14  16
ENDBRANCH  13  14
ENDBRANCH  12  13
ENDBRANCH   8  12
ENDBRANCH   3   5
BRANCH   1  18
ATOM     18  C   UNL     1       7.862   7.748  17.713  0.00  0.00    +0.000 C 
BRANCH  18  19
ATOM     19  O   UNL     1       7.694   9.097  17.288  0.00  0.00    +0.000 OA
BRANCH  19  24
ATOM     20  C   UNL     1      10.581  12.752  20.558  0.00  0.00    +0.000 C 
ATOM     21  C   UNL     1       9.828  11.803  19.672  0.00  0.00    +0.000 A 
ATOM     22  C   UNL     1       9.737  10.444  19.982  0.00  0.00    +0.000 A 
ATOM     23  C   UNL     1       9.021   9.573  19.152  0.00  0.00    +0.000 A 
ATOM     24  C   UNL     1       8.375  10.046  18.006  0.00  0.00    +0.000 A 
ATOM     25  C   UNL     1       8.491  11.398  17.677  0.00  0.00    +0.000 A 
ATOM     26  C   UNL     1       9.212  12.269  18.505  0.00  0.00    +0.000 A 
ENDBRANCH  19  24
ENDBRANCH  18  19
ENDBRANCH   1  18
TORSDOF 8
ENDMDL
MODEL 7
REMARK VINA RESULT:      -7.1      1.470      1.946
REMARK  Name = 
REMARK  9 active torsions:
REMARK  status: ('A' for Active; 'I' for Inactive)
REMARK    1  A    between atoms: C_1  and  C_2
REMARK    2  A    between atoms: C_5  and  O_6
REMARK    3  A    between atoms: O_6  and  C_7
REMARK    4  A    between atoms: C_7  and  C_8
REMARK    5  A    between atoms: N_10  and  C_11
REMARK    6  A    between atoms: C_14  and  O_15
REMARK    7  A    between atoms: O_15  and  C_16
REMARK    8  A    between atoms: C_16  and  C_17
REMARK    9  A    between atoms: C_17  and  O_19
REMARK                            x       y       z     vdW  Elec       q    Type
REMARK                         _______ _______ _______ _____ _____    ______ ____
ROOT
ATOM      1  C   UNL     1       7.455   7.433  17.747  0.00  0.00    +0.000 C 
ATOM      2  O   UNL     1       7.728   6.655  18.663  0.00  0.00    +0.000 OA
ATOM      3  N   UNL     1       6.360   7.321  16.907  0.00  0.00    +0.000 N 
ATOM      4  H   UNL     1       6.033   8.192  16.498  0.00  0.00    +0.000 HD
ENDROOT
BRANCH   3   5
ATOM      5  C   UNL     1       5.432   6.265  17.020  0.00  0.00    +0.000 A 
ATOM      6  C   UNL     1       5.743   5.047  16.411  0.00  0.00    +0.000 A 
ATOM      7  C   UNL     1       4.829   3.994  16.435  0.00  0.00    +0.000 A 
ATOM      8  C   UNL     1       3.626   4.117  17.135  0.00  0.00    +0.000 A 
ATOM      9  C   UNL     1       3.337   5.324  17.775  0.00  0.00    +0.000 A 
ATOM     10  F   UNL     1       2.193   5.487  18.458  0.00  0.00    +0.000 F 
ATOM     11  C   UNL     1       4.225   6.398  17.712  0.00  0.00    +0.000 A 
BRANCH   8  12
ATOM     12  O   UNL     1       2.831   3.004  17.090  0.00  0.00    +0.000 OA
BRANCH  12  13
ATOM     13  C   UNL     1       2.998   2.072  18.168  0.00  0.00    +0.000 C 
BRANCH  13  14
ATOM     14  C   UNL     1       1.759   2.161  19.046  0.00  0.00    +0.000 C 
ATOM     15  O   UNL     1       1.770   2.429  20.237  0.00  0.00    +0.000 OA
BRANCH  14  16
ATOM     16  O   UNL     1       0.597   1.914  18.376  0.00  0.00    +0.000 OA
ATOM     17  H   UNL     1      -0.150   1.934  19.016  0.00  0.00    +0.000 HD
ENDBRANCH  14  16
ENDBRANCH  13  14
ENDBRANCH  12  13
ENDBRANCH   8  12
ENDBRANCH   3   5
BRANCH   1  18
ATOM     18  C   UNL     1       8.336   8.655  17.461  0.00  0.00    +0.000 C 
BRANCH  18  19
ATOM     19  O   UNL     1       8.192   9.627  18.491  0.00  0.00    +0.000 OA
BRANCH  19  24
ATOM     20  C   UNL     1      11.562  14.193  18.066  0.00  0.00    +0.000 C 
ATOM     21  C   UNL     1      10.684  12.984  18.205  0.00  0.00    +0.000 A 
ATOM     22  C   UNL     1       9.409  12.949  17.636  0.00  0.00    +0.000 A 
ATOM     23  C   UNL     1       8.605  11.809  17.764  0.00  0.00    +0.000 A 
ATOM     24  C   UNL     1       9.066  10.683  18.452  0.00  0.00    +0.000 A 
ATOM     25  C   UNL     1      10.328  10.728  19.048  0.00  0.00    +0.000 A 
ATOM     26  C   UNL     1      11.130  11.870  18.925  0.00  0.00    +0.000 A 
ENDBRANCH  19  24
ENDBRANCH  18  19
ENDBRANCH   1  18
TORSDOF 8
ENDMDL
MODEL 8
REMARK VINA RESULT:      -7.0      5.696      7.978
REMARK  Name = 
REMARK  9 active torsions:
REMARK  status: ('A' for Active; 'I' for Inactive)
REMARK    1  A    between atoms: C_1  and  C_2
REMARK    2  A    between atoms: C_5  and  O_6
REMARK    3  A    between atoms: O_6  and  C_7
REMARK    4  A    between atoms: C_7  and  C_8
REMARK    5  A    between atoms: N_10  and  C_11
REMARK    6  A    between atoms: C_14  and  O_15
REMARK    7  A    between atoms: O_15  and  C_16
REMARK    8  A    between atoms: C_16  and  C_17
REMARK    9  A    between atoms: C_17  and  O_19
REMARK                            x       y       z     vdW  Elec       q    Type
REMARK                         _______ _______ _______ _____ _____    ______ ____
ROOT
ATOM      1  C   UNL     1       1.771   7.496  20.241  0.00  0.00    +0.000 C 
ATOM      2  O   UNL     1       1.966   8.176  19.231  0.00  0.00    +0.000 OA
ATOM      3  N   UNL     1       2.230   6.203  20.429  0.00  0.00    +0.000 N 
ATOM      4  H   UNL     1       2.360   5.924  21.398  0.00  0.00    +0.000 HD
ENDROOT
BRANCH   3   5
ATOM      5  C   UNL     1       2.978   5.521  19.449  0.00  0.00    +0.000 A 
ATOM      6  C   UNL     1       4.368   5.664  19.462  0.00  0.00    +0.000 A 
ATOM      7  C   UNL     1       5.147   5.065  18.473  0.00  0.00    +0.000 A 
ATOM      8  C   UNL     1       4.557   4.250  17.505  0.00  0.00    +0.000 A 
ATOM      9  C   UNL     1       3.171   4.078  17.518  0.00  0.00    +0.000 A 
ATOM     10  F   UNL     1       2.561   3.306  16.605  0.00  0.00    +0.000 F 
ATOM     11  C   UNL     1       2.381   4.716  18.474  0.00  0.00    +0.000 A 
BRANCH   8  12
ATOM     12  O   UNL     1       5.439   3.712  16.606  0.00  0.00    +0.000 OA
BRANCH  12  13
ATOM     13  C   UNL     1       6.679   4.416  16.450  0.00  0.00    +0.000 C 
BRANCH  13  14
ATOM     14  C   UNL     1       6.888   4.651  14.961  0.00  0.00    +0.000 C 
ATOM     15  O   UNL     1       7.727   5.400  14.487  0.00  0.00    +0.000 OA
BRANCH  14  16
ATOM     16  O   UNL     1       6.038   3.933  14.172  0.00  0.00    +0.000 OA
ATOM     17  H   UNL     1       5.736   3.138  14.669  0.00  0.00    +0.000 HD
ENDBRANCH  14  16
ENDBRANCH  13  14
ENDBRANCH  12  13
ENDBRANCH   8  12
ENDBRANCH   3   5
BRANCH   1  18
ATOM     18  C   UNL     1       0.983   8.057  21.430  0.00  0.00    +0.000 C 
BRANCH  18  19
ATOM     19  O   UNL     1       1.301   9.430  21.637  0.00  0.00    +0.000 OA
BRANCH  19  24
ATOM     20  C   UNL     1      -3.027  13.092  22.131  0.00  0.00    +0.000 C 
ATOM     21  C   UNL     1      -1.900  12.108  22.018  0.00  0.00    +0.000 A 
ATOM     22  C   UNL     1      -1.160  11.989  20.839  0.00  0.00    +0.000 A 
ATOM     23  C   UNL     1      -0.104  11.075  20.752  0.00  0.00    +0.000 A 
ATOM     24  C   UNL     1       0.238  10.271  21.843  0.00  0.00    +0.000 A 
ATOM     25  C   UNL     1      -0.520  10.365  23.012  0.00  0.00    +0.000 A 
ATOM     26  C   UNL     1      -1.581  11.278  23.098  0.00  0.00    +0.000 A 
ENDBRANCH  19  24
ENDBRANCH  18  19
ENDBRANCH   1  18
TORSDOF 8
ENDMDL
MODEL 9
REMARK VINA RESULT:      -7.0      5.368      8.253
REMARK  Name = 
REMARK  9 active torsions:
REMARK  status: ('A' for Active; 'I' for Inactive)
REMARK    1  A    between atoms: C_1  and  C_2
REMARK    2  A    between atoms: C_5  and  O_6
REMARK    3  A    between atoms: O_6  and  C_7
REMARK    4  A    between atoms: C_7  and  C_8
REMARK    5  A    between atoms: N_10  and  C_11
REMARK    6  A    between atoms: C_14  and  O_15
REMARK    7  A    between atoms: O_15  and  C_16
REMARK    8  A    between atoms: C_16  and  C_17
REMARK    9  A    between atoms: C_17  and  O_19
REMARK                            x       y       z     vdW  Elec       q    Type
REMARK                         _______ _______ _______ _____ _____    ______ ____
ROOT
ATOM      1  C   UNL     1       2.950   4.814  19.210  0.00  0.00    +0.000 C 
ATOM      2  O   UNL     1       1.937   4.579  18.547  0.00  0.00    +0.000 OA
ATOM      3  N   UNL     1       3.292   6.051  19.728  0.00  0.00    +0.000 N 
ATOM      4  H   UNL     1       3.886   6.029  20.553  0.00  0.00    +0.000 HD
ENDROOT
BRANCH   3   5
ATOM      5  C   UNL     1       2.493   7.196  19.531  0.00  0.00    +0.000 A 
ATOM      6  C   UNL     1       2.514   7.805  18.273  0.00  0.00    +0.000 A 
ATOM      7  C   UNL     1       1.795   8.978  18.047  0.00  0.00    +0.000 A 
ATOM      8  C   UNL     1       0.983   9.514  19.049  0.00  0.00    +0.000 A 
ATOM      9  C   UNL     1       0.935   8.881  20.293  0.00  0.00    +0.000 A 
ATOM     10  F   UNL     1       0.170   9.362  21.285  0.00  0.00    +0.000 F 
ATOM     11  C   UNL     1       1.692   7.735  20.541  0.00  0.00    +0.000 A 
BRANCH   8  12
ATOM     12  O   UNL     1       0.322  10.657  18.687  0.00  0.00    +0.000 OA
BRANCH  12  13
ATOM     13  C   UNL     1      -1.082  10.512  18.431  0.00  0.00    +0.000 C 
BRANCH  13  14
ATOM     14  C   UNL     1      -1.691  11.907  18.412  0.00  0.00    +0.000 C 
ATOM     15  O   UNL     1      -2.540  12.304  19.194  0.00  0.00    +0.000 OA
BRANCH  14  16
ATOM     16  O   UNL     1      -1.194  12.704  17.424  0.00  0.00    +0.000 OA
ATOM     17  H   UNL     1      -0.994  13.591  17.800  0.00  0.00    +0.000 HD
ENDBRANCH  14  16
ENDBRANCH  13  14
ENDBRANCH  12  13
ENDBRANCH   8  12
ENDBRANCH   3   5
BRANCH   1  18
ATOM     18  C   UNL     1       3.949   3.700  19.544  0.00  0.00    +0.000 C 
BRANCH  18  19
ATOM     19  O   UNL     1       5.285   4.183  19.450  0.00  0.00    +0.000 OA
BRANCH  19  24
ATOM     20  C   UNL     1       6.986   4.865  14.062  0.00  0.00    +0.000 C 
ATOM     21  C   UNL     1       6.543   4.713  15.488  0.00  0.00    +0.000 A 
ATOM     22  C   UNL     1       5.499   3.852  15.832  0.00  0.00    +0.000 A 
ATOM     23  C   UNL     1       5.104   3.712  17.168  0.00  0.00    +0.000 A 
ATOM     24  C   UNL     1       5.753   4.421  18.183  0.00  0.00    +0.000 A 
ATOM     25  C   UNL     1       6.776   5.306  17.838  0.00  0.00    +0.000 A 
ATOM     26  C   UNL     1       7.168   5.450  16.500  0.00  0.00    +0.000 A 
ENDBRANCH  19  24
ENDBRANCH  18  19
ENDBRANCH   1  18
TORSDOF 8
ENDMDL
