MODEL 1
REMARK VINA RESULT:      -7.1      0.000      0.000
REMARK  Name = 
REMARK  5 active torsions:
REMARK  status: ('A' for Active; 'I' for Inactive)
REMARK    1  A    between atoms: C_2  and  C_3
REMARK    2  A    between atoms: C_3  and  C_4
REMARK    3  A    between atoms: N_9  and  N_10
REMARK    4  A    between atoms: C_11  and  C_12
REMARK    5  A    between atoms: C_13  and  C_14
REMARK                            x       y       z     vdW  Elec       q    Type
REMARK                         _______ _______ _______ _____ _____    ______ ____
ROOT
ATOM      1  O   UNL     1       5.143   3.959  16.554  0.00  0.00    +0.000 OA
ATOM      2  C   UNL     1       5.786   4.654  17.342  0.00  0.00    +0.000 C 
ATOM      3  N   UNL     1       6.858   5.386  16.868  0.00  0.00    +0.000 N 
ATOM      4  H   UNL     1       7.073   5.280  15.881  0.00  0.00    +0.000 HD
ENDROOT
BRANCH   3   5
ATOM      5  N   UNL     1       7.616   6.181  17.666  0.00  0.00    +0.000 NA
ATOM      6  C   UNL     1       7.535   7.453  17.437  0.00  0.00    +0.000 C 
BRANCH   6   7
ATOM      7  C   UNL     1       8.353   8.395  18.226  0.00  0.00    +0.000 C 
ATOM      8  C   UNL     1       8.536   9.666  17.842  0.00  0.00    +0.000 C 
BRANCH   8   9
ATOM      9  C   UNL     1       9.384  10.612  18.590  0.00  0.00    +0.000 A 
ATOM     10  C   UNL     1      10.238  11.473  17.887  0.00  0.00    +0.000 A 
ATOM     11  C   UNL     1      11.073  12.365  18.569  0.00  0.00    +0.000 A 
ATOM     12  C   UNL     1      11.055  12.414  19.961  0.00  0.00    +0.000 A 
ATOM     13  C   UNL     1      10.192  11.586  20.672  0.00  0.00    +0.000 A 
ATOM     14  C   UNL     1       9.355  10.699  19.990  0.00  0.00    +0.000 A 
ENDBRANCH   8   9
ENDBRANCH   6   7
ENDBRANCH   3   5
BRANCH   2  15
ATOM     15  C   UNL     1       5.437   4.831  18.817  0.00  0.00    +0.000 C 
BRANCH  15  16
ATOM     16  C   UNL     1       4.127   4.186  19.188  0.00  0.00    +0.000 A 
ATOM     17  C   UNL     1       2.865   4.748  19.254  0.00  0.00    +0.000 A 
ATOM     18  C   UNL     1       1.877   3.826  19.706  0.00  0.00    +0.000 A 
ATOM     19  C   UNL     1       2.414   2.589  19.979  0.00  0.00    +0.000 A 
ATOM     20  S   UNL     1       4.096   2.542  19.683  0.00  0.00    +0.000 S 
ENDBRANCH  15  16
ENDBRANCH   2  15
TORSDOF 5
ENDMDL
MODEL 2
REMARK VINA RESULT:      -7.1      1.241      1.640
REMARK  Name = 
REMARK  5 active torsions:
REMARK  status: ('A' for Active; 'I' for Inactive)
REMARK    1  A    between atoms: C_2  and  C_3
REMARK    2  A    between atoms: C_3  and  C_4
REMARK    3  A    between atoms: N_9  and  N_10
REMARK    4  A    between atoms: C_11  and  C_12
REMARK    5  A    between atoms: C_13  and  C_14
REMARK                            x       y       z     vdW  Elec       q    Type
REMARK                         _______ _______ _______ _____ _____    ______ ____
ROOT
ATOM      1  O   UNL     1       4.925   4.506  15.628  0.00  0.00    +0.000 OA
ATOM      2  C   UNL     1       5.226   5.531  16.241  0.00  0.00    +0.000 C 
ATOM      3  N   UNL     1       6.470   6.094  16.033  0.00  0.00    +0.000 N 
ATOM      4  H   UNL     1       7.086   5.599  15.395  0.00  0.00    +0.000 HD
ENDROOT
BRANCH   3   5
ATOM      5  N   UNL     1       6.880   7.225  16.663  0.00  0.00    +0.000 NA
ATOM      6  C   UNL     1       7.756   7.062  17.602  0.00  0.00    +0.000 C 
BRANCH   6   7
ATOM      7  C   UNL     1       8.233   8.228  18.373  0.00  0.00    +0.000 C 
ATOM      8  C   UNL     1       8.423   9.425  17.800  0.00  0.00    +0.000 C 
BRANCH   8   9
ATOM      9  C   UNL     1       8.940  10.591  18.541  0.00  0.00    +0.000 A 
ATOM     10  C   UNL     1       9.413  10.418  19.849  0.00  0.00    +0.000 A 
ATOM     11  C   UNL     1       9.887  11.509  20.586  0.00  0.00    +0.000 A 
ATOM     12  C   UNL     1       9.904  12.781  20.020  0.00  0.00    +0.000 A 
ATOM     13  C   UNL     1       9.465  12.963  18.713  0.00  0.00    +0.000 A 
ATOM     14  C   UNL     1       8.997  11.873  17.974  0.00  0.00    +0.000 A 
ENDBRANCH   8   9
ENDBRANCH   6   7
ENDBRANCH   3   5
BRANCH   2  15
ATOM     15  C   UNL     1       4.282   6.285  17.175  0.00  0.00    +0.000 C 
BRANCH  15  16
ATOM     16  C   UNL     1       3.462   5.366  18.041  0.00  0.00    +0.000 A 
ATOM     17  C   UNL     1       2.103   5.113  18.003  0.00  0.00    +0.000 A 
ATOM     18  C   UNL     1       1.682   4.221  19.032  0.00  0.00    +0.000 A 
ATOM     19  C   UNL     1       2.730   3.825  19.831  0.00  0.00    +0.000 A 
ATOM     20  S   UNL     1       4.211   4.519  19.334  0.00  0.00    +0.000 S 
ENDBRANCH  15  16
ENDBRANCH   2  15
TORSDOF 5
ENDMDL
MODEL 3
REMARK VINA RESULT:      -7.0      0.949      1.083
REMARK  Name = 
REMARK  5 active torsions:
REMARK  status: ('A' for Active; 'I' for Inactive)
REMARK    1  A    between atoms: C_2  and  C_3
REMARK    2  A    between atoms: C_3  and  C_4
REMARK    3  A    between atoms: N_9  and  N_10
REMARK    4  A    between atoms: C_11  and  C_12
REMARK    5  A    between atoms: C_13  and  C_14
REMARK                            x       y       z     vdW  Elec       q    Type
REMARK                         _______ _______ _______ _____ _____    ______ ____
ROOT
ATOM      1  O   UNL     1       4.770   4.197  16.844  0.00  0.00    +0.000 OA
ATOM      2  C   UNL     1       5.530   4.839  17.570  0.00  0.00    +0.000 C 
ATOM      3  N   UNL     1       6.586   5.521  16.996  0.00  0.00    +0.000 N 
ATOM      4  H   UNL     1       6.690   5.424  15.991  0.00  0.00    +0.000 HD
ENDROOT
BRANCH   3   5
ATOM      5  N   UNL     1       7.467   6.257  17.722  0.00  0.00    +0.000 NA
ATOM      6  C   UNL     1       7.368   7.542  17.597  0.00  0.00    +0.000 C 
BRANCH   6   7
ATOM      7  C   UNL     1       8.308   8.426  18.314  0.00  0.00    +0.000 C 
ATOM      8  C   UNL     1       8.461   9.715  17.981  0.00  0.00    +0.000 C 
BRANCH   8   9
ATOM      9  C   UNL     1       9.425  10.605  18.655  0.00  0.00    +0.000 A 
ATOM     10  C   UNL     1      10.358  11.313  17.885  0.00  0.00    +0.000 A 
ATOM     11  C   UNL     1      11.303  12.145  18.497  0.00  0.00    +0.000 A 
ATOM     12  C   UNL     1      11.317  12.288  19.882  0.00  0.00    +0.000 A 
ATOM     13  C   UNL     1      10.378  11.614  20.657  0.00  0.00    +0.000 A 
ATOM     14  C   UNL     1       9.432  10.786  20.046  0.00  0.00    +0.000 A 
ENDBRANCH   8   9
ENDBRANCH   6   7
ENDBRANCH   3   5
BRANCH   2  15
ATOM     15  C   UNL     1       5.347   5.005  19.076  0.00  0.00    +0.000 C 
BRANCH  15  16
ATOM     16  C   UNL     1       3.965   4.628  19.541  0.00  0.00    +0.000 A 
ATOM     17  C   UNL     1       3.452   3.376  19.829  0.00  0.00    +0.000 A 
ATOM     18  C   UNL     1       2.072   3.418  20.184  0.00  0.00    +0.000 A 
ATOM     19  C   UNL     1       1.570   4.698  20.150  0.00  0.00    +0.000 A 
ATOM     20  S   UNL     1       2.759   5.840  19.701  0.00  0.00    +0.000 S 
ENDBRANCH  15  16
ENDBRANCH   2  15
TORSDOF 5
ENDMDL
MODEL 4
REMARK VINA RESULT:      -6.9      1.424      1.581
REMARK  Name = 
REMARK  5 active torsions:
REMARK  status: ('A' for Active; 'I' for Inactive)
REMARK    1  A    between atoms: C_2  and  C_3
REMARK    2  A    between atoms: C_3  and  C_4
REMARK    3  A    between atoms: N_9  and  N_10
REMARK    4  A    between atoms: C_11  and  C_12
REMARK    5  A    between atoms: C_13  and  C_14
REMARK                            x       y       z     vdW  Elec       q    Type
REMARK                         _______ _______ _______ _____ _____    ______ ____
ROOT
ATOM      1  O   UNL     1       6.107   3.702  15.858  0.00  0.00    +0.000 OA
ATOM      2  C   UNL     1       6.168   4.906  16.112  0.00  0.00    +0.000 C 
ATOM      3  N   UNL     1       7.403   5.525  16.127  0.00  0.00    +0.000 N 
ATOM      4  H   UNL     1       8.206   4.930  15.953  0.00  0.00    +0.000 HD
ENDROOT
BRANCH   3   5
ATOM      5  N   UNL     1       7.559   6.848  16.392  0.00  0.00    +0.000 NA
ATOM      6  C   UNL     1       7.718   7.159  17.639  0.00  0.00    +0.000 C 
BRANCH   6   7
ATOM      7  C   UNL     1       7.854   8.576  18.032  0.00  0.00    +0.000 C 
ATOM      8  C   UNL     1       8.991   9.059  18.553  0.00  0.00    +0.000 C 
BRANCH   8   9
ATOM      9  C   UNL     1       9.136  10.459  18.993  0.00  0.00    +0.000 A 
ATOM     10  C   UNL     1       9.101  11.485  18.038  0.00  0.00    +0.000 A 
ATOM     11  C   UNL     1       9.260  12.822  18.422  0.00  0.00    +0.000 A 
ATOM     12  C   UNL     1       9.444  13.148  19.763  0.00  0.00    +0.000 A 
ATOM     13  C   UNL     1       9.451  12.143  20.725  0.00  0.00    +0.000 A 
ATOM     14  C   UNL     1       9.287  10.808  20.343  0.00  0.00    +0.000 A 
ENDBRANCH   8   9
ENDBRANCH   6   7
ENDBRANCH   3   5
BRANCH   2  15
ATOM     15  C   UNL     1       4.952   5.800  16.342  0.00  0.00    +0.000 C 
BRANCH  15  16
ATOM     16  C   UNL     1       4.176   5.423  17.577  0.00  0.00    +0.000 A 
ATOM     17  C   UNL     1       2.808   5.314  17.749  0.00  0.00    +0.000 A 
ATOM     18  C   UNL     1       2.448   4.991  19.089  0.00  0.00    +0.000 A 
ATOM     19  C   UNL     1       3.551   4.870  19.904  0.00  0.00    +0.000 A 
ATOM     20  S   UNL     1       5.008   5.136  19.052  0.00  0.00    +0.000 S 
ENDBRANCH  15  16
ENDBRANCH   2  15
TORSDOF 5
ENDMDL
MODEL 5
REMARK VINA RESULT:      -6.8      1.392      1.825
REMARK  Name = 
REMARK  5 active torsions:
REMARK  status: ('A' for Active; 'I' for Inactive)
REMARK    1  A    between atoms: C_2  and  C_3
REMARK    2  A    between atoms: C_3  and  C_4
REMARK    3  A    between atoms: N_9  and  N_10
REMARK    4  A    between atoms: C_11  and  C_12
REMARK    5  A    between atoms: C_13  and  C_14
REMARK                            x       y       z     vdW  Elec       q    Type
REMARK                         _______ _______ _______ _____ _____    ______ ____
ROOT
ATOM      1  O   UNL     1       4.746   3.015  17.860  0.00  0.00    +0.000 OA
ATOM      2  C   UNL     1       5.140   4.065  18.370  0.00  0.00    +0.000 C 
ATOM      3  N   UNL     1       6.482   4.383  18.291  0.00  0.00    +0.000 N 
ATOM      4  H   UNL     1       7.080   3.701  17.835  0.00  0.00    +0.000 HD
ENDROOT
BRANCH   3   5
ATOM      5  N   UNL     1       6.999   5.522  18.821  0.00  0.00    +0.000 NA
ATOM      6  C   UNL     1       7.549   6.338  17.979  0.00  0.00    +0.000 C 
BRANCH   6   7
ATOM      7  C   UNL     1       8.175   7.584  18.463  0.00  0.00    +0.000 C 
ATOM      8  C   UNL     1       7.957   8.764  17.866  0.00  0.00    +0.000 C 
BRANCH   8   9
ATOM      9  C   UNL     1       8.606  10.013  18.305  0.00  0.00    +0.000 A 
ATOM     10  C   UNL     1       9.396  10.004  19.463  0.00  0.00    +0.000 A 
ATOM     11  C   UNL     1      10.005  11.179  19.920  0.00  0.00    +0.000 A 
ATOM     12  C   UNL     1       9.840  12.371  19.218  0.00  0.00    +0.000 A 
ATOM     13  C   UNL     1       9.083  12.388  18.051  0.00  0.00    +0.000 A 
ATOM     14  C   UNL     1       8.479  11.214  17.592  0.00  0.00    +0.000 A 
ENDBRANCH   8   9
ENDBRANCH   6   7
ENDBRANCH   3   5
BRANCH   2  15
ATOM     15  C   UNL     1       4.229   5.097  19.028  0.00  0.00    +0.000 C 
BRANCH  15  16
ATOM     16  C   UNL     1       2.970   4.491  19.590  0.00  0.00    +0.000 A 
ATOM     17  C   UNL     1       2.689   4.111  20.889  0.00  0.00    +0.000 A 
ATOM     18  C   UNL     1       1.401   3.516  21.020  0.00  0.00    +0.000 A 
ATOM     19  C   UNL     1       0.738   3.451  19.816  0.00  0.00    +0.000 A 
ATOM     20  S   UNL     1       1.664   4.113  18.540  0.00  0.00    +0.000 S 
ENDBRANCH  15  16
ENDBRANCH   2  15
TORSDOF 5
ENDMDL
MODEL 6
REMARK VINA RESULT:      -6.8      1.548      1.784
REMARK  Name = 
REMARK  5 active torsions:
REMARK  status: ('A' for Active; 'I' for Inactive)
REMARK    1  A    between atoms: C_2  and  C_3
REMARK    2  A    between atoms: C_3  and  C_4
REMARK    3  A    between atoms: N_9  and  N_10
REMARK    4  A    between atoms: C_11  and  C_12
REMARK    5  A    between atoms: C_13  and  C_14
REMARK                            x       y       z     vdW  Elec       q    Type
REMARK                         _______ _______ _______ _____ _____    ______ ____
ROOT
ATOM      1  O   UNL     1       5.446   4.667  15.802  0.00  0.00    +0.000 OA
ATOM      2  C   UNL     1       5.837   5.716  16.317  0.00  0.00    +0.000 C 
ATOM      3  N   UNL     1       7.180   6.032  16.255  0.00  0.00    +0.000 N 
ATOM      4  H   UNL     1       7.782   5.350  15.804  0.00  0.00    +0.000 HD
ENDROOT
BRANCH   3   5
ATOM      5  N   UNL     1       7.694   7.169  16.791  0.00  0.00    +0.000 NA
ATOM      6  C   UNL     1       7.915   7.141  18.067  0.00  0.00    +0.000 C 
BRANCH   6   7
ATOM      7  C   UNL     1       8.434   8.343  18.749  0.00  0.00    +0.000 C 
ATOM      8  C   UNL     1       8.609   9.504  18.102  0.00  0.00    +0.000 C 
BRANCH   8   9
ATOM      9  C   UNL     1       9.167  10.704  18.752  0.00  0.00    +0.000 A 
ATOM     10  C   UNL     1       9.283  11.892  18.017  0.00  0.00    +0.000 A 
ATOM     11  C   UNL     1       9.831  13.041  18.598  0.00  0.00    +0.000 A 
ATOM     12  C   UNL     1      10.258  13.018  19.924  0.00  0.00    +0.000 A 
ATOM     13  C   UNL     1      10.123  11.855  20.675  0.00  0.00    +0.000 A 
ATOM     14  C   UNL     1       9.571  10.709  20.096  0.00  0.00    +0.000 A 
ENDBRANCH   8   9
ENDBRANCH   6   7
ENDBRANCH   3   5
BRANCH   2  15
ATOM     15  C   UNL     1       4.920   6.750  16.966  0.00  0.00    +0.000 C 
BRANCH  15  16
ATOM     16  C   UNL     1       4.117   6.183  18.108  0.00  0.00    +0.000 A 
ATOM     17  C   UNL     1       4.520   5.332  19.120  0.00  0.00    +0.000 A 
ATOM     18  C   UNL     1       3.450   4.967  19.988  0.00  0.00    +0.000 A 
ATOM     19  C   UNL     1       2.259   5.544  19.608  0.00  0.00    +0.000 A 
ATOM     20  S   UNL     1       2.438   6.525  18.220  0.00  0.00    +0.000 S 
ENDBRANCH  15  16
ENDBRANCH   2  15
TORSDOF 5
ENDMDL
MODEL 7
REMARK VINA RESULT:      -6.7      6.697      9.481
REMARK  Name = 
REMARK  5 active torsions:
REMARK  status: ('A' for Active; 'I' for Inactive)
REMARK    1  A    between atoms: C_2  and  C_3
REMARK    2  A    between atoms: C_3  and  C_4
REMARK    3  A    between atoms: N_9  and  N_10
REMARK    4  A    between atoms: C_11  and  C_12
REMARK    5  A    between atoms: C_13  and  C_14
REMARK                            x       y       z     vdW  Elec       q    Type
REMARK                         _______ _______ _______ _____ _____    ______ ____
ROOT
ATOM      1  O   UNL     1       0.424  12.468  18.793  0.00  0.00    +0.000 OA
ATOM      2  C   UNL     1       0.383  11.256  18.576  0.00  0.00    +0.000 C 
ATOM      3  N   UNL     1       1.490  10.637  18.027  0.00  0.00    +0.000 N 
ATOM      4  H   UNL     1       2.275  11.239  17.803  0.00  0.00    +0.000 HD
ENDROOT
BRANCH   3   5
ATOM      5  N   UNL     1       1.531   9.306  17.761  0.00  0.00    +0.000 NA
ATOM      6  C   UNL     1       2.620   8.695  18.105  0.00  0.00    +0.000 C 
BRANCH   6   7
ATOM      7  C   UNL     1       2.776   7.255  17.820  0.00  0.00    +0.000 C 
ATOM      8  C   UNL     1       2.168   6.317  18.561  0.00  0.00    +0.000 C 
BRANCH   8   9
ATOM      9  C   UNL     1       2.345   4.873  18.322  0.00  0.00    +0.000 A 
ATOM     10  C   UNL     1       3.479   4.426  17.630  0.00  0.00    +0.000 A 
ATOM     11  C   UNL     1       3.663   3.064  17.366  0.00  0.00    +0.000 A 
ATOM     12  C   UNL     1       2.722   2.134  17.800  0.00  0.00    +0.000 A 
ATOM     13  C   UNL     1       1.605   2.560  18.513  0.00  0.00    +0.000 A 
ATOM     14  C   UNL     1       1.424   3.920  18.781  0.00  0.00    +0.000 A 
ENDBRANCH   8   9
ENDBRANCH   6   7
ENDBRANCH   3   5
BRANCH   2  15
ATOM     15  C   UNL     1      -0.792  10.355  18.945  0.00  0.00    +0.000 C 
BRANCH  15  16
ATOM     16  C   UNL     1      -1.942  10.470  17.979  0.00  0.00    +0.000 A 
ATOM     17  C   UNL     1      -2.110   9.869  16.746  0.00  0.00    +0.000 A 
ATOM     18  C   UNL     1      -3.313  10.274  16.097  0.00  0.00    +0.000 A 
ATOM     19  C   UNL     1      -4.024  11.180  16.850  0.00  0.00    +0.000 A 
ATOM     20  S   UNL     1      -3.249  11.528  18.333  0.00  0.00    +0.000 S 
ENDBRANCH  15  16
ENDBRANCH   2  15
TORSDOF 5
ENDMDL
MODEL 8
REMARK VINA RESULT:      -6.7      1.352      1.579
REMARK  Name = 
REMARK  5 active torsions:
REMARK  status: ('A' for Active; 'I' for Inactive)
REMARK    1  A    between atoms: C_2  and  C_3
REMARK    2  A    between atoms: C_3  and  C_4
REMARK    3  A    between atoms: N_9  and  N_10
REMARK    4  A    between atoms: C_11  and  C_12
REMARK    5  A    between atoms: C_13  and  C_14
REMARK                            x       y       z     vdW  Elec       q    Type
REMARK                         _______ _______ _______ _____ _____    ______ ____
ROOT
ATOM      1  O   UNL     1       4.961   3.172  18.386  0.00  0.00    +0.000 OA
ATOM      2  C   UNL     1       5.116   4.380  18.568  0.00  0.00    +0.000 C 
ATOM      3  N   UNL     1       6.255   4.990  18.077  0.00  0.00    +0.000 N 
ATOM      4  H   UNL     1       6.924   4.385  17.613  0.00  0.00    +0.000 HD
ENDROOT
BRANCH   3   5
ATOM      5  N   UNL     1       6.501   6.317  18.229  0.00  0.00    +0.000 NA
ATOM      6  C   UNL     1       7.442   6.805  17.485  0.00  0.00    +0.000 C 
BRANCH   6   7
ATOM      7  C   UNL     1       7.811   8.230  17.607  0.00  0.00    +0.000 C 
ATOM      8  C   UNL     1       8.615   8.671  18.585  0.00  0.00    +0.000 C 
BRANCH   8   9
ATOM      9  C   UNL     1       8.962  10.094  18.752  0.00  0.00    +0.000 A 
ATOM     10  C   UNL     1       8.554  11.018  17.780  0.00  0.00    +0.000 A 
ATOM     11  C   UNL     1       8.889  12.372  17.897  0.00  0.00    +0.000 A 
ATOM     12  C   UNL     1       9.624  12.818  18.992  0.00  0.00    +0.000 A 
ATOM     13  C   UNL     1      10.011  11.918  19.980  0.00  0.00    +0.000 A 
ATOM     14  C   UNL     1       9.672  10.566  19.866  0.00  0.00    +0.000 A 
ENDBRANCH   8   9
ENDBRANCH   6   7
ENDBRANCH   3   5
BRANCH   2  15
ATOM     15  C   UNL     1       4.090   5.288  19.241  0.00  0.00    +0.000 C 
BRANCH  15  16
ATOM     16  C   UNL     1       2.859   4.544  19.691  0.00  0.00    +0.000 A 
ATOM     17  C   UNL     1       2.512   4.119  20.960  0.00  0.00    +0.000 A 
ATOM     18  C   UNL     1       1.288   3.389  20.978  0.00  0.00    +0.000 A 
ATOM     19  C   UNL     1       0.740   3.271  19.721  0.00  0.00    +0.000 A 
ATOM     20  S   UNL     1       1.694   4.045  18.532  0.00  0.00    +0.000 S 
ENDBRANCH  15  16
ENDBRANCH   2  15
TORSDOF 5
ENDMDL
MODEL 9
REMARK VINA RESULT:      -6.6      1.270      1.341
REMARK  Name = 
REMARK  5 active torsions:
REMARK  status: ('A' for Active; 'I' for Inactive)
REMARK    1  A    between atoms: C_2  and  C_3
REMARK    2  A    between atoms: C_3  and  C_4
REMARK    3  A    between atoms: N_9  and  N_10
REMARK    4  A    between atoms: C_11  and  C_12
REMARK    5  A    between atoms: C_13  and  C_14
REMARK                            x       y       z     vdW  Elec       q    Type
REMARK                         _______ _______ _______ _____ _____    ______ ____
ROOT
ATOM      1  O   UNL     1       5.295   3.900  16.542  0.00  0.00    +0.000 OA
ATOM      2  C   UNL     1       5.387   5.062  16.939  0.00  0.00    +0.000 C 
ATOM      3  N   UNL     1       6.299   5.905  16.332  0.00  0.00    +0.000 N 
ATOM      4  H   UNL     1       6.871   5.496  15.601  0.00  0.00    +0.000 HD
ENDROOT
BRANCH   3   5
ATOM      5  N   UNL     1       6.461   7.201  16.704  0.00  0.00    +0.000 NA
ATOM      6  C   UNL     1       7.542   7.468  17.366  0.00  0.00    +0.000 C 
BRANCH   6   7
ATOM      7  C   UNL     1       7.788   8.841  17.849  0.00  0.00    +0.000 C 
ATOM      8  C   UNL     1       8.926   9.177  18.474  0.00  0.00    +0.000 C 
BRANCH   8   9
ATOM      9  C   UNL     1       9.175  10.531  19.003  0.00  0.00    +0.000 A 
ATOM     10  C   UNL     1       9.203  11.619  18.120  0.00  0.00    +0.000 A 
ATOM     11  C   UNL     1       9.462  12.912  18.588  0.00  0.00    +0.000 A 
ATOM     12  C   UNL     1       9.684  13.133  19.945  0.00  0.00    +0.000 A 
ATOM     13  C   UNL     1       9.630  12.067  20.838  0.00  0.00    +0.000 A 
ATOM     14  C   UNL     1       9.367  10.776  20.372  0.00  0.00    +0.000 A 
ENDBRANCH   8   9
ENDBRANCH   6   7
ENDBRANCH   3   5
BRANCH   2  15
ATOM     15  C   UNL     1       4.501   5.676  18.019  0.00  0.00    +0.000 C 
BRANCH  15  16
ATOM     16  C   UNL     1       3.491   4.703  18.569  0.00  0.00    +0.000 A 
ATOM     17  C   UNL     1       3.623   3.805  19.613  0.00  0.00    +0.000 A 
ATOM     18  C   UNL     1       2.458   3.006  19.798  0.00  0.00    +0.000 A 
ATOM     19  C   UNL     1       1.474   3.309  18.885  0.00  0.00    +0.000 A 
ATOM     20  S   UNL     1       1.952   4.558  17.821  0.00  0.00    +0.000 S 
ENDBRANCH  15  16
ENDBRANCH   2  15
TORSDOF 5
ENDMDL
