MODEL 1
REMARK VINA RESULT:      -8.0      0.000      0.000
REMARK  Name = 
REMARK  8 active torsions:
REMARK  status: ('A' for Active; 'I' for Inactive)
REMARK    1  A    between atoms: C_1  and  C_2
REMARK    2  A    between atoms: C_6  and  O_7
REMARK    3  A    between atoms: O_7  and  C_8
REMARK    4  A    between atoms: C_8  and  C_9
REMARK    5  A    between atoms: N_15  and  C_16
REMARK    6  A    between atoms: C_16  and  C_17
REMARK    7  A    between atoms: C_24  and  C_25
REMARK    8  A    between atoms: N_29  and  C_30
REMARK                            x       y       z     vdW  Elec       q    Type
REMARK                         _______ _______ _______ _____ _____    ______ ____
ROOT
ATOM      1  C   UNL     1       2.217  10.685  18.032  0.00  0.00    +0.000 C 
ATOM      2  C   UNL     1       1.140  10.560  19.126  0.00  0.00    +0.000 C 
ATOM      3  C   UNL     1      -0.310  10.501  18.652  0.00  0.00    +0.000 A 
ATOM      4  C   UNL     1      -0.643   9.984  17.393  0.00  0.00    +0.000 A 
ATOM      5  C   UNL     1      -1.967   9.953  16.966  0.00  0.00    +0.000 A 
ATOM      6  C   UNL     1      -2.981  10.455  17.775  0.00  0.00    +0.000 A 
ATOM      7  C   UNL     1      -2.669  10.950  19.043  0.00  0.00    +0.000 A 
ATOM      8  C   UNL     1      -1.341  10.949  19.514  0.00  0.00    +0.000 A 
ATOM      9  N   UNL     1      -1.058  11.281  20.836  0.00  0.00    +0.000 N 
ATOM     10  C   UNL     1      -0.512  10.212  21.689  0.00  0.00    +0.000 C 
ATOM     11  C   UNL     1       1.017  10.001  21.527  0.00  0.00    +0.000 C 
ATOM     12  C   UNL     1       1.576   9.237  22.732  0.00  0.00    +0.000 C 
ATOM     13  N   UNL     1       1.389   9.526  20.160  0.00  0.00    +0.000 N 
ATOM     14  C   UNL     1       1.589   8.225  19.690  0.00  0.00    +0.000 C 
ATOM     15  O   UNL     1       1.786   8.003  18.498  0.00  0.00    +0.000 OA
ATOM     16  N   UNL     1       1.576   7.212  20.613  0.00  0.00    +0.000 N 
ATOM     17  H   UNL     1       0.943   7.334  21.381  0.00  0.00    +0.000 HD
ENDROOT
BRANCH  16  18
ATOM     18  C   UNL     1       1.962   5.869  20.353  0.00  0.00    +0.000 A 
ATOM     19  C   UNL     1       1.132   4.763  20.549  0.00  0.00    +0.000 A 
ATOM     20  C   UNL     1       1.623   3.473  20.345  0.00  0.00    +0.000 A 
ATOM     21  C   UNL     1       2.928   3.325  19.915  0.00  0.00    +0.000 A 
ATOM     22  N   UNL     1       3.746   4.363  19.650  0.00  0.00    +0.000 NA
ATOM     23  C   UNL     1       3.243   5.604  19.873  0.00  0.00    +0.000 A 
ENDBRANCH  16  18
BRANCH   6  24
ATOM     24  O   UNL     1      -4.235  10.302  17.259  0.00  0.00    +0.000 OA
BRANCH  24  25
ATOM     25  C   UNL     1      -5.043  11.478  17.145  0.00  0.00    +0.000 C 
BRANCH  25  26
ATOM     26  C   UNL     1      -6.213  11.409  18.128  0.00  0.00    +0.000 C 
ATOM     27  F   UNL     1      -7.362  11.909  17.620  0.00  0.00    +0.000 F 
ATOM     28  F   UNL     1      -6.461  10.128  18.493  0.00  0.00    +0.000 F 
ATOM     29  F   UNL     1      -5.939  12.100  19.260  0.00  0.00    +0.000 F 
ENDBRANCH  25  26
ENDBRANCH  24  25
ENDBRANCH   6  24
BRANCH   9  30
ATOM     30  C   UNL     1      -1.328  12.619  21.364  0.00  0.00    +0.000 C 
BRANCH  30  31
ATOM     31  C   UNL     1      -2.639  12.708  22.117  0.00  0.00    +0.000 A 
ATOM     32  C   UNL     1      -3.781  13.268  21.525  0.00  0.00    +0.000 A 
ATOM     33  C   UNL     1      -4.959  13.430  22.251  0.00  0.00    +0.000 A 
ATOM     34  C   UNL     1      -5.025  13.003  23.574  0.00  0.00    +0.000 A 
ATOM     35  C   UNL     1      -3.922  12.386  24.160  0.00  0.00    +0.000 A 
ATOM     36  C   UNL     1      -2.737  12.236  23.436  0.00  0.00    +0.000 A 
ENDBRANCH  30  31
ENDBRANCH   9  30
TORSDOF 6
ENDMDL
MODEL 2
REMARK VINA RESULT:      -7.8      0.502      1.047
REMARK  Name = 
REMARK  8 active torsions:
REMARK  status: ('A' for Active; 'I' for Inactive)
REMARK    1  A    between atoms: C_1  and  C_2
REMARK    2  A    between atoms: C_6  and  O_7
REMARK    3  A    between atoms: O_7  and  C_8
REMARK    4  A    between atoms: C_8  and  C_9
REMARK    5  A    between atoms: N_15  and  C_16
REMARK    6  A    between atoms: C_16  and  C_17
REMARK    7  A    between atoms: C_24  and  C_25
REMARK    8  A    between atoms: N_29  and  C_30
REMARK                            x       y       z     vdW  Elec       q    Type
REMARK                         _______ _______ _______ _____ _____    ______ ____
ROOT
ATOM      1  C   UNL     1       2.194  10.778  18.065  0.00  0.00    +0.000 C 
ATOM      2  C   UNL     1       1.115  10.621  19.155  0.00  0.00    +0.000 C 
ATOM      3  C   UNL     1      -0.332  10.544  18.676  0.00  0.00    +0.000 A 
ATOM      4  C   UNL     1      -0.653  10.038  17.409  0.00  0.00    +0.000 A 
ATOM      5  C   UNL     1      -1.975   9.992  16.978  0.00  0.00    +0.000 A 
ATOM      6  C   UNL     1      -2.999  10.466  17.791  0.00  0.00    +0.000 A 
ATOM      7  C   UNL     1      -2.699  10.950  19.065  0.00  0.00    +0.000 A 
ATOM      8  C   UNL     1      -1.372  10.964  19.540  0.00  0.00    +0.000 A 
ATOM      9  N   UNL     1      -1.098  11.284  20.867  0.00  0.00    +0.000 N 
ATOM     10  C   UNL     1      -0.537  10.213  21.708  0.00  0.00    +0.000 C 
ATOM     11  C   UNL     1       0.996  10.029  21.548  0.00  0.00    +0.000 C 
ATOM     12  C   UNL     1       1.564   9.259  22.745  0.00  0.00    +0.000 C 
ATOM     13  N   UNL     1       1.379   9.578  20.176  0.00  0.00    +0.000 N 
ATOM     14  C   UNL     1       1.601   8.286  19.689  0.00  0.00    +0.000 C 
ATOM     15  O   UNL     1       1.805   8.083  18.495  0.00  0.00    +0.000 OA
ATOM     16  N   UNL     1       1.602   7.261  20.599  0.00  0.00    +0.000 N 
ATOM     17  H   UNL     1       0.966   7.363  21.367  0.00  0.00    +0.000 HD
ENDROOT
BRANCH  16  18
ATOM     18  C   UNL     1       2.010   5.929  20.323  0.00  0.00    +0.000 A 
ATOM     19  C   UNL     1       3.283   5.576  19.869  0.00  0.00    +0.000 A 
ATOM     20  C   UNL     1       3.570   4.250  19.545  0.00  0.00    +0.000 A 
ATOM     21  C   UNL     1       2.580   3.300  19.718  0.00  0.00    +0.000 A 
ATOM     22  N   UNL     1       1.359   3.581  20.215  0.00  0.00    +0.000 NA
ATOM     23  C   UNL     1       1.107   4.883  20.504  0.00  0.00    +0.000 A 
ENDBRANCH  16  18
BRANCH   6  24
ATOM     24  O   UNL     1      -4.250  10.300  17.269  0.00  0.00    +0.000 OA
BRANCH  24  25
ATOM     25  C   UNL     1      -5.010  11.483  17.006  0.00  0.00    +0.000 C 
BRANCH  25  26
ATOM     26  C   UNL     1      -6.215  11.554  17.946  0.00  0.00    +0.000 C 
ATOM     27  F   UNL     1      -5.952  12.216  19.095  0.00  0.00    +0.000 F 
ATOM     28  F   UNL     1      -7.256  12.183  17.350  0.00  0.00    +0.000 F 
ATOM     29  F   UNL     1      -6.641  10.313  18.286  0.00  0.00    +0.000 F 
ENDBRANCH  25  26
ENDBRANCH  24  25
ENDBRANCH   6  24
BRANCH   9  30
ATOM     30  C   UNL     1      -1.392  12.610  21.412  0.00  0.00    +0.000 C 
BRANCH  30  31
ATOM     31  C   UNL     1      -2.701  12.667  22.170  0.00  0.00    +0.000 A 
ATOM     32  C   UNL     1      -3.886  13.081  21.545  0.00  0.00    +0.000 A 
ATOM     33  C   UNL     1      -5.070  13.216  22.268  0.00  0.00    +0.000 A 
ATOM     34  C   UNL     1      -5.095  12.907  23.624  0.00  0.00    +0.000 A 
ATOM     35  C   UNL     1      -3.944  12.433  24.249  0.00  0.00    +0.000 A 
ATOM     36  C   UNL     1      -2.755  12.309  23.527  0.00  0.00    +0.000 A 
ENDBRANCH  30  31
ENDBRANCH   9  30
TORSDOF 6
ENDMDL
MODEL 3
REMARK VINA RESULT:      -7.6      1.373      2.373
REMARK  Name = 
REMARK  8 active torsions:
REMARK  status: ('A' for Active; 'I' for Inactive)
REMARK    1  A    between atoms: C_1  and  C_2
REMARK    2  A    between atoms: C_6  and  O_7
REMARK    3  A    between atoms: O_7  and  C_8
REMARK    4  A    between atoms: C_8  and  C_9
REMARK    5  A    between atoms: N_15  and  C_16
REMARK    6  A    between atoms: C_16  and  C_17
REMARK    7  A    between atoms: C_24  and  C_25
REMARK    8  A    between atoms: N_29  and  C_30
REMARK                            x       y       z     vdW  Elec       q    Type
REMARK                         _______ _______ _______ _____ _____    ______ ____
ROOT
ATOM      1  C   UNL     1       2.213  10.648  17.984  0.00  0.00    +0.000 C 
ATOM      2  C   UNL     1       1.155  10.544  19.100  0.00  0.00    +0.000 C 
ATOM      3  C   UNL     1      -0.304  10.500  18.655  0.00  0.00    +0.000 A 
ATOM      4  C   UNL     1      -0.668   9.978  17.406  0.00  0.00    +0.000 A 
ATOM      5  C   UNL     1      -2.000   9.960  17.006  0.00  0.00    +0.000 A 
ATOM      6  C   UNL     1      -2.992  10.480  17.830  0.00  0.00    +0.000 A 
ATOM      7  C   UNL     1      -2.649  10.981  19.088  0.00  0.00    +0.000 A 
ATOM      8  C   UNL     1      -1.313  10.967  19.533  0.00  0.00    +0.000 A 
ATOM      9  N   UNL     1      -0.999  11.305  20.847  0.00  0.00    +0.000 N 
ATOM     10  C   UNL     1      -0.450  10.235  21.697  0.00  0.00    +0.000 C 
ATOM     11  C   UNL     1       1.073  10.005  21.507  0.00  0.00    +0.000 C 
ATOM     12  C   UNL     1       1.646   9.243  22.707  0.00  0.00    +0.000 C 
ATOM     13  N   UNL     1       1.412   9.515  20.136  0.00  0.00    +0.000 N 
ATOM     14  C   UNL     1       1.587   8.208  19.672  0.00  0.00    +0.000 C 
ATOM     15  O   UNL     1       1.757   7.975  18.478  0.00  0.00    +0.000 OA
ATOM     16  N   UNL     1       1.580   7.202  20.603  0.00  0.00    +0.000 N 
ATOM     17  H   UNL     1       0.964   7.338  21.383  0.00  0.00    +0.000 HD
ENDROOT
BRANCH  16  18
ATOM     18  C   UNL     1       1.944   5.853  20.346  0.00  0.00    +0.000 A 
ATOM     19  C   UNL     1       1.088   4.763  20.519  0.00  0.00    +0.000 A 
ATOM     20  C   UNL     1       1.557   3.464  20.321  0.00  0.00    +0.000 A 
ATOM     21  C   UNL     1       2.868   3.291  19.918  0.00  0.00    +0.000 A 
ATOM     22  N   UNL     1       3.712   4.314  19.675  0.00  0.00    +0.000 NA
ATOM     23  C   UNL     1       3.230   5.564  19.893  0.00  0.00    +0.000 A 
ENDBRANCH  16  18
BRANCH   6  24
ATOM     24  O   UNL     1      -4.258  10.339  17.340  0.00  0.00    +0.000 OA
BRANCH  24  25
ATOM     25  C   UNL     1      -5.000  11.537  17.093  0.00  0.00    +0.000 C 
BRANCH  25  26
ATOM     26  C   UNL     1      -6.252  11.571  17.972  0.00  0.00    +0.000 C 
ATOM     27  F   UNL     1      -7.286  12.227  17.399  0.00  0.00    +0.000 F 
ATOM     28  F   UNL     1      -6.679  10.315  18.251  0.00  0.00    +0.000 F 
ATOM     29  F   UNL     1      -5.998  12.177  19.157  0.00  0.00    +0.000 F 
ENDBRANCH  25  26
ENDBRANCH  24  25
ENDBRANCH   6  24
BRANCH   9  30
ATOM     30  C   UNL     1      -1.243  12.650  21.370  0.00  0.00    +0.000 C 
BRANCH  30  31
ATOM     31  C   UNL     1      -0.411  13.715  20.688  0.00  0.00    +0.000 A 
ATOM     32  C   UNL     1      -1.010  14.721  19.914  0.00  0.00    +0.000 A 
ATOM     33  C   UNL     1      -0.236  15.646  19.217  0.00  0.00    +0.000 A 
ATOM     34  C   UNL     1       1.152  15.600  19.308  0.00  0.00    +0.000 A 
ATOM     35  C   UNL     1       1.763  14.650  20.122  0.00  0.00    +0.000 A 
ATOM     36  C   UNL     1       0.987  13.715  20.811  0.00  0.00    +0.000 A 
ENDBRANCH  30  31
ENDBRANCH   9  30
TORSDOF 6
ENDMDL
MODEL 4
REMARK VINA RESULT:      -7.6      0.712      1.370
REMARK  Name = 
REMARK  8 active torsions:
REMARK  status: ('A' for Active; 'I' for Inactive)
REMARK    1  A    between atoms: C_1  and  C_2
REMARK    2  A    between atoms: C_6  and  O_7
REMARK    3  A    between atoms: O_7  and  C_8
REMARK    4  A    between atoms: C_8  and  C_9
REMARK    5  A    between atoms: N_15  and  C_16
REMARK    6  A    between atoms: C_16  and  C_17
REMARK    7  A    between atoms: C_24  and  C_25
REMARK    8  A    between atoms: N_29  and  C_30
REMARK                            x       y       z     vdW  Elec       q    Type
REMARK                         _______ _______ _______ _____ _____    ______ ____
ROOT
ATOM      1  C   UNL     1       2.195  10.734  18.010  0.00  0.00    +0.000 C 
ATOM      2  C   UNL     1       1.132  10.611  19.118  0.00  0.00    +0.000 C 
ATOM      3  C   UNL     1      -0.324  10.555  18.664  0.00  0.00    +0.000 A 
ATOM      4  C   UNL     1      -0.675  10.038  17.409  0.00  0.00    +0.000 A 
ATOM      5  C   UNL     1      -2.004  10.009  17.000  0.00  0.00    +0.000 A 
ATOM      6  C   UNL     1      -3.007  10.513  17.822  0.00  0.00    +0.000 A 
ATOM      7  C   UNL     1      -2.677  11.009  19.085  0.00  0.00    +0.000 A 
ATOM      8  C   UNL     1      -1.343  11.006  19.539  0.00  0.00    +0.000 A 
ATOM      9  N   UNL     1      -1.041  11.338  20.857  0.00  0.00    +0.000 N 
ATOM     10  C   UNL     1      -0.486  10.268  21.704  0.00  0.00    +0.000 C 
ATOM     11  C   UNL     1       1.040  10.055  21.521  0.00  0.00    +0.000 C 
ATOM     12  C   UNL     1       1.614   9.290  22.719  0.00  0.00    +0.000 C 
ATOM     13  N   UNL     1       1.393   9.578  20.150  0.00  0.00    +0.000 N 
ATOM     14  C   UNL     1       1.584   8.276  19.678  0.00  0.00    +0.000 C 
ATOM     15  O   UNL     1       1.764   8.053  18.484  0.00  0.00    +0.000 OA
ATOM     16  N   UNL     1       1.581   7.263  20.602  0.00  0.00    +0.000 N 
ATOM     17  H   UNL     1       0.959   7.388  21.378  0.00  0.00    +0.000 HD
ENDROOT
BRANCH  16  18
ATOM     18  C   UNL     1       1.961   5.920  20.338  0.00  0.00    +0.000 A 
ATOM     19  C   UNL     1       3.233   5.534  19.911  0.00  0.00    +0.000 A 
ATOM     20  C   UNL     1       3.492   4.199  19.597  0.00  0.00    +0.000 A 
ATOM     21  C   UNL     1       2.476   3.276  19.751  0.00  0.00    +0.000 A 
ATOM     22  N   UNL     1       1.252   3.590  20.222  0.00  0.00    +0.000 NA
ATOM     23  C   UNL     1       1.027   4.899  20.503  0.00  0.00    +0.000 A 
ENDBRANCH  16  18
BRANCH   6  24
ATOM     24  O   UNL     1      -4.268  10.363  17.323  0.00  0.00    +0.000 OA
BRANCH  24  25
ATOM     25  C   UNL     1      -5.356  10.746  18.169  0.00  0.00    +0.000 C 
BRANCH  25  26
ATOM     26  C   UNL     1      -5.915  12.099  17.727  0.00  0.00    +0.000 C 
ATOM     27  F   UNL     1      -7.239  12.064  17.456  0.00  0.00    +0.000 F 
ATOM     28  F   UNL     1      -5.729  13.035  18.689  0.00  0.00    +0.000 F 
ATOM     29  F   UNL     1      -5.288  12.544  16.612  0.00  0.00    +0.000 F 
ENDBRANCH  25  26
ENDBRANCH  24  25
ENDBRANCH   6  24
BRANCH   9  30
ATOM     30  C   UNL     1      -1.302  12.677  21.387  0.00  0.00    +0.000 C 
BRANCH  30  31
ATOM     31  C   UNL     1      -2.612  12.774  22.141  0.00  0.00    +0.000 A 
ATOM     32  C   UNL     1      -2.705  12.398  23.489  0.00  0.00    +0.000 A 
ATOM     33  C   UNL     1      -3.930  12.405  24.154  0.00  0.00    +0.000 A 
ATOM     34  C   UNL     1      -5.079  12.822  23.488  0.00  0.00    +0.000 A 
ATOM     35  C   UNL     1      -4.996  13.261  22.169  0.00  0.00    +0.000 A 
ATOM     36  C   UNL     1      -3.771  13.241  21.500  0.00  0.00    +0.000 A 
ENDBRANCH  30  31
ENDBRANCH   9  30
TORSDOF 6
ENDMDL
MODEL 5
REMARK VINA RESULT:      -7.4      4.681      9.596
REMARK  Name = 
REMARK  8 active torsions:
REMARK  status: ('A' for Active; 'I' for Inactive)
REMARK    1  A    between atoms: C_1  and  C_2
REMARK    2  A    between atoms: C_6  and  O_7
REMARK    3  A    between atoms: O_7  and  C_8
REMARK    4  A    between atoms: C_8  and  C_9
REMARK    5  A    between atoms: N_15  and  C_16
REMARK    6  A    between atoms: C_16  and  C_17
REMARK    7  A    between atoms: C_24  and  C_25
REMARK    8  A    between atoms: N_29  and  C_30
REMARK                            x       y       z     vdW  Elec       q    Type
REMARK                         _______ _______ _______ _____ _____    ______ ____
ROOT
ATOM      1  C   UNL     1       1.633   8.682  21.993  0.00  0.00    +0.000 C 
ATOM      2  C   UNL     1       1.987   8.433  20.513  0.00  0.00    +0.000 C 
ATOM      3  C   UNL     1       1.849   6.999  20.010  0.00  0.00    +0.000 A 
ATOM      4  C   UNL     1       0.926   6.113  20.583  0.00  0.00    +0.000 A 
ATOM      5  C   UNL     1       0.823   4.804  20.126  0.00  0.00    +0.000 A 
ATOM      6  C   UNL     1       1.650   4.344  19.106  0.00  0.00    +0.000 A 
ATOM      7  C   UNL     1       2.557   5.221  18.508  0.00  0.00    +0.000 A 
ATOM      8  C   UNL     1       2.646   6.565  18.923  0.00  0.00    +0.000 A 
ATOM      9  N   UNL     1       3.423   7.476  18.213  0.00  0.00    +0.000 N 
ATOM     10  C   UNL     1       2.712   8.572  17.535  0.00  0.00    +0.000 C 
ATOM     11  C   UNL     1       2.361   9.762  18.467  0.00  0.00    +0.000 C 
ATOM     12  C   UNL     1       2.062  11.015  17.637  0.00  0.00    +0.000 C 
ATOM     13  N   UNL     1       1.394   9.383  19.541  0.00  0.00    +0.000 N 
ATOM     14  C   UNL     1       0.001   9.501  19.571  0.00  0.00    +0.000 C 
ATOM     15  O   UNL     1      -0.656   9.035  20.498  0.00  0.00    +0.000 OA
ATOM     16  N   UNL     1      -0.598  10.172  18.537  0.00  0.00    +0.000 N 
ATOM     17  H   UNL     1      -0.162  10.064  17.641  0.00  0.00    +0.000 HD
ENDROOT
BRANCH  16  18
ATOM     18  C   UNL     1      -1.963  10.564  18.504  0.00  0.00    +0.000 A 
ATOM     19  C   UNL     1      -2.951   9.904  17.771  0.00  0.00    +0.000 A 
ATOM     20  C   UNL     1      -4.251  10.409  17.731  0.00  0.00    +0.000 A 
ATOM     21  C   UNL     1      -4.538  11.549  18.459  0.00  0.00    +0.000 A 
ATOM     22  N   UNL     1      -3.634  12.184  19.232  0.00  0.00    +0.000 NA
ATOM     23  C   UNL     1      -2.375  11.676  19.236  0.00  0.00    +0.000 A 
ENDBRANCH  16  18
BRANCH   6  24
ATOM     24  O   UNL     1       1.397   3.061  18.716  0.00  0.00    +0.000 OA
BRANCH  24  25
ATOM     25  C   UNL     1       2.168   2.026  19.332  0.00  0.00    +0.000 C 
BRANCH  25  26
ATOM     26  C   UNL     1       3.510   1.872  18.614  0.00  0.00    +0.000 C 
ATOM     27  F   UNL     1       3.922   0.587  18.529  0.00  0.00    +0.000 F 
ATOM     28  F   UNL     1       3.439   2.355  17.350  0.00  0.00    +0.000 F 
ATOM     29  F   UNL     1       4.484   2.566  19.251  0.00  0.00    +0.000 F 
ENDBRANCH  25  26
ENDBRANCH  24  25
ENDBRANCH   6  24
BRANCH   9  30
ATOM     30  C   UNL     1       4.876   7.327  18.112  0.00  0.00    +0.000 C 
BRANCH  30  31
ATOM     31  C   UNL     1       5.297   6.224  17.164  0.00  0.00    +0.000 A 
ATOM     32  C   UNL     1       5.927   5.062  17.634  0.00  0.00    +0.000 A 
ATOM     33  C   UNL     1       6.392   4.090  16.751  0.00  0.00    +0.000 A 
ATOM     34  C   UNL     1       6.206   4.249  15.381  0.00  0.00    +0.000 A 
ATOM     35  C   UNL     1       5.526   5.365  14.898  0.00  0.00    +0.000 A 
ATOM     36  C   UNL     1       5.071   6.345  15.783  0.00  0.00    +0.000 A 
ENDBRANCH  30  31
ENDBRANCH   9  30
TORSDOF 6
ENDMDL
MODEL 6
REMARK VINA RESULT:      -7.4      4.695      9.555
REMARK  Name = 
REMARK  8 active torsions:
REMARK  status: ('A' for Active; 'I' for Inactive)
REMARK    1  A    between atoms: C_1  and  C_2
REMARK    2  A    between atoms: C_6  and  O_7
REMARK    3  A    between atoms: O_7  and  C_8
REMARK    4  A    between atoms: C_8  and  C_9
REMARK    5  A    between atoms: N_15  and  C_16
REMARK    6  A    between atoms: C_16  and  C_17
REMARK    7  A    between atoms: C_24  and  C_25
REMARK    8  A    between atoms: N_29  and  C_30
REMARK                            x       y       z     vdW  Elec       q    Type
REMARK                         _______ _______ _______ _____ _____    ______ ____
ROOT
ATOM      1  C   UNL     1       1.626   8.673  22.002  0.00  0.00    +0.000 C 
ATOM      2  C   UNL     1       1.987   8.423  20.525  0.00  0.00    +0.000 C 
ATOM      3  C   UNL     1       1.849   6.988  20.023  0.00  0.00    +0.000 A 
ATOM      4  C   UNL     1       0.922   6.104  20.592  0.00  0.00    +0.000 A 
ATOM      5  C   UNL     1       0.819   4.794  20.136  0.00  0.00    +0.000 A 
ATOM      6  C   UNL     1       1.650   4.332  19.121  0.00  0.00    +0.000 A 
ATOM      7  C   UNL     1       2.561   5.207  18.526  0.00  0.00    +0.000 A 
ATOM      8  C   UNL     1       2.651   6.551  18.940  0.00  0.00    +0.000 A 
ATOM      9  N   UNL     1       3.433   7.460  18.233  0.00  0.00    +0.000 N 
ATOM     10  C   UNL     1       2.727   8.557  17.549  0.00  0.00    +0.000 C 
ATOM     11  C   UNL     1       2.373   9.749  18.479  0.00  0.00    +0.000 C 
ATOM     12  C   UNL     1       2.080  11.000  17.645  0.00  0.00    +0.000 C 
ATOM     13  N   UNL     1       1.400   9.372  19.549  0.00  0.00    +0.000 N 
ATOM     14  C   UNL     1       0.007   9.492  19.572  0.00  0.00    +0.000 C 
ATOM     15  O   UNL     1      -0.655   9.028  20.496  0.00  0.00    +0.000 OA
ATOM     16  N   UNL     1      -0.586  10.163  18.534  0.00  0.00    +0.000 N 
ATOM     17  H   UNL     1      -0.145  10.053  17.640  0.00  0.00    +0.000 HD
ENDROOT
BRANCH  16  18
ATOM     18  C   UNL     1      -1.950  10.557  18.493  0.00  0.00    +0.000 A 
ATOM     19  C   UNL     1      -2.938   9.889  17.766  0.00  0.00    +0.000 A 
ATOM     20  C   UNL     1      -4.237  10.396  17.719  0.00  0.00    +0.000 A 
ATOM     21  C   UNL     1      -4.523  11.546  18.431  0.00  0.00    +0.000 A 
ATOM     22  N   UNL     1      -3.619  12.188  19.199  0.00  0.00    +0.000 NA
ATOM     23  C   UNL     1      -2.361  11.678  19.211  0.00  0.00    +0.000 A 
ENDBRANCH  16  18
BRANCH   6  24
ATOM     24  O   UNL     1       1.397   3.049  18.730  0.00  0.00    +0.000 OA
BRANCH  24  25
ATOM     25  C   UNL     1       2.182   2.016  19.333  0.00  0.00    +0.000 C 
BRANCH  25  26
ATOM     26  C   UNL     1       3.518   1.875  18.600  0.00  0.00    +0.000 C 
ATOM     27  F   UNL     1       3.478   2.336  17.329  0.00  0.00    +0.000 F 
ATOM     28  F   UNL     1       4.495   2.559  19.243  0.00  0.00    +0.000 F 
ATOM     29  F   UNL     1       3.908   0.579  18.546  0.00  0.00    +0.000 F 
ENDBRANCH  25  26
ENDBRANCH  24  25
ENDBRANCH   6  24
BRANCH   9  30
ATOM     30  C   UNL     1       4.886   7.309  18.138  0.00  0.00    +0.000 C 
BRANCH  30  31
ATOM     31  C   UNL     1       5.312   6.254  17.139  0.00  0.00    +0.000 A 
ATOM     32  C   UNL     1       5.087   6.421  15.765  0.00  0.00    +0.000 A 
ATOM     33  C   UNL     1       5.399   5.410  14.858  0.00  0.00    +0.000 A 
ATOM     34  C   UNL     1       5.974   4.226  15.309  0.00  0.00    +0.000 A 
ATOM     35  C   UNL     1       6.265   4.066  16.662  0.00  0.00    +0.000 A 
ATOM     36  C   UNL     1       5.940   5.075  17.572  0.00  0.00    +0.000 A 
ENDBRANCH  30  31
ENDBRANCH   9  30
TORSDOF 6
ENDMDL
MODEL 7
REMARK VINA RESULT:      -7.4      1.448      2.570
REMARK  Name = 
REMARK  8 active torsions:
REMARK  status: ('A' for Active; 'I' for Inactive)
REMARK    1  A    between atoms: C_1  and  C_2
REMARK    2  A    between atoms: C_6  and  O_7
REMARK    3  A    between atoms: O_7  and  C_8
REMARK    4  A    between atoms: C_8  and  C_9
REMARK    5  A    between atoms: N_15  and  C_16
REMARK    6  A    between atoms: C_16  and  C_17
REMARK    7  A    between atoms: C_24  and  C_25
REMARK    8  A    between atoms: N_29  and  C_30
REMARK                            x       y       z     vdW  Elec       q    Type
REMARK                         _______ _______ _______ _____ _____    ______ ____
ROOT
ATOM      1  C   UNL     1       2.220  10.700  18.004  0.00  0.00    +0.000 C 
ATOM      2  C   UNL     1       1.161  10.574  19.116  0.00  0.00    +0.000 C 
ATOM      3  C   UNL     1      -0.296  10.517  18.666  0.00  0.00    +0.000 A 
ATOM      4  C   UNL     1      -0.651  10.002  17.412  0.00  0.00    +0.000 A 
ATOM      5  C   UNL     1      -1.981   9.973  17.007  0.00  0.00    +0.000 A 
ATOM      6  C   UNL     1      -2.982  10.475  17.834  0.00  0.00    +0.000 A 
ATOM      7  C   UNL     1      -2.648  10.968  19.096  0.00  0.00    +0.000 A 
ATOM      8  C   UNL     1      -1.313  10.965  19.546  0.00  0.00    +0.000 A 
ATOM      9  N   UNL     1      -1.007  11.295  20.863  0.00  0.00    +0.000 N 
ATOM     10  C   UNL     1      -0.448  10.224  21.706  0.00  0.00    +0.000 C 
ATOM     11  C   UNL     1       1.078  10.012  21.518  0.00  0.00    +0.000 C 
ATOM     12  C   UNL     1       1.656   9.246  22.713  0.00  0.00    +0.000 C 
ATOM     13  N   UNL     1       1.426   9.539  20.144  0.00  0.00    +0.000 N 
ATOM     14  C   UNL     1       1.617   8.238  19.669  0.00  0.00    +0.000 C 
ATOM     15  O   UNL     1       1.794   8.018  18.474  0.00  0.00    +0.000 OA
ATOM     16  N   UNL     1       1.619   7.224  20.591  0.00  0.00    +0.000 N 
ATOM     17  H   UNL     1       0.999   7.345  21.370  0.00  0.00    +0.000 HD
ENDROOT
BRANCH  16  18
ATOM     18  C   UNL     1       1.999   5.881  20.323  0.00  0.00    +0.000 A 
ATOM     19  C   UNL     1       3.266   5.498  19.878  0.00  0.00    +0.000 A 
ATOM     20  C   UNL     1       3.525   4.165  19.561  0.00  0.00    +0.000 A 
ATOM     21  C   UNL     1       2.514   3.238  19.731  0.00  0.00    +0.000 A 
ATOM     22  N   UNL     1       1.295   3.548  20.219  0.00  0.00    +0.000 NA
ATOM     23  C   UNL     1       1.071   4.857  20.502  0.00  0.00    +0.000 A 
ENDBRANCH  16  18
BRANCH   6  24
ATOM     24  O   UNL     1      -4.245  10.324  17.338  0.00  0.00    +0.000 OA
BRANCH  24  25
ATOM     25  C   UNL     1      -4.978  11.517  17.043  0.00  0.00    +0.000 C 
BRANCH  25  26
ATOM     26  C   UNL     1      -6.222  11.602  17.929  0.00  0.00    +0.000 C 
ATOM     27  F   UNL     1      -5.999  12.247  19.097  0.00  0.00    +0.000 F 
ATOM     28  F   UNL     1      -7.222  12.259  17.294  0.00  0.00    +0.000 F 
ATOM     29  F   UNL     1      -6.688  10.367  18.234  0.00  0.00    +0.000 F 
ENDBRANCH  25  26
ENDBRANCH  24  25
ENDBRANCH   6  24
BRANCH   9  30
ATOM     30  C   UNL     1      -1.268  12.632  21.398  0.00  0.00    +0.000 C 
BRANCH  30  31
ATOM     31  C   UNL     1      -0.455  13.715  20.719  0.00  0.00    +0.000 A 
ATOM     32  C   UNL     1      -1.072  14.712  19.949  0.00  0.00    +0.000 A 
ATOM     33  C   UNL     1      -0.316  15.653  19.254  0.00  0.00    +0.000 A 
ATOM     34  C   UNL     1       1.073  15.632  19.344  0.00  0.00    +0.000 A 
ATOM     35  C   UNL     1       1.702  14.690  20.154  0.00  0.00    +0.000 A 
ATOM     36  C   UNL     1       0.943  13.739  20.840  0.00  0.00    +0.000 A 
ENDBRANCH  30  31
ENDBRANCH   9  30
TORSDOF 6
ENDMDL
MODEL 8
REMARK VINA RESULT:      -7.2      4.701      9.575
REMARK  Name = 
REMARK  8 active torsions:
REMARK  status: ('A' for Active; 'I' for Inactive)
REMARK    1  A    between atoms: C_1  and  C_2
REMARK    2  A    between atoms: C_6  and  O_7
REMARK    3  A    between atoms: O_7  and  C_8
REMARK    4  A    between atoms: C_8  and  C_9
REMARK    5  A    between atoms: N_15  and  C_16
REMARK    6  A    between atoms: C_16  and  C_17
REMARK    7  A    between atoms: C_24  and  C_25
REMARK    8  A    between atoms: N_29  and  C_30
REMARK                            x       y       z     vdW  Elec       q    Type
REMARK                         _______ _______ _______ _____ _____    ______ ____
ROOT
ATOM      1  C   UNL     1       1.627   8.742  21.997  0.00  0.00    +0.000 C 
ATOM      2  C   UNL     1       1.984   8.477  20.521  0.00  0.00    +0.000 C 
ATOM      3  C   UNL     1       1.834   7.040  20.031  0.00  0.00    +0.000 A 
ATOM      4  C   UNL     1       0.900   6.168  20.608  0.00  0.00    +0.000 A 
ATOM      5  C   UNL     1       0.787   4.855  20.163  0.00  0.00    +0.000 A 
ATOM      6  C   UNL     1       1.613   4.379  19.151  0.00  0.00    +0.000 A 
ATOM      7  C   UNL     1       2.531   5.241  18.548  0.00  0.00    +0.000 A 
ATOM      8  C   UNL     1       2.631   6.588  18.951  0.00  0.00    +0.000 A 
ATOM      9  N   UNL     1       3.420   7.485  18.236  0.00  0.00    +0.000 N 
ATOM     10  C   UNL     1       2.721   8.582  17.544  0.00  0.00    +0.000 C 
ATOM     11  C   UNL     1       2.378   9.783  18.464  0.00  0.00    +0.000 C 
ATOM     12  C   UNL     1       2.094  11.031  17.621  0.00  0.00    +0.000 C 
ATOM     13  N   UNL     1       1.403   9.423  19.538  0.00  0.00    +0.000 N 
ATOM     14  C   UNL     1       0.012   9.554  19.562  0.00  0.00    +0.000 C 
ATOM     15  O   UNL     1      -0.654   9.103  20.490  0.00  0.00    +0.000 OA
ATOM     16  N   UNL     1      -0.577  10.221  18.519  0.00  0.00    +0.000 N 
ATOM     17  H   UNL     1      -0.139  10.101  17.625  0.00  0.00    +0.000 HD
ENDROOT
BRANCH  16  18
ATOM     18  C   UNL     1      -1.938  10.626  18.477  0.00  0.00    +0.000 A 
ATOM     19  C   UNL     1      -2.440  11.759  19.121  0.00  0.00    +0.000 A 
ATOM     20  C   UNL     1      -3.807  12.035  19.092  0.00  0.00    +0.000 A 
ATOM     21  C   UNL     1      -4.637  11.183  18.388  0.00  0.00    +0.000 A 
ATOM     22  N   UNL     1      -4.191  10.114  17.697  0.00  0.00    +0.000 NA
ATOM     23  C   UNL     1      -2.858   9.865  17.758  0.00  0.00    +0.000 A 
ENDBRANCH  16  18
BRANCH   6  24
ATOM     24  O   UNL     1       1.350   3.094  18.771  0.00  0.00    +0.000 OA
BRANCH  24  25
ATOM     25  C   UNL     1       2.139   2.061  19.367  0.00  0.00    +0.000 C 
BRANCH  25  26
ATOM     26  C   UNL     1       3.465   1.914  18.617  0.00  0.00    +0.000 C 
ATOM     27  F   UNL     1       3.417   2.394  17.355  0.00  0.00    +0.000 F 
ATOM     28  F   UNL     1       4.458   2.574  19.260  0.00  0.00    +0.000 F 
ATOM     29  F   UNL     1       3.837   0.613  18.539  0.00  0.00    +0.000 F 
ENDBRANCH  25  26
ENDBRANCH  24  25
ENDBRANCH   6  24
BRANCH   9  30
ATOM     30  C   UNL     1       4.871   7.321  18.141  0.00  0.00    +0.000 C 
BRANCH  30  31
ATOM     31  C   UNL     1       5.287   6.232  17.175  0.00  0.00    +0.000 A 
ATOM     32  C   UNL     1       5.903   5.056  17.626  0.00  0.00    +0.000 A 
ATOM     33  C   UNL     1       6.364   4.097  16.727  0.00  0.00    +0.000 A 
ATOM     34  C   UNL     1       6.185   4.283  15.360  0.00  0.00    +0.000 A 
ATOM     35  C   UNL     1       5.518   5.413  14.894  0.00  0.00    +0.000 A 
ATOM     36  C   UNL     1       5.068   6.381  15.795  0.00  0.00    +0.000 A 
ENDBRANCH  30  31
ENDBRANCH   9  30
TORSDOF 6
ENDMDL
MODEL 9
REMARK VINA RESULT:      -7.1      0.824      1.155
REMARK  Name = 
REMARK  8 active torsions:
REMARK  status: ('A' for Active; 'I' for Inactive)
REMARK    1  A    between atoms: C_1  and  C_2
REMARK    2  A    between atoms: C_6  and  O_7
REMARK    3  A    between atoms: O_7  and  C_8
REMARK    4  A    between atoms: C_8  and  C_9
REMARK    5  A    between atoms: N_15  and  C_16
REMARK    6  A    between atoms: C_16  and  C_17
REMARK    7  A    between atoms: C_24  and  C_25
REMARK    8  A    between atoms: N_29  and  C_30
REMARK                            x       y       z     vdW  Elec       q    Type
REMARK                         _______ _______ _______ _____ _____    ______ ____
ROOT
ATOM      1  C   UNL     1       1.931  11.491  18.252  0.00  0.00    +0.000 C 
ATOM      2  C   UNL     1       0.858  11.223  19.324  0.00  0.00    +0.000 C 
ATOM      3  C   UNL     1      -0.587  11.151  18.839  0.00  0.00    +0.000 A 
ATOM      4  C   UNL     1      -0.898  10.740  17.535  0.00  0.00    +0.000 A 
ATOM      5  C   UNL     1      -2.219  10.697  17.101  0.00  0.00    +0.000 A 
ATOM      6  C   UNL     1      -3.253  11.081  17.947  0.00  0.00    +0.000 A 
ATOM      7  C   UNL     1      -2.963  11.469  19.257  0.00  0.00    +0.000 A 
ATOM      8  C   UNL     1      -1.637  11.477  19.733  0.00  0.00    +0.000 A 
ATOM      9  N   UNL     1      -1.369  11.696  21.081  0.00  0.00    +0.000 N 
ATOM     10  C   UNL     1      -0.783  10.575  21.835  0.00  0.00    +0.000 C 
ATOM     11  C   UNL     1       0.754  10.440  21.663  0.00  0.00    +0.000 C 
ATOM     12  C   UNL     1       1.340   9.591  22.795  0.00  0.00    +0.000 C 
ATOM     13  N   UNL     1       1.146  10.108  20.259  0.00  0.00    +0.000 N 
ATOM     14  C   UNL     1       1.398   8.865  19.672  0.00  0.00    +0.000 C 
ATOM     15  O   UNL     1       1.605   8.762  18.466  0.00  0.00    +0.000 OA
ATOM     16  N   UNL     1       1.424   7.771  20.498  0.00  0.00    +0.000 N 
ATOM     17  H   UNL     1       0.786   7.797  21.271  0.00  0.00    +0.000 HD
ENDROOT
BRANCH  16  18
ATOM     18  C   UNL     1       1.863   6.474  20.117  0.00  0.00    +0.000 A 
ATOM     19  C   UNL     1       1.374   5.288  20.668  0.00  0.00    +0.000 A 
ATOM     20  C   UNL     1       1.923   4.062  20.292  0.00  0.00    +0.000 A 
ATOM     21  C   UNL     1       2.928   4.052  19.343  0.00  0.00    +0.000 A 
ATOM     22  N   UNL     1       3.387   5.165  18.736  0.00  0.00    +0.000 NA
ATOM     23  C   UNL     1       2.843   6.343  19.136  0.00  0.00    +0.000 A 
ENDBRANCH  16  18
BRANCH   6  24
ATOM     24  O   UNL     1      -4.500  10.928  17.413  0.00  0.00    +0.000 OA
BRANCH  24  25
ATOM     25  C   UNL     1      -5.584  10.738  18.326  0.00  0.00    +0.000 C 
BRANCH  25  26
ATOM     26  C   UNL     1      -6.518  11.949  18.294  0.00  0.00    +0.000 C 
ATOM     27  F   UNL     1      -7.021  12.199  17.064  0.00  0.00    +0.000 F 
ATOM     28  F   UNL     1      -7.570  11.769  19.128  0.00  0.00    +0.000 F 
ATOM     29  F   UNL     1      -5.875  13.071  18.700  0.00  0.00    +0.000 F 
ENDBRANCH  25  26
ENDBRANCH  24  25
ENDBRANCH   6  24
BRANCH   9  30
ATOM     30  C   UNL     1      -1.693  12.968  21.729  0.00  0.00    +0.000 C 
BRANCH  30  31
ATOM     31  C   UNL     1      -3.018  12.943  22.461  0.00  0.00    +0.000 A 
ATOM     32  C   UNL     1      -3.093  12.596  23.819  0.00  0.00    +0.000 A 
ATOM     33  C   UNL     1      -4.323  12.488  24.465  0.00  0.00    +0.000 A 
ATOM     34  C   UNL     1      -5.499  12.759  23.772  0.00  0.00    +0.000 A 
ATOM     35  C   UNL     1      -5.442  13.167  22.442  0.00  0.00    +0.000 A 
ATOM     36  C   UNL     1      -4.210  13.262  21.790  0.00  0.00    +0.000 A 
ENDBRANCH  30  31
ENDBRANCH   9  30
TORSDOF 6
ENDMDL
