MODEL 1
REMARK VINA RESULT:      -9.0      0.000      0.000
REMARK  Name = 
REMARK  9 active torsions:
REMARK  status: ('A' for Active; 'I' for Inactive)
REMARK    1  A    between atoms: C_1  and  O_2
REMARK    2  A    between atoms: O_2  and  C_3
REMARK    3  A    between atoms: C_6  and  C_7
REMARK    4  A    between atoms: C_7  and  C_8
REMARK    5  A    between atoms: C_8  and  O_10
REMARK    6  A    between atoms: C_12  and  C_13
REMARK    7  A    between atoms: C_22  and  O_24
REMARK    8  A    between atoms: O_24  and  C_25
REMARK    9  A    between atoms: C_25  and  C_26
REMARK                            x       y       z     vdW  Elec       q    Type
REMARK                         _______ _______ _______ _____ _____    ______ ____
ROOT
ATOM      1  C   UNL     1       3.849   3.572  17.363  0.00  0.00    +0.000 A 
ATOM      2  C   UNL     1       3.872   2.165  17.577  0.00  0.00    +0.000 A 
ATOM      3  C   UNL     1       2.913   1.489  18.337  0.00  0.00    +0.000 A 
ATOM      4  C   UNL     1       2.033   2.233  19.088  0.00  0.00    +0.000 A 
ATOM      5  F   UNL     1       1.242   1.623  19.980  0.00  0.00    +0.000 F 
ATOM      6  C   UNL     1       2.057   3.618  18.994  0.00  0.00    +0.000 A 
ATOM      7  C   UNL     1       2.771   4.275  17.960  0.00  0.00    +0.000 A 
ATOM      8  C   UNL     1       2.281   5.714  17.704  0.00  0.00    +0.000 C 
ATOM      9  N   UNL     1       2.252   6.514  18.937  0.00  0.00    +0.000 N 
ATOM     10  C   UNL     1       2.061   7.888  19.037  0.00  0.00    +0.000 C 
ATOM     11  O   UNL     1       2.257   8.494  20.093  0.00  0.00    +0.000 OA
ATOM     12  C   UNL     1       2.415   5.763  20.179  0.00  0.00    +0.000 C 
ATOM     13  C   UNL     1       1.583   4.466  20.153  0.00  0.00    +0.000 C 
ENDROOT
BRANCH   1  19
ATOM     14  C   UNL     1       5.941   5.112  17.430  0.00  0.00    +0.000 A 
ATOM     15  C   UNL     1       6.981   5.764  16.742  0.00  0.00    +0.000 A 
ATOM     16  C   UNL     1       7.190   5.555  15.387  0.00  0.00    +0.000 A 
ATOM     17  C   UNL     1       6.354   4.698  14.683  0.00  0.00    +0.000 A 
ATOM     18  C   UNL     1       5.275   4.089  15.353  0.00  0.00    +0.000 A 
ATOM     19  C   UNL     1       5.060   4.225  16.745  0.00  0.00    +0.000 A 
BRANCH  14  21
ATOM     20  C   UNL     1       6.951   5.560  19.547  0.00  0.00    +0.000 C 
ATOM     21  O   UNL     1       5.772   5.297  18.784  0.00  0.00    +0.000 OA
ENDBRANCH  14  21
BRANCH  17  22
ATOM     22  C   UNL     1       6.636   4.406  13.227  0.00  0.00    +0.000 C 
BRANCH  22  23
ATOM     23  C   UNL     1       5.687   3.417  12.580  0.00  0.00    +0.000 C 
ATOM     24  O   UNL     1       4.522   3.687  12.323  0.00  0.00    +0.000 OA
BRANCH  23  25
ATOM     25  O   UNL     1       6.225   2.226  12.229  0.00  0.00    +0.000 OA
ATOM     26  H   UNL     1       5.588   1.584  11.858  0.00  0.00    +0.000 HD
ENDBRANCH  23  25
ENDBRANCH  22  23
ENDBRANCH  17  22
ENDBRANCH   1  19
BRANCH  10  27
ATOM     27  O   UNL     1       1.637   8.515  17.906  0.00  0.00    +0.000 OA
BRANCH  27  28
ATOM     28  C   UNL     1       1.291   9.913  18.093  0.00  0.00    +0.000 C 
BRANCH  28  29
ATOM     29  C   UNL     1      -0.182  10.290  18.198  0.00  0.00    +0.000 A 
ATOM     30  C   UNL     1      -1.194   9.681  17.442  0.00  0.00    +0.000 A 
ATOM     31  C   UNL     1      -2.521  10.140  17.509  0.00  0.00    +0.000 A 
ATOM     32  C   UNL     1      -2.866  11.218  18.324  0.00  0.00    +0.000 A 
ATOM     33  C   UNL     1      -1.867  11.827  19.075  0.00  0.00    +0.000 A 
ATOM     34  F   UNL     1      -2.182  12.876  19.837  0.00  0.00    +0.000 F 
ATOM     35  C   UNL     1      -0.544  11.378  19.005  0.00  0.00    +0.000 A 
ATOM     36  F   UNL     1       0.398  12.029  19.713  0.00  0.00    +0.000 F 
ENDBRANCH  28  29
ENDBRANCH  27  28
ENDBRANCH  10  27
TORSDOF 8
ENDMDL
MODEL 2
REMARK VINA RESULT:      -8.9      0.936      1.290
REMARK  Name = 
REMARK  9 active torsions:
REMARK  status: ('A' for Active; 'I' for Inactive)
REMARK    1  A    between atoms: C_1  and  O_2
REMARK    2  A    between atoms: O_2  and  C_3
REMARK    3  A    between atoms: C_6  and  C_7
REMARK    4  A    between atoms: C_7  and  C_8
REMARK    5  A    between atoms: C_8  and  O_10
REMARK    6  A    between atoms: C_12  and  C_13
REMARK    7  A    between atoms: C_22  and  O_24
REMARK    8  A    between atoms: O_24  and  C_25
REMARK    9  A    between atoms: C_25  and  C_26
REMARK                            x       y       z     vdW  Elec       q    Type
REMARK                         _______ _______ _______ _____ _____    ______ ____
ROOT
ATOM      1  C   UNL     1       3.903   3.528  17.348  0.00  0.00    +0.000 A 
ATOM      2  C   UNL     1       3.954   2.121  17.560  0.00  0.00    +0.000 A 
ATOM      3  C   UNL     1       3.023   1.428  18.339  0.00  0.00    +0.000 A 
ATOM      4  C   UNL     1       2.147   2.156  19.110  0.00  0.00    +0.000 A 
ATOM      5  F   UNL     1       1.385   1.532  20.017  0.00  0.00    +0.000 F 
ATOM      6  C   UNL     1       2.145   3.541  19.017  0.00  0.00    +0.000 A 
ATOM      7  C   UNL     1       2.825   4.212  17.968  0.00  0.00    +0.000 A 
ATOM      8  C   UNL     1       2.306   5.642  17.725  0.00  0.00    +0.000 C 
ATOM      9  N   UNL     1       2.288   6.440  18.959  0.00  0.00    +0.000 N 
ATOM     10  C   UNL     1       2.076   7.811  19.065  0.00  0.00    +0.000 C 
ATOM     11  O   UNL     1       2.283   8.419  20.117  0.00  0.00    +0.000 OA
ATOM     12  C   UNL     1       2.490   5.691  20.196  0.00  0.00    +0.000 C 
ATOM     13  C   UNL     1       1.680   4.381  20.186  0.00  0.00    +0.000 C 
ENDROOT
BRANCH   1  19
ATOM     14  C   UNL     1       5.927   5.156  17.352  0.00  0.00    +0.000 A 
ATOM     15  C   UNL     1       6.943   5.819  16.640  0.00  0.00    +0.000 A 
ATOM     16  C   UNL     1       7.170   5.557  15.297  0.00  0.00    +0.000 A 
ATOM     17  C   UNL     1       6.375   4.633  14.630  0.00  0.00    +0.000 A 
ATOM     18  C   UNL     1       5.318   4.011  15.323  0.00  0.00    +0.000 A 
ATOM     19  C   UNL     1       5.089   4.202  16.707  0.00  0.00    +0.000 A 
BRANCH  14  21
ATOM     20  C   UNL     1       6.920   5.500  19.497  0.00  0.00    +0.000 C 
ATOM     21  O   UNL     1       5.742   5.397  18.696  0.00  0.00    +0.000 OA
ENDBRANCH  14  21
BRANCH  17  22
ATOM     22  C   UNL     1       6.679   4.286  13.191  0.00  0.00    +0.000 C 
BRANCH  22  23
ATOM     23  C   UNL     1       5.667   3.372  12.528  0.00  0.00    +0.000 C 
ATOM     24  O   UNL     1       4.527   3.728  12.260  0.00  0.00    +0.000 OA
BRANCH  23  25
ATOM     25  O   UNL     1       6.120   2.146  12.177  0.00  0.00    +0.000 OA
ATOM     26  H   UNL     1       6.751   2.143  11.431  0.00  0.00    +0.000 HD
ENDBRANCH  23  25
ENDBRANCH  22  23
ENDBRANCH  17  22
ENDBRANCH   1  19
BRANCH  10  27
ATOM     27  O   UNL     1       1.618   8.431  17.943  0.00  0.00    +0.000 OA
BRANCH  27  28
ATOM     28  C   UNL     1       1.690   9.882  17.993  0.00  0.00    +0.000 C 
BRANCH  28  29
ATOM     29  C   UNL     1       0.532  10.646  18.622  0.00  0.00    +0.000 A 
ATOM     30  C   UNL     1       0.674  11.497  19.727  0.00  0.00    +0.000 A 
ATOM     31  C   UNL     1      -0.448  12.097  20.326  0.00  0.00    +0.000 A 
ATOM     32  C   UNL     1      -1.734  11.855  19.841  0.00  0.00    +0.000 A 
ATOM     33  C   UNL     1      -1.881  11.010  18.747  0.00  0.00    +0.000 A 
ATOM     34  F   UNL     1      -3.109  10.751  18.293  0.00  0.00    +0.000 F 
ATOM     35  C   UNL     1      -0.768  10.406  18.154  0.00  0.00    +0.000 A 
ATOM     36  F   UNL     1      -0.963   9.557  17.127  0.00  0.00    +0.000 F 
ENDBRANCH  28  29
ENDBRANCH  27  28
ENDBRANCH  10  27
TORSDOF 8
ENDMDL
MODEL 3
REMARK VINA RESULT:      -8.9      1.384      3.167
REMARK  Name = 
REMARK  9 active torsions:
REMARK  status: ('A' for Active; 'I' for Inactive)
REMARK    1  A    between atoms: C_1  and  O_2
REMARK    2  A    between atoms: O_2  and  C_3
REMARK    3  A    between atoms: C_6  and  C_7
REMARK    4  A    between atoms: C_7  and  C_8
REMARK    5  A    between atoms: C_8  and  O_10
REMARK    6  A    between atoms: C_12  and  C_13
REMARK    7  A    between atoms: C_22  and  O_24
REMARK    8  A    between atoms: O_24  and  C_25
REMARK    9  A    between atoms: C_25  and  C_26
REMARK                            x       y       z     vdW  Elec       q    Type
REMARK                         _______ _______ _______ _____ _____    ______ ____
ROOT
ATOM      1  C   UNL     1       3.926   3.887  17.504  0.00  0.00    +0.000 A 
ATOM      2  C   UNL     1       3.974   2.467  17.594  0.00  0.00    +0.000 A 
ATOM      3  C   UNL     1       2.980   1.704  18.213  0.00  0.00    +0.000 A 
ATOM      4  C   UNL     1       2.022   2.356  18.954  0.00  0.00    +0.000 A 
ATOM      5  F   UNL     1       1.182   1.651  19.722  0.00  0.00    +0.000 F 
ATOM      6  C   UNL     1       2.011   3.744  18.984  0.00  0.00    +0.000 A 
ATOM      7  C   UNL     1       2.783   4.508  18.072  0.00  0.00    +0.000 A 
ATOM      8  C   UNL     1       2.272   5.952  17.905  0.00  0.00    +0.000 C 
ATOM      9  N   UNL     1       2.122   6.637  19.197  0.00  0.00    +0.000 N 
ATOM     10  C   UNL     1       1.883   7.992  19.402  0.00  0.00    +0.000 C 
ATOM     11  O   UNL     1       1.978   8.505  20.519  0.00  0.00    +0.000 OA
ATOM     12  C   UNL     1       2.211   5.782  20.377  0.00  0.00    +0.000 C 
ATOM     13  C   UNL     1       1.423   4.474  20.170  0.00  0.00    +0.000 C 
ENDROOT
BRANCH   1  19
ATOM     14  C   UNL     1       5.673   4.593  15.716  0.00  0.00    +0.000 A 
ATOM     15  C   UNL     1       6.896   5.215  15.405  0.00  0.00    +0.000 A 
ATOM     16  C   UNL     1       7.631   5.883  16.373  0.00  0.00    +0.000 A 
ATOM     17  C   UNL     1       7.166   5.933  17.681  0.00  0.00    +0.000 A 
ATOM     18  C   UNL     1       5.973   5.261  18.011  0.00  0.00    +0.000 A 
ATOM     19  C   UNL     1       5.160   4.620  17.045  0.00  0.00    +0.000 A 
BRANCH  14  21
ATOM     20  C   UNL     1       5.582   3.766  13.477  0.00  0.00    +0.000 C 
ATOM     21  O   UNL     1       4.935   3.970  14.734  0.00  0.00    +0.000 OA
ENDBRANCH  14  21
BRANCH  17  22
ATOM     22  C   UNL     1       7.925   6.733  18.714  0.00  0.00    +0.000 C 
BRANCH  22  23
ATOM     23  C   UNL     1       8.202   8.173  18.328  0.00  0.00    +0.000 C 
ATOM     24  O   UNL     1       7.656   8.721  17.379  0.00  0.00    +0.000 OA
BRANCH  23  25
ATOM     25  O   UNL     1       9.041   8.853  19.143  0.00  0.00    +0.000 OA
ATOM     26  H   UNL     1       8.971   8.616  20.088  0.00  0.00    +0.000 HD
ENDBRANCH  23  25
ENDBRANCH  22  23
ENDBRANCH  17  22
ENDBRANCH   1  19
BRANCH  10  27
ATOM     27  O   UNL     1       1.530   8.709  18.299  0.00  0.00    +0.000 OA
BRANCH  27  28
ATOM     28  C   UNL     1       1.075  10.058  18.586  0.00  0.00    +0.000 C 
BRANCH  28  29
ATOM     29  C   UNL     1      -0.409  10.372  18.439  0.00  0.00    +0.000 A 
ATOM     30  C   UNL     1      -1.223   9.821  17.440  0.00  0.00    +0.000 A 
ATOM     31  C   UNL     1      -2.562  10.225  17.294  0.00  0.00    +0.000 A 
ATOM     32  C   UNL     1      -3.114  11.192  18.134  0.00  0.00    +0.000 A 
ATOM     33  C   UNL     1      -2.310  11.744  19.125  0.00  0.00    +0.000 A 
ATOM     34  F   UNL     1      -2.821  12.689  19.917  0.00  0.00    +0.000 F 
ATOM     35  C   UNL     1      -0.976  11.350  19.269  0.00  0.00    +0.000 A 
ATOM     36  F   UNL     1      -0.223  11.947  20.212  0.00  0.00    +0.000 F 
ENDBRANCH  28  29
ENDBRANCH  27  28
ENDBRANCH  10  27
TORSDOF 8
ENDMDL
MODEL 4
REMARK VINA RESULT:      -8.6      1.648      3.397
REMARK  Name = 
REMARK  9 active torsions:
REMARK  status: ('A' for Active; 'I' for Inactive)
REMARK    1  A    between atoms: C_1  and  O_2
REMARK    2  A    between atoms: O_2  and  C_3
REMARK    3  A    between atoms: C_6  and  C_7
REMARK    4  A    between atoms: C_7  and  C_8
REMARK    5  A    between atoms: C_8  and  O_10
REMARK    6  A    between atoms: C_12  and  C_13
REMARK    7  A    between atoms: C_22  and  O_24
REMARK    8  A    between atoms: O_24  and  C_25
REMARK    9  A    between atoms: C_25  and  C_26
REMARK                            x       y       z     vdW  Elec       q    Type
REMARK                         _______ _______ _______ _____ _____    ______ ____
ROOT
ATOM      1  C   UNL     1       3.957   3.865  17.512  0.00  0.00    +0.000 A 
ATOM      2  C   UNL     1       4.019   2.448  17.625  0.00  0.00    +0.000 A 
ATOM      3  C   UNL     1       3.035   1.684  18.258  0.00  0.00    +0.000 A 
ATOM      4  C   UNL     1       2.073   2.339  18.992  0.00  0.00    +0.000 A 
ATOM      5  F   UNL     1       1.243   1.637  19.774  0.00  0.00    +0.000 F 
ATOM      6  C   UNL     1       2.049   3.727  19.001  0.00  0.00    +0.000 A 
ATOM      7  C   UNL     1       2.811   4.484  18.075  0.00  0.00    +0.000 A 
ATOM      8  C   UNL     1       2.285   5.920  17.887  0.00  0.00    +0.000 C 
ATOM      9  N   UNL     1       2.133   6.624  19.169  0.00  0.00    +0.000 N 
ATOM     10  C   UNL     1       1.881   7.979  19.354  0.00  0.00    +0.000 C 
ATOM     11  O   UNL     1       1.974   8.510  20.463  0.00  0.00    +0.000 OA
ATOM     12  C   UNL     1       2.233   5.787  20.362  0.00  0.00    +0.000 C 
ATOM     13  C   UNL     1       1.457   4.469  20.178  0.00  0.00    +0.000 C 
ENDROOT
BRANCH   1  19
ATOM     14  C   UNL     1       5.682   4.576  15.704  0.00  0.00    +0.000 A 
ATOM     15  C   UNL     1       6.899   5.203  15.378  0.00  0.00    +0.000 A 
ATOM     16  C   UNL     1       7.641   5.876  16.337  0.00  0.00    +0.000 A 
ATOM     17  C   UNL     1       7.190   5.926  17.650  0.00  0.00    +0.000 A 
ATOM     18  C   UNL     1       6.004   5.250  17.994  0.00  0.00    +0.000 A 
ATOM     19  C   UNL     1       5.184   4.603  17.039  0.00  0.00    +0.000 A 
BRANCH  14  21
ATOM     20  C   UNL     1       5.569   3.743  13.468  0.00  0.00    +0.000 C 
ATOM     21  O   UNL     1       4.935   3.947  14.732  0.00  0.00    +0.000 OA
ENDBRANCH  14  21
BRANCH  17  22
ATOM     22  C   UNL     1       7.956   6.733  18.673  0.00  0.00    +0.000 C 
BRANCH  22  23
ATOM     23  C   UNL     1       8.182   8.185  18.301  0.00  0.00    +0.000 C 
ATOM     24  O   UNL     1       7.612   8.725  17.362  0.00  0.00    +0.000 OA
BRANCH  23  25
ATOM     25  O   UNL     1       9.003   8.884  19.119  0.00  0.00    +0.000 OA
ATOM     26  H   UNL     1       9.865   9.121  18.725  0.00  0.00    +0.000 HD
ENDBRANCH  23  25
ENDBRANCH  22  23
ENDBRANCH  17  22
ENDBRANCH   1  19
BRANCH  10  27
ATOM     27  O   UNL     1       1.518   8.675  18.241  0.00  0.00    +0.000 OA
BRANCH  27  28
ATOM     28  C   UNL     1       1.541  10.118  18.407  0.00  0.00    +0.000 C 
BRANCH  28  29
ATOM     29  C   UNL     1       0.245  10.829  18.774  0.00  0.00    +0.000 A 
ATOM     30  C   UNL     1       0.138  11.759  19.817  0.00  0.00    +0.000 A 
ATOM     31  C   UNL     1      -1.107  12.307  20.173  0.00  0.00    +0.000 A 
ATOM     32  C   UNL     1      -2.272  11.935  19.501  0.00  0.00    +0.000 A 
ATOM     33  C   UNL     1      -2.173  11.012  18.467  0.00  0.00    +0.000 A 
ATOM     34  F   UNL     1      -3.284  10.628  17.836  0.00  0.00    +0.000 F 
ATOM     35  C   UNL     1      -0.937  10.458  18.116  0.00  0.00    +0.000 A 
ATOM     36  F   UNL     1      -0.897   9.532  17.140  0.00  0.00    +0.000 F 
ENDBRANCH  28  29
ENDBRANCH  27  28
ENDBRANCH  10  27
TORSDOF 8
ENDMDL
MODEL 5
REMARK VINA RESULT:      -8.4      1.034      1.620
REMARK  Name = 
REMARK  9 active torsions:
REMARK  status: ('A' for Active; 'I' for Inactive)
REMARK    1  A    between atoms: C_1  and  O_2
REMARK    2  A    between atoms: O_2  and  C_3
REMARK    3  A    between atoms: C_6  and  C_7
REMARK    4  A    between atoms: C_7  and  C_8
REMARK    5  A    between atoms: C_8  and  O_10
REMARK    6  A    between atoms: C_12  and  C_13
REMARK    7  A    between atoms: C_22  and  O_24
REMARK    8  A    between atoms: O_24  and  C_25
REMARK    9  A    between atoms: C_25  and  C_26
REMARK                            x       y       z     vdW  Elec       q    Type
REMARK                         _______ _______ _______ _____ _____    ______ ____
ROOT
ATOM      1  C   UNL     1       3.822   3.520  17.379  0.00  0.00    +0.000 A 
ATOM      2  C   UNL     1       3.799   2.111  17.576  0.00  0.00    +0.000 A 
ATOM      3  C   UNL     1       2.812   1.455  18.317  0.00  0.00    +0.000 A 
ATOM      4  C   UNL     1       1.945   2.216  19.067  0.00  0.00    +0.000 A 
ATOM      5  F   UNL     1       1.125   1.620  19.941  0.00  0.00    +0.000 F 
ATOM      6  C   UNL     1       2.011   3.601  18.990  0.00  0.00    +0.000 A 
ATOM      7  C   UNL     1       2.758   4.248  17.972  0.00  0.00    +0.000 A 
ATOM      8  C   UNL     1       2.314   5.704  17.728  0.00  0.00    +0.000 C 
ATOM      9  N   UNL     1       2.294   6.490  18.970  0.00  0.00    +0.000 N 
ATOM     10  C   UNL     1       2.143   7.868  19.084  0.00  0.00    +0.000 C 
ATOM     11  O   UNL     1       2.344   8.455  20.150  0.00  0.00    +0.000 OA
ATOM     12  C   UNL     1       2.418   5.720  20.204  0.00  0.00    +0.000 C 
ATOM     13  C   UNL     1       1.549   4.450  20.152  0.00  0.00    +0.000 C 
ENDROOT
BRANCH   1  19
ATOM     14  C   UNL     1       6.002   4.926  17.511  0.00  0.00    +0.000 A 
ATOM     15  C   UNL     1       7.068   5.564  16.850  0.00  0.00    +0.000 A 
ATOM     16  C   UNL     1       7.242   5.440  15.480  0.00  0.00    +0.000 A 
ATOM     17  C   UNL     1       6.345   4.685  14.735  0.00  0.00    +0.000 A 
ATOM     18  C   UNL     1       5.243   4.094  15.382  0.00  0.00    +0.000 A 
ATOM     19  C   UNL     1       5.059   4.143  16.785  0.00  0.00    +0.000 A 
BRANCH  14  21
ATOM     20  C   UNL     1       6.967   5.591  19.593  0.00  0.00    +0.000 C 
ATOM     21  O   UNL     1       5.867   5.025  18.879  0.00  0.00    +0.000 OA
ENDBRANCH  14  21
BRANCH  17  22
ATOM     22  C   UNL     1       6.586   4.482  13.257  0.00  0.00    +0.000 C 
BRANCH  22  23
ATOM     23  C   UNL     1       5.688   3.451  12.600  0.00  0.00    +0.000 C 
ATOM     24  O   UNL     1       4.508   3.661  12.354  0.00  0.00    +0.000 OA
BRANCH  23  25
ATOM     25  O   UNL     1       6.288   2.296  12.229  0.00  0.00    +0.000 OA
ATOM     26  H   UNL     1       7.241   2.378  12.030  0.00  0.00    +0.000 HD
ENDBRANCH  23  25
ENDBRANCH  22  23
ENDBRANCH  17  22
ENDBRANCH   1  19
BRANCH  10  27
ATOM     27  O   UNL     1       1.753   8.521  17.955  0.00  0.00    +0.000 OA
BRANCH  27  28
ATOM     28  C   UNL     1       0.663   9.460  18.156  0.00  0.00    +0.000 C 
BRANCH  28  29
ATOM     29  C   UNL     1       0.991  10.944  18.259  0.00  0.00    +0.000 A 
ATOM     30  C   UNL     1       2.275  11.470  18.061  0.00  0.00    +0.000 A 
ATOM     31  C   UNL     1       2.537  12.836  18.268  0.00  0.00    +0.000 A 
ATOM     32  C   UNL     1       1.528  13.704  18.685  0.00  0.00    +0.000 A 
ATOM     33  C   UNL     1       0.252  13.188  18.885  0.00  0.00    +0.000 A 
ATOM     34  F   UNL     1      -0.714  14.004  19.310  0.00  0.00    +0.000 F 
ATOM     35  C   UNL     1      -0.010  11.828  18.688  0.00  0.00    +0.000 A 
ATOM     36  F   UNL     1      -1.248  11.365  18.941  0.00  0.00    +0.000 F 
ENDBRANCH  28  29
ENDBRANCH  27  28
ENDBRANCH  10  27
TORSDOF 8
ENDMDL
MODEL 6
REMARK VINA RESULT:      -8.4      0.951      1.046
REMARK  Name = 
REMARK  9 active torsions:
REMARK  status: ('A' for Active; 'I' for Inactive)
REMARK    1  A    between atoms: C_1  and  O_2
REMARK    2  A    between atoms: O_2  and  C_3
REMARK    3  A    between atoms: C_6  and  C_7
REMARK    4  A    between atoms: C_7  and  C_8
REMARK    5  A    between atoms: C_8  and  O_10
REMARK    6  A    between atoms: C_12  and  C_13
REMARK    7  A    between atoms: C_22  and  O_24
REMARK    8  A    between atoms: O_24  and  C_25
REMARK    9  A    between atoms: C_25  and  C_26
REMARK                            x       y       z     vdW  Elec       q    Type
REMARK                         _______ _______ _______ _____ _____    ______ ____
ROOT
ATOM      1  C   UNL     1       3.794   3.502  17.590  0.00  0.00    +0.000 A 
ATOM      2  C   UNL     1       3.802   2.106  17.865  0.00  0.00    +0.000 A 
ATOM      3  C   UNL     1       2.836   1.473  18.654  0.00  0.00    +0.000 A 
ATOM      4  C   UNL     1       1.963   2.258  19.370  0.00  0.00    +0.000 A 
ATOM      5  F   UNL     1       1.165   1.696  20.287  0.00  0.00    +0.000 F 
ATOM      6  C   UNL     1       2.001   3.637  19.215  0.00  0.00    +0.000 A 
ATOM      7  C   UNL     1       2.722   4.241  18.154  0.00  0.00    +0.000 A 
ATOM      8  C   UNL     1       2.247   5.672  17.834  0.00  0.00    +0.000 C 
ATOM      9  N   UNL     1       2.224   6.526  19.030  0.00  0.00    +0.000 N 
ATOM     10  C   UNL     1       2.047   7.905  19.070  0.00  0.00    +0.000 C 
ATOM     11  O   UNL     1       2.248   8.555  20.098  0.00  0.00    +0.000 OA
ATOM     12  C   UNL     1       2.379   5.829  20.305  0.00  0.00    +0.000 C 
ATOM     13  C   UNL     1       1.534   4.541  20.334  0.00  0.00    +0.000 C 
ENDROOT
BRANCH   1  19
ATOM     14  C   UNL     1       5.917   4.999  17.601  0.00  0.00    +0.000 A 
ATOM     15  C   UNL     1       6.964   5.613  16.888  0.00  0.00    +0.000 A 
ATOM     16  C   UNL     1       7.155   5.368  15.537  0.00  0.00    +0.000 A 
ATOM     17  C   UNL     1       6.294   4.512  14.861  0.00  0.00    +0.000 A 
ATOM     18  C   UNL     1       5.210   3.942  15.555  0.00  0.00    +0.000 A 
ATOM     19  C   UNL     1       5.012   4.115  16.946  0.00  0.00    +0.000 A 
BRANCH  14  21
ATOM     20  C   UNL     1       6.954   5.506  19.692  0.00  0.00    +0.000 C 
ATOM     21  O   UNL     1       5.766   5.219  18.952  0.00  0.00    +0.000 OA
ENDBRANCH  14  21
BRANCH  17  22
ATOM     22  C   UNL     1       6.557   4.181  13.410  0.00  0.00    +0.000 C 
BRANCH  22  23
ATOM     23  C   UNL     1       7.545   5.098  12.715  0.00  0.00    +0.000 C 
ATOM     24  O   UNL     1       8.389   5.743  13.322  0.00  0.00    +0.000 OA
BRANCH  23  25
ATOM     25  O   UNL     1       7.491   5.108  11.363  0.00  0.00    +0.000 OA
ATOM     26  H   UNL     1       8.358   5.030  10.920  0.00  0.00    +0.000 HD
ENDBRANCH  23  25
ENDBRANCH  22  23
ENDBRANCH  17  22
ENDBRANCH   1  19
BRANCH  10  27
ATOM     27  O   UNL     1       1.631   8.486  17.911  0.00  0.00    +0.000 OA
BRANCH  27  28
ATOM     28  C   UNL     1       1.297   9.894  18.037  0.00  0.00    +0.000 C 
BRANCH  28  29
ATOM     29  C   UNL     1      -0.170  10.284  18.166  0.00  0.00    +0.000 A 
ATOM     30  C   UNL     1      -1.198   9.699  17.414  0.00  0.00    +0.000 A 
ATOM     31  C   UNL     1      -2.519  10.171  17.505  0.00  0.00    +0.000 A 
ATOM     32  C   UNL     1      -2.842  11.240  18.342  0.00  0.00    +0.000 A 
ATOM     33  C   UNL     1      -1.827  11.826  19.089  0.00  0.00    +0.000 A 
ATOM     34  F   UNL     1      -2.120  12.866  19.871  0.00  0.00    +0.000 F 
ATOM     35  C   UNL     1      -0.510  11.364  18.994  0.00  0.00    +0.000 A 
ATOM     36  F   UNL     1       0.448  11.994  19.700  0.00  0.00    +0.000 F 
ENDBRANCH  28  29
ENDBRANCH  27  28
ENDBRANCH  10  27
TORSDOF 8
ENDMDL
MODEL 7
REMARK VINA RESULT:      -8.3      1.272      3.293
REMARK  Name = 
REMARK  9 active torsions:
REMARK  status: ('A' for Active; 'I' for Inactive)
REMARK    1  A    between atoms: C_1  and  O_2
REMARK    2  A    between atoms: O_2  and  C_3
REMARK    3  A    between atoms: C_6  and  C_7
REMARK    4  A    between atoms: C_7  and  C_8
REMARK    5  A    between atoms: C_8  and  O_10
REMARK    6  A    between atoms: C_12  and  C_13
REMARK    7  A    between atoms: C_22  and  O_24
REMARK    8  A    between atoms: O_24  and  C_25
REMARK    9  A    between atoms: C_25  and  C_26
REMARK                            x       y       z     vdW  Elec       q    Type
REMARK                         _______ _______ _______ _____ _____    ______ ____
ROOT
ATOM      1  C   UNL     1       3.620   4.034  17.422  0.00  0.00    +0.000 A 
ATOM      2  C   UNL     1       3.559   2.616  17.312  0.00  0.00    +0.000 A 
ATOM      3  C   UNL     1       2.496   1.852  17.803  0.00  0.00    +0.000 A 
ATOM      4  C   UNL     1       1.572   2.467  18.615  0.00  0.00    +0.000 A 
ATOM      5  F   UNL     1       0.664   1.727  19.264  0.00  0.00    +0.000 F 
ATOM      6  C   UNL     1       1.664   3.833  18.841  0.00  0.00    +0.000 A 
ATOM      7  C   UNL     1       2.513   4.656  18.057  0.00  0.00    +0.000 A 
ATOM      8  C   UNL     1       2.115   6.144  18.090  0.00  0.00    +0.000 C 
ATOM      9  N   UNL     1       1.986   6.651  19.463  0.00  0.00    +0.000 N 
ATOM     10  C   UNL     1       1.843   7.978  19.855  0.00  0.00    +0.000 C 
ATOM     11  O   UNL     1       1.948   8.320  21.035  0.00  0.00    +0.000 OA
ATOM     12  C   UNL     1       1.981   5.634  20.512  0.00  0.00    +0.000 C 
ATOM     13  C   UNL     1       1.103   4.433  20.111  0.00  0.00    +0.000 C 
ENDROOT
BRANCH   1  19
ATOM     14  C   UNL     1       5.452   4.858  15.775  0.00  0.00    +0.000 A 
ATOM     15  C   UNL     1       6.726   5.419  15.571  0.00  0.00    +0.000 A 
ATOM     16  C   UNL     1       7.491   5.874  16.634  0.00  0.00    +0.000 A 
ATOM     17  C   UNL     1       7.005   5.764  17.931  0.00  0.00    +0.000 A 
ATOM     18  C   UNL     1       5.757   5.149  18.147  0.00  0.00    +0.000 A 
ATOM     19  C   UNL     1       4.917   4.726  17.089  0.00  0.00    +0.000 A 
BRANCH  14  21
ATOM     20  C   UNL     1       5.386   3.890  13.593  0.00  0.00    +0.000 C 
ATOM     21  O   UNL     1       4.686   4.449  14.705  0.00  0.00    +0.000 OA
ENDBRANCH  14  21
BRANCH  17  22
ATOM     22  C   UNL     1       7.804   6.338  19.079  0.00  0.00    +0.000 C 
BRANCH  22  23
ATOM     23  C   UNL     1       8.485   5.308  19.960  0.00  0.00    +0.000 C 
ATOM     24  O   UNL     1       9.329   4.530  19.537  0.00  0.00    +0.000 OA
BRANCH  23  25
ATOM     25  O   UNL     1       8.158   5.344  21.272  0.00  0.00    +0.000 OA
ATOM     26  H   UNL     1       8.810   5.797  21.842  0.00  0.00    +0.000 HD
ENDBRANCH  23  25
ENDBRANCH  22  23
ENDBRANCH  17  22
ENDBRANCH   1  19
BRANCH  10  27
ATOM     27  O   UNL     1       1.572   8.867  18.860  0.00  0.00    +0.000 OA
BRANCH  27  28
ATOM     28  C   UNL     1       0.843  10.046  19.296  0.00  0.00    +0.000 C 
BRANCH  28  29
ATOM     29  C   UNL     1      -0.540  10.303  18.712  0.00  0.00    +0.000 A 
ATOM     30  C   UNL     1      -0.991   9.740  17.510  0.00  0.00    +0.000 A 
ATOM     31  C   UNL     1      -2.241  10.094  16.971  0.00  0.00    +0.000 A 
ATOM     32  C   UNL     1      -3.062  11.021  17.613  0.00  0.00    +0.000 A 
ATOM     33  C   UNL     1      -2.619  11.584  18.804  0.00  0.00    +0.000 A 
ATOM     34  F   UNL     1      -3.385  12.492  19.412  0.00  0.00    +0.000 F 
ATOM     35  C   UNL     1      -1.373  11.240  19.340  0.00  0.00    +0.000 A 
ATOM     36  F   UNL     1      -0.965  11.847  20.470  0.00  0.00    +0.000 F 
ENDBRANCH  28  29
ENDBRANCH  27  28
ENDBRANCH  10  27
TORSDOF 8
ENDMDL
MODEL 8
REMARK VINA RESULT:      -8.3      1.775      3.604
REMARK  Name = 
REMARK  9 active torsions:
REMARK  status: ('A' for Active; 'I' for Inactive)
REMARK    1  A    between atoms: C_1  and  O_2
REMARK    2  A    between atoms: O_2  and  C_3
REMARK    3  A    between atoms: C_6  and  C_7
REMARK    4  A    between atoms: C_7  and  C_8
REMARK    5  A    between atoms: C_8  and  O_10
REMARK    6  A    between atoms: C_12  and  C_13
REMARK    7  A    between atoms: C_22  and  O_24
REMARK    8  A    between atoms: O_24  and  C_25
REMARK    9  A    between atoms: C_25  and  C_26
REMARK                            x       y       z     vdW  Elec       q    Type
REMARK                         _______ _______ _______ _____ _____    ______ ____
ROOT
ATOM      1  C   UNL     1       3.869   3.892  17.451  0.00  0.00    +0.000 A 
ATOM      2  C   UNL     1       3.876   2.470  17.503  0.00  0.00    +0.000 A 
ATOM      3  C   UNL     1       2.862   1.718  18.104  0.00  0.00    +0.000 A 
ATOM      4  C   UNL     1       1.924   2.378  18.864  0.00  0.00    +0.000 A 
ATOM      5  F   UNL     1       1.066   1.676  19.615  0.00  0.00    +0.000 F 
ATOM      6  C   UNL     1       1.953   3.765  18.931  0.00  0.00    +0.000 A 
ATOM      7  C   UNL     1       2.746   4.531  18.038  0.00  0.00    +0.000 A 
ATOM      8  C   UNL     1       2.276   5.992  17.911  0.00  0.00    +0.000 C 
ATOM      9  N   UNL     1       2.148   6.646  19.221  0.00  0.00    +0.000 N 
ATOM     10  C   UNL     1       1.948   8.001  19.463  0.00  0.00    +0.000 C 
ATOM     11  O   UNL     1       2.059   8.482  20.593  0.00  0.00    +0.000 OA
ATOM     12  C   UNL     1       2.213   5.757  20.378  0.00  0.00    +0.000 C 
ATOM     13  C   UNL     1       1.388   4.479  20.138  0.00  0.00    +0.000 C 
ENDROOT
BRANCH   1  19
ATOM     14  C   UNL     1       5.660   4.557  15.690  0.00  0.00    +0.000 A 
ATOM     15  C   UNL     1       6.898   5.156  15.396  0.00  0.00    +0.000 A 
ATOM     16  C   UNL     1       7.627   5.819  16.373  0.00  0.00    +0.000 A 
ATOM     17  C   UNL     1       7.139   5.886  17.672  0.00  0.00    +0.000 A 
ATOM     18  C   UNL     1       5.930   5.236  17.985  0.00  0.00    +0.000 A 
ATOM     19  C   UNL     1       5.124   4.602  17.010  0.00  0.00    +0.000 A 
BRANCH  14  21
ATOM     20  C   UNL     1       5.585   3.740  13.446  0.00  0.00    +0.000 C 
ATOM     21  O   UNL     1       4.928   3.939  14.699  0.00  0.00    +0.000 OA
ENDBRANCH  14  21
BRANCH  17  22
ATOM     22  C   UNL     1       7.893   6.681  18.713  0.00  0.00    +0.000 C 
BRANCH  22  23
ATOM     23  C   UNL     1       8.178   8.121  18.332  0.00  0.00    +0.000 C 
ATOM     24  O   UNL     1       7.644   8.673  17.380  0.00  0.00    +0.000 OA
BRANCH  23  25
ATOM     25  O   UNL     1       9.012   8.796  19.157  0.00  0.00    +0.000 OA
ATOM     26  H   UNL     1       9.948   8.802  18.874  0.00  0.00    +0.000 HD
ENDBRANCH  23  25
ENDBRANCH  22  23
ENDBRANCH  17  22
ENDBRANCH   1  19
BRANCH  10  27
ATOM     27  O   UNL     1       1.614   8.757  18.381  0.00  0.00    +0.000 OA
BRANCH  27  28
ATOM     28  C   UNL     1       0.621   9.782  18.652  0.00  0.00    +0.000 C 
BRANCH  28  29
ATOM     29  C   UNL     1       1.073  11.236  18.710  0.00  0.00    +0.000 A 
ATOM     30  C   UNL     1       2.253  11.706  18.116  0.00  0.00    +0.000 A 
ATOM     31  C   UNL     1       2.668  13.038  18.288  0.00  0.00    +0.000 A 
ATOM     32  C   UNL     1       1.921  13.927  19.061  0.00  0.00    +0.000 A 
ATOM     33  C   UNL     1       0.752  13.467  19.654  0.00  0.00    +0.000 A 
ATOM     34  F   UNL     1       0.044  14.302  20.418  0.00  0.00    +0.000 F 
ATOM     35  C   UNL     1       0.339  12.140  19.492  0.00  0.00    +0.000 A 
ATOM     36  F   UNL     1      -0.774  11.727  20.125  0.00  0.00    +0.000 F 
ENDBRANCH  28  29
ENDBRANCH  27  28
ENDBRANCH  10  27
TORSDOF 8
ENDMDL
MODEL 9
REMARK VINA RESULT:      -8.3      1.355      1.719
REMARK  Name = 
REMARK  9 active torsions:
REMARK  status: ('A' for Active; 'I' for Inactive)
REMARK    1  A    between atoms: C_1  and  O_2
REMARK    2  A    between atoms: O_2  and  C_3
REMARK    3  A    between atoms: C_6  and  C_7
REMARK    4  A    between atoms: C_7  and  C_8
REMARK    5  A    between atoms: C_8  and  O_10
REMARK    6  A    between atoms: C_12  and  C_13
REMARK    7  A    between atoms: C_22  and  O_24
REMARK    8  A    between atoms: O_24  and  C_25
REMARK    9  A    between atoms: C_25  and  C_26
REMARK                            x       y       z     vdW  Elec       q    Type
REMARK                         _______ _______ _______ _____ _____    ______ ____
ROOT
ATOM      1  C   UNL     1       3.816   3.567  17.336  0.00  0.00    +0.000 A 
ATOM      2  C   UNL     1       3.771   2.159  17.537  0.00  0.00    +0.000 A 
ATOM      3  C   UNL     1       2.763   1.518  18.264  0.00  0.00    +0.000 A 
ATOM      4  C   UNL     1       1.895   2.294  18.997  0.00  0.00    +0.000 A 
ATOM      5  F   UNL     1       1.053   1.712  19.860  0.00  0.00    +0.000 F 
ATOM      6  C   UNL     1       1.981   3.677  18.916  0.00  0.00    +0.000 A 
ATOM      7  C   UNL     1       2.753   4.311  17.909  0.00  0.00    +0.000 A 
ATOM      8  C   UNL     1       2.333   5.772  17.653  0.00  0.00    +0.000 C 
ATOM      9  N   UNL     1       2.303   6.562  18.891  0.00  0.00    +0.000 N 
ATOM     10  C   UNL     1       2.168   7.942  18.999  0.00  0.00    +0.000 C 
ATOM     11  O   UNL     1       2.360   8.531  20.066  0.00  0.00    +0.000 OA
ATOM     12  C   UNL     1       2.397   5.795  20.130  0.00  0.00    +0.000 C 
ATOM     13  C   UNL     1       1.511   4.536  20.068  0.00  0.00    +0.000 C 
ENDROOT
BRANCH   1  19
ATOM     14  C   UNL     1       6.035   4.906  17.507  0.00  0.00    +0.000 A 
ATOM     15  C   UNL     1       7.119   5.532  16.865  0.00  0.00    +0.000 A 
ATOM     16  C   UNL     1       7.291   5.442  15.491  0.00  0.00    +0.000 A 
ATOM     17  C   UNL     1       6.374   4.734  14.726  0.00  0.00    +0.000 A 
ATOM     18  C   UNL     1       5.255   4.157  15.356  0.00  0.00    +0.000 A 
ATOM     19  C   UNL     1       5.071   4.171  16.759  0.00  0.00    +0.000 A 
BRANCH  14  21
ATOM     20  C   UNL     1       6.988   5.549  19.601  0.00  0.00    +0.000 C 
ATOM     21  O   UNL     1       5.902   4.970  18.877  0.00  0.00    +0.000 OA
ENDBRANCH  14  21
BRANCH  17  22
ATOM     22  C   UNL     1       6.610   4.566  13.242  0.00  0.00    +0.000 C 
BRANCH  22  23
ATOM     23  C   UNL     1       5.764   3.496  12.579  0.00  0.00    +0.000 C 
ATOM     24  O   UNL     1       4.586   3.667  12.292  0.00  0.00    +0.000 OA
BRANCH  23  25
ATOM     25  O   UNL     1       6.408   2.353  12.250  0.00  0.00    +0.000 OA
ATOM     26  H   UNL     1       7.215   2.480  11.714  0.00  0.00    +0.000 HD
ENDBRANCH  23  25
ENDBRANCH  22  23
ENDBRANCH  17  22
ENDBRANCH   1  19
BRANCH  10  27
ATOM     27  O   UNL     1       1.805   8.597  17.862  0.00  0.00    +0.000 OA
BRANCH  27  28
ATOM     28  C   UNL     1       0.617   9.421  18.001  0.00  0.00    +0.000 C 
BRANCH  28  29
ATOM     29  C   UNL     1       0.676  10.631  18.926  0.00  0.00    +0.000 A 
ATOM     30  C   UNL     1      -0.261  10.880  19.938  0.00  0.00    +0.000 A 
ATOM     31  C   UNL     1      -0.211  12.065  20.693  0.00  0.00    +0.000 A 
ATOM     32  C   UNL     1       0.767  13.029  20.451  0.00  0.00    +0.000 A 
ATOM     33  C   UNL     1       1.699  12.788  19.447  0.00  0.00    +0.000 A 
ATOM     34  F   UNL     1       2.622  13.716  19.189  0.00  0.00    +0.000 F 
ATOM     35  C   UNL     1       1.647  11.614  18.688  0.00  0.00    +0.000 A 
ATOM     36  F   UNL     1       2.540  11.447  17.695  0.00  0.00    +0.000 F 
ENDBRANCH  28  29
ENDBRANCH  27  28
ENDBRANCH  10  27
TORSDOF 8
ENDMDL
