MODEL 1
REMARK VINA RESULT:      -8.6      0.000      0.000
REMARK  Name = 
REMARK  6 active torsions:
REMARK  status: ('A' for Active; 'I' for Inactive)
REMARK    1  A    between atoms: C_1  and  O_2
REMARK    2  A    between atoms: O_2  and  C_3
REMARK    3  A    between atoms: C_8  and  C_9
REMARK    4  A    between atoms: C_9  and  C_11
REMARK    5  A    between atoms: C_16  and  C_18
REMARK    6  A    between atoms: N_22  and  C_23
REMARK                            x       y       z     vdW  Elec       q    Type
REMARK                         _______ _______ _______ _____ _____    ______ ____
ROOT
ATOM      1  C   UNL     1       2.111   5.136  20.156  0.00  0.00    +0.000 C 
ATOM      2  O   UNL     1       2.919   4.708  20.981  0.00  0.00    +0.000 OA
ENDROOT
BRANCH   1   8
ATOM      3  C   UNL     1      -0.147  11.241  21.048  0.00  0.00    +0.000 A 
ATOM      4  C   UNL     1      -0.516  10.479  22.153  0.00  0.00    +0.000 A 
ATOM      5  C   UNL     1      -0.104   9.142  22.261  0.00  0.00    +0.000 A 
ATOM      6  C   UNL     1       0.667   8.530  21.255  0.00  0.00    +0.000 A 
ATOM      7  C   UNL     1       1.065   7.173  21.315  0.00  0.00    +0.000 A 
ATOM      8  C   UNL     1       1.774   6.590  20.256  0.00  0.00    +0.000 A 
ATOM      9  C   UNL     1       2.120   7.385  19.154  0.00  0.00    +0.000 A 
ATOM     10  C   UNL     1       1.767   8.730  19.097  0.00  0.00    +0.000 A 
ATOM     11  C   UNL     1       1.030   9.312  20.133  0.00  0.00    +0.000 A 
ATOM     12  C   UNL     1       0.624  10.652  20.046  0.00  0.00    +0.000 A 
BRANCH   3  14
ATOM     13  C   UNL     1      -1.616  12.745  19.944  0.00  0.00    +0.000 C 
ATOM     14  O   UNL     1      -0.505  12.538  20.806  0.00  0.00    +0.000 OA
ENDBRANCH   3  14
ENDBRANCH   1   8
BRANCH   1  15
ATOM     15  C   UNL     1       1.496   4.234  19.079  0.00  0.00    +0.000 C 
ATOM     16  C   UNL     1       1.697   2.737  19.359  0.00  0.00    +0.000 C 
ATOM     17  C   UNL     1       3.124   2.233  19.082  0.00  0.00    +0.000 C 
ATOM     18  C   UNL     1       3.713   2.744  17.765  0.00  0.00    +0.000 C 
ATOM     19  N   UNL     1       3.486   4.173  17.604  0.00  0.00    +0.000 N 
ATOM     20  C   UNL     1       4.432   5.149  17.258  0.00  0.00    +0.000 C 
ATOM     21  O   UNL     1       4.057   6.188  16.709  0.00  0.00    +0.000 OA
ATOM     22  C   UNL     1       2.083   4.577  17.694  0.00  0.00    +0.000 C 
BRANCH  20  23
ATOM     23  C   UNL     1       5.843   4.938  17.548  0.00  0.00    +0.000 A 
ATOM     24  C   UNL     1       6.616   5.210  18.667  0.00  0.00    +0.000 A 
ATOM     25  C   UNL     1       7.907   4.749  18.369  0.00  0.00    +0.000 A 
ATOM     26  N   UNL     1       7.998   4.288  17.124  0.00  0.00    +0.000 NA
ATOM     27  N   UNL     1       6.766   4.510  16.613  0.00  0.00    +0.000 N 
ATOM     28  C   UNL     1       6.573   4.325  15.191  0.00  0.00    +0.000 C 
ENDBRANCH  20  23
ENDBRANCH   1  15
TORSDOF 4
ENDMDL
MODEL 2
REMARK VINA RESULT:      -8.4      0.822      1.723
REMARK  Name = 
REMARK  6 active torsions:
REMARK  status: ('A' for Active; 'I' for Inactive)
REMARK    1  A    between atoms: C_1  and  O_2
REMARK    2  A    between atoms: O_2  and  C_3
REMARK    3  A    between atoms: C_8  and  C_9
REMARK    4  A    between atoms: C_9  and  C_11
REMARK    5  A    between atoms: C_16  and  C_18
REMARK    6  A    between atoms: N_22  and  C_23
REMARK                            x       y       z     vdW  Elec       q    Type
REMARK                         _______ _______ _______ _____ _____    ______ ____
ROOT
ATOM      1  C   UNL     1       2.037   5.142  20.106  0.00  0.00    +0.000 C 
ATOM      2  O   UNL     1       2.805   4.820  21.014  0.00  0.00    +0.000 OA
ENDROOT
BRANCH   1   8
ATOM      3  C   UNL     1       1.223  11.608  19.278  0.00  0.00    +0.000 A 
ATOM      4  C   UNL     1       1.824  11.099  18.130  0.00  0.00    +0.000 A 
ATOM      5  C   UNL     1       2.057   9.721  18.004  0.00  0.00    +0.000 A 
ATOM      6  C   UNL     1       1.713   8.823  19.033  0.00  0.00    +0.000 A 
ATOM      7  C   UNL     1       1.970   7.434  18.953  0.00  0.00    +0.000 A 
ATOM      8  C   UNL     1       1.672   6.591  20.033  0.00  0.00    +0.000 A 
ATOM      9  C   UNL     1       1.077   7.140  21.177  0.00  0.00    +0.000 A 
ATOM     10  C   UNL     1       0.786   8.499  21.256  0.00  0.00    +0.000 A 
ATOM     11  C   UNL     1       1.110   9.354  20.199  0.00  0.00    +0.000 A 
ATOM     12  C   UNL     1       0.870  10.731  20.304  0.00  0.00    +0.000 A 
BRANCH   3  14
ATOM     13  C   UNL     1      -0.021  13.558  18.741  0.00  0.00    +0.000 C 
ATOM     14  O   UNL     1       0.970  12.926  19.541  0.00  0.00    +0.000 OA
ENDBRANCH   3  14
ENDBRANCH   1   8
BRANCH   1  15
ATOM     15  C   UNL     1       1.498   4.119  19.098  0.00  0.00    +0.000 C 
ATOM     16  C   UNL     1       1.766   2.664  19.513  0.00  0.00    +0.000 C 
ATOM     17  C   UNL     1       3.224   2.214  19.314  0.00  0.00    +0.000 C 
ATOM     18  C   UNL     1       3.822   2.640  17.971  0.00  0.00    +0.000 C 
ATOM     19  N   UNL     1       3.528   4.036  17.680  0.00  0.00    +0.000 N 
ATOM     20  C   UNL     1       4.433   5.026  17.272  0.00  0.00    +0.000 C 
ATOM     21  O   UNL     1       4.020   5.992  16.625  0.00  0.00    +0.000 OA
ATOM     22  C   UNL     1       2.104   4.371  17.702  0.00  0.00    +0.000 C 
BRANCH  20  23
ATOM     23  C   UNL     1       5.844   4.915  17.611  0.00  0.00    +0.000 A 
ATOM     24  C   UNL     1       6.572   5.327  18.717  0.00  0.00    +0.000 A 
ATOM     25  C   UNL     1       7.892   4.909  18.491  0.00  0.00    +0.000 A 
ATOM     26  N   UNL     1       8.039   4.342  17.296  0.00  0.00    +0.000 NA
ATOM     27  N   UNL     1       6.812   4.453  16.739  0.00  0.00    +0.000 N 
ATOM     28  C   UNL     1       6.666   4.130  15.337  0.00  0.00    +0.000 C 
ENDBRANCH  20  23
ENDBRANCH   1  15
TORSDOF 4
ENDMDL
MODEL 3
REMARK VINA RESULT:      -8.1      0.908      1.013
REMARK  Name = 
REMARK  6 active torsions:
REMARK  status: ('A' for Active; 'I' for Inactive)
REMARK    1  A    between atoms: C_1  and  O_2
REMARK    2  A    between atoms: O_2  and  C_3
REMARK    3  A    between atoms: C_8  and  C_9
REMARK    4  A    between atoms: C_9  and  C_11
REMARK    5  A    between atoms: C_16  and  C_18
REMARK    6  A    between atoms: N_22  and  C_23
REMARK                            x       y       z     vdW  Elec       q    Type
REMARK                         _______ _______ _______ _____ _____    ______ ____
ROOT
ATOM      1  C   UNL     1       2.305   6.184  19.930  0.00  0.00    +0.000 C 
ATOM      2  O   UNL     1       3.438   5.984  20.372  0.00  0.00    +0.000 OA
ENDROOT
BRANCH   1   8
ATOM      3  C   UNL     1      -1.009  11.470  21.988  0.00  0.00    +0.000 A 
ATOM      4  C   UNL     1      -0.971  10.551  23.033  0.00  0.00    +0.000 A 
ATOM      5  C   UNL     1      -0.264   9.347  22.893  0.00  0.00    +0.000 A 
ATOM      6  C   UNL     1       0.405   9.026  21.696  0.00  0.00    +0.000 A 
ATOM      7  C   UNL     1       1.094   7.804  21.509  0.00  0.00    +0.000 A 
ATOM      8  C   UNL     1       1.685   7.500  20.275  0.00  0.00    +0.000 A 
ATOM      9  C   UNL     1       1.620   8.446  19.242  0.00  0.00    +0.000 A 
ATOM     10  C   UNL     1       0.976   9.666  19.423  0.00  0.00    +0.000 A 
ATOM     11  C   UNL     1       0.354   9.965  20.638  0.00  0.00    +0.000 A 
ATOM     12  C   UNL     1      -0.345  11.170  20.799  0.00  0.00    +0.000 A 
BRANCH   3  14
ATOM     13  C   UNL     1      -3.061  12.615  22.328  0.00  0.00    +0.000 C 
ATOM     14  O   UNL     1      -1.683  12.659  21.982  0.00  0.00    +0.000 OA
ENDBRANCH   3  14
ENDBRANCH   1   8
BRANCH   1  15
ATOM     15  C   UNL     1       1.578   5.148  19.064  0.00  0.00    +0.000 C 
ATOM     16  C   UNL     1       1.625   3.729  19.653  0.00  0.00    +0.000 C 
ATOM     17  C   UNL     1       2.985   3.029  19.492  0.00  0.00    +0.000 C 
ATOM     18  C   UNL     1       3.599   3.187  18.099  0.00  0.00    +0.000 C 
ATOM     19  N   UNL     1       3.522   4.567  17.642  0.00  0.00    +0.000 N 
ATOM     20  C   UNL     1       4.558   5.342  17.102  0.00  0.00    +0.000 C 
ATOM     21  O   UNL     1       4.284   6.277  16.346  0.00  0.00    +0.000 OA
ATOM     22  C   UNL     1       2.171   5.128  17.640  0.00  0.00    +0.000 C 
BRANCH  20  23
ATOM     23  C   UNL     1       5.944   5.046  17.434  0.00  0.00    +0.000 A 
ATOM     24  C   UNL     1       6.709   5.305  18.563  0.00  0.00    +0.000 A 
ATOM     25  C   UNL     1       7.971   4.747  18.312  0.00  0.00    +0.000 A 
ATOM     26  N   UNL     1       8.059   4.237  17.087  0.00  0.00    +0.000 NA
ATOM     27  N   UNL     1       6.857   4.523  16.537  0.00  0.00    +0.000 N 
ATOM     28  C   UNL     1       6.683   4.301  15.119  0.00  0.00    +0.000 C 
ENDBRANCH  20  23
ENDBRANCH   1  15
TORSDOF 4
ENDMDL
MODEL 4
REMARK VINA RESULT:      -7.9      4.416      8.802
REMARK  Name = 
REMARK  6 active torsions:
REMARK  status: ('A' for Active; 'I' for Inactive)
REMARK    1  A    between atoms: C_1  and  O_2
REMARK    2  A    between atoms: O_2  and  C_3
REMARK    3  A    between atoms: C_8  and  C_9
REMARK    4  A    between atoms: C_9  and  C_11
REMARK    5  A    between atoms: C_16  and  C_18
REMARK    6  A    between atoms: N_22  and  C_23
REMARK                            x       y       z     vdW  Elec       q    Type
REMARK                         _______ _______ _______ _____ _____    ______ ____
ROOT
ATOM      1  C   UNL     1       1.139   9.961  18.967  0.00  0.00    +0.000 C 
ATOM      2  O   UNL     1       1.688  10.689  18.138  0.00  0.00    +0.000 OA
ENDROOT
BRANCH   1   8
ATOM      3  C   UNL     1       3.726   3.922  18.975  0.00  0.00    +0.000 A 
ATOM      4  C   UNL     1       4.024   4.517  17.752  0.00  0.00    +0.000 A 
ATOM      5  C   UNL     1       3.648   5.845  17.500  0.00  0.00    +0.000 A 
ATOM      6  C   UNL     1       2.946   6.601  18.457  0.00  0.00    +0.000 A 
ATOM      7  C   UNL     1       2.518   7.929  18.220  0.00  0.00    +0.000 A 
ATOM      8  C   UNL     1       1.761   8.617  19.179  0.00  0.00    +0.000 A 
ATOM      9  C   UNL     1       1.472   7.983  20.395  0.00  0.00    +0.000 A 
ATOM     10  C   UNL     1       1.916   6.691  20.657  0.00  0.00    +0.000 A 
ATOM     11  C   UNL     1       2.641   5.984  19.694  0.00  0.00    +0.000 A 
ATOM     12  C   UNL     1       3.037   4.660  19.937  0.00  0.00    +0.000 A 
BRANCH   3  14
ATOM     13  C   UNL     1       3.495   1.608  18.495  0.00  0.00    +0.000 C 
ATOM     14  O   UNL     1       4.006   2.633  19.336  0.00  0.00    +0.000 OA
ENDBRANCH   3  14
ENDBRANCH   1   8
BRANCH   1  15
ATOM     15  C   UNL     1      -0.102  10.411  19.748  0.00  0.00    +0.000 C 
ATOM     16  C   UNL     1      -1.249  10.881  18.839  0.00  0.00    +0.000 C 
ATOM     17  C   UNL     1      -1.030  12.274  18.224  0.00  0.00    +0.000 C 
ATOM     18  C   UNL     1      -0.507  13.312  19.219  0.00  0.00    +0.000 C 
ATOM     19  N   UNL     1       0.587  12.776  20.016  0.00  0.00    +0.000 N 
ATOM     20  C   UNL     1       1.832  13.372  20.258  0.00  0.00    +0.000 C 
ATOM     21  O   UNL     1       2.459  13.074  21.278  0.00  0.00    +0.000 OA
ATOM     22  C   UNL     1       0.265  11.541  20.732  0.00  0.00    +0.000 C 
BRANCH  20  23
ATOM     23  C   UNL     1       2.382  14.332  19.311  0.00  0.00    +0.000 A 
ATOM     24  C   UNL     1       3.207  14.183  18.205  0.00  0.00    +0.000 A 
ATOM     25  C   UNL     1       3.368  15.468  17.666  0.00  0.00    +0.000 A 
ATOM     26  N   UNL     1       2.770  16.399  18.404  0.00  0.00    +0.000 NA
ATOM     27  N   UNL     1       2.270  15.703  19.450  0.00  0.00    +0.000 N 
ATOM     28  C   UNL     1       1.737  16.442  20.573  0.00  0.00    +0.000 C 
ENDBRANCH  20  23
ENDBRANCH   1  15
TORSDOF 4
ENDMDL
MODEL 5
REMARK VINA RESULT:      -7.7      3.906      8.589
REMARK  Name = 
REMARK  6 active torsions:
REMARK  status: ('A' for Active; 'I' for Inactive)
REMARK    1  A    between atoms: C_1  and  O_2
REMARK    2  A    between atoms: O_2  and  C_3
REMARK    3  A    between atoms: C_8  and  C_9
REMARK    4  A    between atoms: C_9  and  C_11
REMARK    5  A    between atoms: C_16  and  C_18
REMARK    6  A    between atoms: N_22  and  C_23
REMARK                            x       y       z     vdW  Elec       q    Type
REMARK                         _______ _______ _______ _____ _____    ______ ____
ROOT
ATOM      1  C   UNL     1       0.603   8.481  21.089  0.00  0.00    +0.000 C 
ATOM      2  O   UNL     1      -0.561   8.078  21.111  0.00  0.00    +0.000 OA
ENDROOT
BRANCH   1   8
ATOM      3  C   UNL     1       5.009   5.465  17.263  0.00  0.00    +0.000 A 
ATOM      4  C   UNL     1       4.824   4.688  18.402  0.00  0.00    +0.000 A 
ATOM      5  C   UNL     1       3.879   5.062  19.370  0.00  0.00    +0.000 A 
ATOM      6  C   UNL     1       3.114   6.235  19.230  0.00  0.00    +0.000 A 
ATOM      7  C   UNL     1       2.181   6.662  20.206  0.00  0.00    +0.000 A 
ATOM      8  C   UNL     1       1.493   7.873  20.053  0.00  0.00    +0.000 A 
ATOM      9  C   UNL     1       1.712   8.635  18.897  0.00  0.00    +0.000 A 
ATOM     10  C   UNL     1       2.599   8.211  17.912  0.00  0.00    +0.000 A 
ATOM     11  C   UNL     1       3.316   7.022  18.070  0.00  0.00    +0.000 A 
ATOM     12  C   UNL     1       4.253   6.626  17.105  0.00  0.00    +0.000 A 
BRANCH   3  14
ATOM     13  C   UNL     1       7.134   4.609  16.638  0.00  0.00    +0.000 C 
ATOM     14  O   UNL     1       5.913   5.232  16.263  0.00  0.00    +0.000 OA
ENDBRANCH   3  14
ENDBRANCH   1   8
BRANCH   1  15
ATOM     15  C   UNL     1       1.107   9.556  22.061  0.00  0.00    +0.000 C 
ATOM     16  C   UNL     1       0.280   9.637  23.354  0.00  0.00    +0.000 C 
ATOM     17  C   UNL     1      -1.088  10.319  23.181  0.00  0.00    +0.000 C 
ATOM     18  C   UNL     1      -1.036  11.602  22.348  0.00  0.00    +0.000 C 
ATOM     19  N   UNL     1      -0.247  11.415  21.139  0.00  0.00    +0.000 N 
ATOM     20  C   UNL     1      -0.609  11.756  19.828  0.00  0.00    +0.000 C 
ATOM     21  O   UNL     1       0.274  11.986  18.997  0.00  0.00    +0.000 OA
ATOM     22  C   UNL     1       1.116  10.937  21.374  0.00  0.00    +0.000 C 
BRANCH  20  23
ATOM     23  C   UNL     1      -2.013  11.835  19.451  0.00  0.00    +0.000 A 
ATOM     24  C   UNL     1      -3.088  12.521  19.997  0.00  0.00    +0.000 A 
ATOM     25  C   UNL     1      -4.188  12.235  19.176  0.00  0.00    +0.000 A 
ATOM     26  N   UNL     1      -3.884  11.364  18.217  0.00  0.00    +0.000 NA
ATOM     27  N   UNL     1      -2.591  11.056  18.467  0.00  0.00    +0.000 N 
ATOM     28  C   UNL     1      -1.997   9.957  17.738  0.00  0.00    +0.000 C 
ENDBRANCH  20  23
ENDBRANCH   1  15
TORSDOF 4
ENDMDL
MODEL 6
REMARK VINA RESULT:      -7.7      4.492      8.702
REMARK  Name = 
REMARK  6 active torsions:
REMARK  status: ('A' for Active; 'I' for Inactive)
REMARK    1  A    between atoms: C_1  and  O_2
REMARK    2  A    between atoms: O_2  and  C_3
REMARK    3  A    between atoms: C_8  and  C_9
REMARK    4  A    between atoms: C_9  and  C_11
REMARK    5  A    between atoms: C_16  and  C_18
REMARK    6  A    between atoms: N_22  and  C_23
REMARK                            x       y       z     vdW  Elec       q    Type
REMARK                         _______ _______ _______ _____ _____    ______ ____
ROOT
ATOM      1  C   UNL     1       1.336  10.067  18.934  0.00  0.00    +0.000 C 
ATOM      2  O   UNL     1       1.979  10.883  18.271  0.00  0.00    +0.000 OA
ENDROOT
BRANCH   1   8
ATOM      3  C   UNL     1       3.467   3.892  19.632  0.00  0.00    +0.000 A 
ATOM      4  C   UNL     1       2.645   4.189  20.716  0.00  0.00    +0.000 A 
ATOM      5  C   UNL     1       1.994   5.430  20.791  0.00  0.00    +0.000 A 
ATOM      6  C   UNL     1       2.166   6.409  19.795  0.00  0.00    +0.000 A 
ATOM      7  C   UNL     1       1.555   7.684  19.861  0.00  0.00    +0.000 A 
ATOM      8  C   UNL     1       1.813   8.650  18.878  0.00  0.00    +0.000 A 
ATOM      9  C   UNL     1       2.653   8.319  17.806  0.00  0.00    +0.000 A 
ATOM     10  C   UNL     1       3.233   7.057  17.709  0.00  0.00    +0.000 A 
ATOM     11  C   UNL     1       3.010   6.098  18.701  0.00  0.00    +0.000 A 
ATOM     12  C   UNL     1       3.642   4.848  18.632  0.00  0.00    +0.000 A 
BRANCH   3  14
ATOM     13  C   UNL     1       3.582   1.736  18.643  0.00  0.00    +0.000 C 
ATOM     14  O   UNL     1       4.181   2.739  19.452  0.00  0.00    +0.000 OA
ENDBRANCH   3  14
ENDBRANCH   1   8
BRANCH   1  15
ATOM     15  C   UNL     1       0.126  10.482  19.779  0.00  0.00    +0.000 C 
ATOM     16  C   UNL     1      -1.076  10.930  18.934  0.00  0.00    +0.000 C 
ATOM     17  C   UNL     1      -0.922  12.332  18.319  0.00  0.00    +0.000 C 
ATOM     18  C   UNL     1      -0.374  13.376  19.295  0.00  0.00    +0.000 C 
ATOM     19  N   UNL     1       0.771  12.861  20.032  0.00  0.00    +0.000 N 
ATOM     20  C   UNL     1       2.012  13.485  20.216  0.00  0.00    +0.000 C 
ATOM     21  O   UNL     1       2.696  13.195  21.201  0.00  0.00    +0.000 OA
ATOM     22  C   UNL     1       0.515  11.613  20.753  0.00  0.00    +0.000 C 
BRANCH  20  23
ATOM     23  C   UNL     1       2.491  14.464  19.251  0.00  0.00    +0.000 A 
ATOM     24  C   UNL     1       3.365  14.366  18.178  0.00  0.00    +0.000 A 
ATOM     25  C   UNL     1       3.409  15.641  17.595  0.00  0.00    +0.000 A 
ATOM     26  N   UNL     1       2.690  16.528  18.277  0.00  0.00    +0.000 NA
ATOM     27  N   UNL     1       2.230  15.819  19.332  0.00  0.00    +0.000 N 
ATOM     28  C   UNL     1       1.582  16.536  20.408  0.00  0.00    +0.000 C 
ENDBRANCH  20  23
ENDBRANCH   1  15
TORSDOF 4
ENDMDL
MODEL 7
REMARK VINA RESULT:      -7.6      4.215      8.575
REMARK  Name = 
REMARK  6 active torsions:
REMARK  status: ('A' for Active; 'I' for Inactive)
REMARK    1  A    between atoms: C_1  and  O_2
REMARK    2  A    between atoms: O_2  and  C_3
REMARK    3  A    between atoms: C_8  and  C_9
REMARK    4  A    between atoms: C_9  and  C_11
REMARK    5  A    between atoms: C_16  and  C_18
REMARK    6  A    between atoms: N_22  and  C_23
REMARK                            x       y       z     vdW  Elec       q    Type
REMARK                         _______ _______ _______ _____ _____    ______ ____
ROOT
ATOM      1  C   UNL     1       0.778   9.966  20.875  0.00  0.00    +0.000 C 
ATOM      2  O   UNL     1       1.602  10.587  21.547  0.00  0.00    +0.000 OA
ENDROOT
BRANCH   1   8
ATOM      3  C   UNL     1       3.253   4.253  18.777  0.00  0.00    +0.000 A 
ATOM      4  C   UNL     1       2.747   4.059  20.059  0.00  0.00    +0.000 A 
ATOM      5  C   UNL     1       2.094   5.104  20.729  0.00  0.00    +0.000 A 
ATOM      6  C   UNL     1       1.950   6.375  20.140  0.00  0.00    +0.000 A 
ATOM      7  C   UNL     1       1.332   7.461  20.804  0.00  0.00    +0.000 A 
ATOM      8  C   UNL     1       1.275   8.726  20.202  0.00  0.00    +0.000 A 
ATOM      9  C   UNL     1       1.803   8.887  18.914  0.00  0.00    +0.000 A 
ATOM     10  C   UNL     1       2.382   7.819  18.234  0.00  0.00    +0.000 A 
ATOM     11  C   UNL     1       2.475   6.563  18.839  0.00  0.00    +0.000 A 
ATOM     12  C   UNL     1       3.112   5.503  18.176  0.00  0.00    +0.000 A 
BRANCH   3  14
ATOM     13  C   UNL     1       3.429   2.004  18.035  0.00  0.00    +0.000 C 
ATOM     14  O   UNL     1       3.934   3.333  18.029  0.00  0.00    +0.000 OA
ENDBRANCH   3  14
ENDBRANCH   1   8
BRANCH   1  15
ATOM     15  C   UNL     1      -0.679  10.429  20.746  0.00  0.00    +0.000 C 
ATOM     16  C   UNL     1      -1.242  10.262  19.326  0.00  0.00    +0.000 C 
ATOM     17  C   UNL     1      -0.734  11.312  18.323  0.00  0.00    +0.000 C 
ATOM     18  C   UNL     1      -0.738  12.740  18.872  0.00  0.00    +0.000 C 
ATOM     19  N   UNL     1      -0.169  12.793  20.211  0.00  0.00    +0.000 N 
ATOM     20  C   UNL     1       0.817  13.673  20.680  0.00  0.00    +0.000 C 
ATOM     21  O   UNL     1       0.872  13.933  21.885  0.00  0.00    +0.000 OA
ATOM     22  C   UNL     1      -0.813  11.903  21.178  0.00  0.00    +0.000 C 
BRANCH  20  23
ATOM     23  C   UNL     1       1.768  14.271  19.754  0.00  0.00    +0.000 A 
ATOM     24  C   UNL     1       3.065  13.929  19.399  0.00  0.00    +0.000 A 
ATOM     25  C   UNL     1       3.460  14.861  18.428  0.00  0.00    +0.000 A 
ATOM     26  N   UNL     1       2.532  15.791  18.221  0.00  0.00    +0.000 NA
ATOM     27  N   UNL     1       1.562  15.476  19.109  0.00  0.00    +0.000 N 
ATOM     28  C   UNL     1       0.485  16.419  19.309  0.00  0.00    +0.000 C 
ENDBRANCH  20  23
ENDBRANCH   1  15
TORSDOF 4
ENDMDL
MODEL 8
REMARK VINA RESULT:      -7.6      3.816      8.502
REMARK  Name = 
REMARK  6 active torsions:
REMARK  status: ('A' for Active; 'I' for Inactive)
REMARK    1  A    between atoms: C_1  and  O_2
REMARK    2  A    between atoms: O_2  and  C_3
REMARK    3  A    between atoms: C_8  and  C_9
REMARK    4  A    between atoms: C_9  and  C_11
REMARK    5  A    between atoms: C_16  and  C_18
REMARK    6  A    between atoms: N_22  and  C_23
REMARK                            x       y       z     vdW  Elec       q    Type
REMARK                         _______ _______ _______ _____ _____    ______ ____
ROOT
ATOM      1  C   UNL     1       0.574   8.213  21.276  0.00  0.00    +0.000 C 
ATOM      2  O   UNL     1      -0.633   8.017  21.128  0.00  0.00    +0.000 OA
ENDROOT
BRANCH   1   8
ATOM      3  C   UNL     1       4.404   4.798  17.174  0.00  0.00    +0.000 A 
ATOM      4  C   UNL     1       4.465   6.138  16.805  0.00  0.00    +0.000 A 
ATOM      5  C   UNL     1       3.789   7.112  17.556  0.00  0.00    +0.000 A 
ATOM      6  C   UNL     1       3.020   6.763  18.683  0.00  0.00    +0.000 A 
ATOM      7  C   UNL     1       2.295   7.715  19.439  0.00  0.00    +0.000 A 
ATOM      8  C   UNL     1       1.488   7.310  20.511  0.00  0.00    +0.000 A 
ATOM      9  C   UNL     1       1.444   5.950  20.849  0.00  0.00    +0.000 A 
ATOM     10  C   UNL     1       2.179   5.007  20.137  0.00  0.00    +0.000 A 
ATOM     11  C   UNL     1       2.960   5.396  19.045  0.00  0.00    +0.000 A 
ATOM     12  C   UNL     1       3.653   4.437  18.293  0.00  0.00    +0.000 A 
BRANCH   3  14
ATOM     13  C   UNL     1       5.818   4.075  15.409  0.00  0.00    +0.000 C 
ATOM     14  O   UNL     1       4.987   3.751  16.515  0.00  0.00    +0.000 OA
ENDBRANCH   3  14
ENDBRANCH   1   8
BRANCH   1  15
ATOM     15  C   UNL     1       1.109   9.330  22.181  0.00  0.00    +0.000 C 
ATOM     16  C   UNL     1       0.239   9.567  23.426  0.00  0.00    +0.000 C 
ATOM     17  C   UNL     1      -1.073  10.316  23.139  0.00  0.00    +0.000 C 
ATOM     18  C   UNL     1      -0.904  11.522  22.211  0.00  0.00    +0.000 C 
ATOM     19  N   UNL     1      -0.082  11.189  21.057  0.00  0.00    +0.000 N 
ATOM     20  C   UNL     1      -0.369  11.444  19.709  0.00  0.00    +0.000 C 
ATOM     21  O   UNL     1       0.559  11.550  18.902  0.00  0.00    +0.000 OA
ATOM     22  C   UNL     1       1.236  10.647  21.390  0.00  0.00    +0.000 C 
BRANCH  20  23
ATOM     23  C   UNL     1      -1.748  11.579  19.265  0.00  0.00    +0.000 A 
ATOM     24  C   UNL     1      -2.839  12.248  19.802  0.00  0.00    +0.000 A 
ATOM     25  C   UNL     1      -3.899  12.045  18.905  0.00  0.00    +0.000 A 
ATOM     26  N   UNL     1      -3.558  11.239  17.902  0.00  0.00    +0.000 NA
ATOM     27  N   UNL     1      -2.287  10.885  18.197  0.00  0.00    +0.000 N 
ATOM     28  C   UNL     1      -1.673   9.830  17.422  0.00  0.00    +0.000 C 
ENDBRANCH  20  23
ENDBRANCH   1  15
TORSDOF 4
ENDMDL
MODEL 9
REMARK VINA RESULT:      -7.5      3.690      8.528
REMARK  Name = 
REMARK  6 active torsions:
REMARK  status: ('A' for Active; 'I' for Inactive)
REMARK    1  A    between atoms: C_1  and  O_2
REMARK    2  A    between atoms: O_2  and  C_3
REMARK    3  A    between atoms: C_8  and  C_9
REMARK    4  A    between atoms: C_9  and  C_11
REMARK    5  A    between atoms: C_16  and  C_18
REMARK    6  A    between atoms: N_22  and  C_23
REMARK                            x       y       z     vdW  Elec       q    Type
REMARK                         _______ _______ _______ _____ _____    ______ ____
ROOT
ATOM      1  C   UNL     1       0.708   7.926  21.346  0.00  0.00    +0.000 C 
ATOM      2  O   UNL     1      -0.480   7.599  21.337  0.00  0.00    +0.000 OA
ENDROOT
BRANCH   1   8
ATOM      3  C   UNL     1       4.549   4.900  16.958  0.00  0.00    +0.000 A 
ATOM      4  C   UNL     1       4.596   6.267  16.702  0.00  0.00    +0.000 A 
ATOM      5  C   UNL     1       3.915   7.168  17.535  0.00  0.00    +0.000 A 
ATOM      6  C   UNL     1       3.155   6.720  18.631  0.00  0.00    +0.000 A 
ATOM      7  C   UNL     1       2.425   7.599  19.467  0.00  0.00    +0.000 A 
ATOM      8  C   UNL     1       1.627   7.098  20.505  0.00  0.00    +0.000 A 
ATOM      9  C   UNL     1       1.597   5.715  20.728  0.00  0.00    +0.000 A 
ATOM     10  C   UNL     1       2.337   4.841  19.937  0.00  0.00    +0.000 A 
ATOM     11  C   UNL     1       3.109   5.327  18.879  0.00  0.00    +0.000 A 
ATOM     12  C   UNL     1       3.807   4.440  18.046  0.00  0.00    +0.000 A 
BRANCH   3  14
ATOM     13  C   UNL     1       5.604   4.287  14.921  0.00  0.00    +0.000 C 
ATOM     14  O   UNL     1       5.138   3.917  16.212  0.00  0.00    +0.000 OA
ENDBRANCH   3  14
ENDBRANCH   1   8
BRANCH   1  15
ATOM     15  C   UNL     1       1.214   9.122  22.161  0.00  0.00    +0.000 C 
ATOM     16  C   UNL     1       0.316   9.457  23.363  0.00  0.00    +0.000 C 
ATOM     17  C   UNL     1      -0.996  10.165  22.985  0.00  0.00    +0.000 C 
ATOM     18  C   UNL     1      -0.818  11.287  21.960  0.00  0.00    +0.000 C 
ATOM     19  N   UNL     1       0.031  10.864  20.856  0.00  0.00    +0.000 N 
ATOM     20  C   UNL     1      -0.229  10.999  19.485  0.00  0.00    +0.000 C 
ATOM     21  O   UNL     1       0.715  11.045  18.691  0.00  0.00    +0.000 OA
ATOM     22  C   UNL     1       1.347  10.368  21.261  0.00  0.00    +0.000 C 
BRANCH  20  23
ATOM     23  C   UNL     1      -1.600  11.081  19.003  0.00  0.00    +0.000 A 
ATOM     24  C   UNL     1      -2.349  10.255  18.177  0.00  0.00    +0.000 A 
ATOM     25  C   UNL     1      -3.624  10.835  18.101  0.00  0.00    +0.000 A 
ATOM     26  N   UNL     1      -3.686  11.993  18.754  0.00  0.00    +0.000 NA
ATOM     27  N   UNL     1      -2.423  12.173  19.202  0.00  0.00    +0.000 N 
ATOM     28  C   UNL     1      -2.077  13.455  19.774  0.00  0.00    +0.000 C 
ENDBRANCH  20  23
ENDBRANCH   1  15
TORSDOF 4
ENDMDL
