MODEL 1
REMARK VINA RESULT:      -7.5      0.000      0.000
REMARK  Name = 
REMARK  4 active torsions:
REMARK  status: ('A' for Active; 'I' for Inactive)
REMARK    1  A    between atoms: C_1  and  N_2
REMARK    2  A    between atoms: N_2  and  C_3
REMARK    3  A    between atoms: C_6  and  C_7
REMARK    4  A    between atoms: C_11  and  C_12
REMARK                            x       y       z     vdW  Elec       q    Type
REMARK                         _______ _______ _______ _____ _____    ______ ____
ROOT
ATOM      1  C   UNL     1       7.802   6.344  17.166  0.00  0.00    +0.000 C 
ATOM      2  C   UNL     1       7.429   6.064  18.642  0.00  0.00    +0.000 C 
ATOM      3  C   UNL     1       6.803   4.703  18.904  0.00  0.00    +0.000 C 
ATOM      4  C   UNL     1       5.631   4.420  17.961  0.00  0.00    +0.000 C 
ATOM      5  C   UNL     1       6.098   4.526  16.523  0.00  0.00    +0.000 A 
ATOM      6  C   UNL     1       5.456   3.737  15.550  0.00  0.00    +0.000 A 
ATOM      7  C   UNL     1       5.811   3.835  14.210  0.00  0.00    +0.000 A 
ATOM      8  C   UNL     1       6.812   4.718  13.828  0.00  0.00    +0.000 A 
ATOM      9  C   UNL     1       7.460   5.508  14.788  0.00  0.00    +0.000 A 
ATOM     10  C   UNL     1       7.103   5.440  16.148  0.00  0.00    +0.000 A 
ENDROOT
BRANCH   4  11
ATOM     11  C   UNL     1       4.373   5.242  18.237  0.00  0.00    +0.000 A 
ATOM     12  C   UNL     1       4.138   6.420  17.514  0.00  0.00    +0.000 A 
ATOM     13  C   UNL     1       3.043   7.236  17.816  0.00  0.00    +0.000 A 
ATOM     14  C   UNL     1       2.163   6.885  18.837  0.00  0.00    +0.000 A 
ATOM     15  C   UNL     1       2.356   5.702  19.561  0.00  0.00    +0.000 A 
ATOM     16  C   UNL     1       3.454   4.890  19.243  0.00  0.00    +0.000 A 
BRANCH  15  17
ATOM     17  C   UNL     1       1.432   5.296  20.683  0.00  0.00    +0.000 C 
ATOM     18  F   UNL     1       0.735   6.340  21.218  0.00  0.00    +0.000 F 
ATOM     19  F   UNL     1       0.492   4.390  20.292  0.00  0.00    +0.000 F 
ATOM     20  F   UNL     1       2.093   4.723  21.728  0.00  0.00    +0.000 F 
ENDBRANCH  15  17
ENDBRANCH   4  11
BRANCH   1  22
ATOM     21  C   UNL     1       8.059   8.690  17.873  0.00  0.00    +0.000 C 
ATOM     22  N   UNL     1       7.509   7.762  16.891  0.00  0.00    +0.000 NA
ATOM     23  H   UNL     1       7.837   8.022  15.964  0.00  0.00    +0.000 HD
ENDBRANCH   1  22
TORSDOF 3
ENDMDL
MODEL 2
REMARK VINA RESULT:      -7.4      2.559      4.583
REMARK  Name = 
REMARK  4 active torsions:
REMARK  status: ('A' for Active; 'I' for Inactive)
REMARK    1  A    between atoms: C_1  and  N_2
REMARK    2  A    between atoms: N_2  and  C_3
REMARK    3  A    between atoms: C_6  and  C_7
REMARK    4  A    between atoms: C_11  and  C_12
REMARK                            x       y       z     vdW  Elec       q    Type
REMARK                         _______ _______ _______ _____ _____    ______ ____
ROOT
ATOM      1  C   UNL     1       4.457   3.842  17.529  0.00  0.00    +0.000 C 
ATOM      2  C   UNL     1       5.247   5.020  18.151  0.00  0.00    +0.000 C 
ATOM      3  C   UNL     1       4.929   5.314  19.608  0.00  0.00    +0.000 C 
ATOM      4  C   UNL     1       3.423   5.451  19.850  0.00  0.00    +0.000 C 
ATOM      5  C   UNL     1       2.717   4.191  19.392  0.00  0.00    +0.000 A 
ATOM      6  C   UNL     1       1.530   3.813  20.046  0.00  0.00    +0.000 A 
ATOM      7  C   UNL     1       0.816   2.695  19.630  0.00  0.00    +0.000 A 
ATOM      8  C   UNL     1       1.281   1.941  18.561  0.00  0.00    +0.000 A 
ATOM      9  C   UNL     1       2.463   2.308  17.902  0.00  0.00    +0.000 A 
ATOM     10  C   UNL     1       3.192   3.447  18.293  0.00  0.00    +0.000 A 
ENDROOT
BRANCH   4  11
ATOM     11  C   UNL     1       2.796   6.722  19.280  0.00  0.00    +0.000 A 
ATOM     12  C   UNL     1       3.141   7.151  17.990  0.00  0.00    +0.000 A 
ATOM     13  C   UNL     1       2.652   8.361  17.486  0.00  0.00    +0.000 A 
ATOM     14  C   UNL     1       1.806   9.154  18.257  0.00  0.00    +0.000 A 
ATOM     15  C   UNL     1       1.423   8.742  19.538  0.00  0.00    +0.000 A 
ATOM     16  C   UNL     1       1.916   7.524  20.029  0.00  0.00    +0.000 A 
BRANCH  15  17
ATOM     17  C   UNL     1       0.519   9.583  20.408  0.00  0.00    +0.000 C 
ATOM     18  F   UNL     1       1.183  10.545  21.110  0.00  0.00    +0.000 F 
ATOM     19  F   UNL     1      -0.437  10.242  19.695  0.00  0.00    +0.000 F 
ATOM     20  F   UNL     1      -0.150   8.845  21.339  0.00  0.00    +0.000 F 
ENDBRANCH  15  17
ENDBRANCH   4  11
BRANCH   1  22
ATOM     21  C   UNL     1       5.265   4.716  15.372  0.00  0.00    +0.000 C 
ATOM     22  N   UNL     1       4.134   4.205  16.137  0.00  0.00    +0.000 NA
ATOM     23  H   UNL     1       3.727   3.413  15.646  0.00  0.00    +0.000 HD
ENDBRANCH   1  22
TORSDOF 3
ENDMDL
MODEL 3
REMARK VINA RESULT:      -7.4      4.150      6.168
REMARK  Name = 
REMARK  4 active torsions:
REMARK  status: ('A' for Active; 'I' for Inactive)
REMARK    1  A    between atoms: C_1  and  N_2
REMARK    2  A    between atoms: N_2  and  C_3
REMARK    3  A    between atoms: C_6  and  C_7
REMARK    4  A    between atoms: C_11  and  C_12
REMARK                            x       y       z     vdW  Elec       q    Type
REMARK                         _______ _______ _______ _____ _____    ______ ____
ROOT
ATOM      1  C   UNL     1       5.494   5.281  19.321  0.00  0.00    +0.000 C 
ATOM      2  C   UNL     1       5.419   6.451  18.309  0.00  0.00    +0.000 C 
ATOM      3  C   UNL     1       4.248   6.395  17.341  0.00  0.00    +0.000 C 
ATOM      4  C   UNL     1       4.145   5.036  16.643  0.00  0.00    +0.000 C 
ATOM      5  C   UNL     1       4.034   3.938  17.682  0.00  0.00    +0.000 A 
ATOM      6  C   UNL     1       3.325   2.769  17.348  0.00  0.00    +0.000 A 
ATOM      7  C   UNL     1       3.238   1.712  18.245  0.00  0.00    +0.000 A 
ATOM      8  C   UNL     1       3.854   1.810  19.485  0.00  0.00    +0.000 A 
ATOM      9  C   UNL     1       4.563   2.969  19.830  0.00  0.00    +0.000 A 
ATOM     10  C   UNL     1       4.681   4.046  18.930  0.00  0.00    +0.000 A 
ENDROOT
BRANCH   4  11
ATOM     11  C   UNL     1       5.235   4.763  15.607  0.00  0.00    +0.000 A 
ATOM     12  C   UNL     1       6.547   5.194  15.848  0.00  0.00    +0.000 A 
ATOM     13  C   UNL     1       7.538   5.039  14.873  0.00  0.00    +0.000 A 
ATOM     14  C   UNL     1       7.236   4.446  13.650  0.00  0.00    +0.000 A 
ATOM     15  C   UNL     1       5.942   3.983  13.388  0.00  0.00    +0.000 A 
ATOM     16  C   UNL     1       4.959   4.139  14.377  0.00  0.00    +0.000 A 
BRANCH  15  17
ATOM     17  C   UNL     1       5.574   3.348  12.069  0.00  0.00    +0.000 C 
ATOM     18  F   UNL     1       6.306   3.816  11.018  0.00  0.00    +0.000 F 
ATOM     19  F   UNL     1       5.749   1.997  12.066  0.00  0.00    +0.000 F 
ATOM     20  F   UNL     1       4.270   3.558  11.729  0.00  0.00    +0.000 F 
ENDBRANCH  15  17
ENDBRANCH   4  11
BRANCH   1  22
ATOM     21  C   UNL     1       7.844   5.995  19.122  0.00  0.00    +0.000 C 
ATOM     22  N   UNL     1       6.916   4.935  19.499  0.00  0.00    +0.000 NA
ATOM     23  H   UNL     1       7.098   4.655  20.460  0.00  0.00    +0.000 HD
ENDBRANCH   1  22
TORSDOF 3
ENDMDL
MODEL 4
REMARK VINA RESULT:      -7.2      1.007      1.272
REMARK  Name = 
REMARK  4 active torsions:
REMARK  status: ('A' for Active; 'I' for Inactive)
REMARK    1  A    between atoms: C_1  and  N_2
REMARK    2  A    between atoms: N_2  and  C_3
REMARK    3  A    between atoms: C_6  and  C_7
REMARK    4  A    between atoms: C_11  and  C_12
REMARK                            x       y       z     vdW  Elec       q    Type
REMARK                         _______ _______ _______ _____ _____    ______ ____
ROOT
ATOM      1  C   UNL     1       7.558   6.444  17.229  0.00  0.00    +0.000 C 
ATOM      2  C   UNL     1       7.272   5.970  18.675  0.00  0.00    +0.000 C 
ATOM      3  C   UNL     1       6.966   4.488  18.822  0.00  0.00    +0.000 C 
ATOM      4  C   UNL     1       5.876   4.029  17.850  0.00  0.00    +0.000 C 
ATOM      5  C   UNL     1       6.292   4.351  16.429  0.00  0.00    +0.000 A 
ATOM      6  C   UNL     1       5.830   3.521  15.391  0.00  0.00    +0.000 A 
ATOM      7  C   UNL     1       6.141   3.803  14.066  0.00  0.00    +0.000 A 
ATOM      8  C   UNL     1       6.917   4.913  13.763  0.00  0.00    +0.000 A 
ATOM      9  C   UNL     1       7.383   5.748  14.789  0.00  0.00    +0.000 A 
ATOM     10  C   UNL     1       7.066   5.493  16.137  0.00  0.00    +0.000 A 
ENDROOT
BRANCH   4  11
ATOM     11  C   UNL     1       4.470   4.526  18.183  0.00  0.00    +0.000 A 
ATOM     12  C   UNL     1       4.087   5.826  17.821  0.00  0.00    +0.000 A 
ATOM     13  C   UNL     1       2.839   6.333  18.199  0.00  0.00    +0.000 A 
ATOM     14  C   UNL     1       1.954   5.549  18.935  0.00  0.00    +0.000 A 
ATOM     15  C   UNL     1       2.296   4.240  19.290  0.00  0.00    +0.000 A 
ATOM     16  C   UNL     1       3.548   3.741  18.899  0.00  0.00    +0.000 A 
BRANCH  15  17
ATOM     17  C   UNL     1       1.369   3.366  20.099  0.00  0.00    +0.000 C 
ATOM     18  F   UNL     1       0.174   3.128  19.487  0.00  0.00    +0.000 F 
ATOM     19  F   UNL     1       1.896   2.137  20.363  0.00  0.00    +0.000 F 
ATOM     20  F   UNL     1       1.058   3.908  21.311  0.00  0.00    +0.000 F 
ENDBRANCH  15  17
ENDBRANCH   4  11
BRANCH   1  22
ATOM     21  C   UNL     1       7.725   8.863  17.668  0.00  0.00    +0.000 C 
ATOM     22  N   UNL     1       6.955   7.780  17.068  0.00  0.00    +0.000 NA
ATOM     23  H   UNL     1       6.797   7.985  16.084  0.00  0.00    +0.000 HD
ENDBRANCH   1  22
TORSDOF 3
ENDMDL
MODEL 5
REMARK VINA RESULT:      -7.2      1.138      1.521
REMARK  Name = 
REMARK  4 active torsions:
REMARK  status: ('A' for Active; 'I' for Inactive)
REMARK    1  A    between atoms: C_1  and  N_2
REMARK    2  A    between atoms: N_2  and  C_3
REMARK    3  A    between atoms: C_6  and  C_7
REMARK    4  A    between atoms: C_11  and  C_12
REMARK                            x       y       z     vdW  Elec       q    Type
REMARK                         _______ _______ _______ _____ _____    ______ ____
ROOT
ATOM      1  C   UNL     1       7.524   6.078  17.430  0.00  0.00    +0.000 C 
ATOM      2  C   UNL     1       7.022   6.153  18.893  0.00  0.00    +0.000 C 
ATOM      3  C   UNL     1       6.028   5.075  19.292  0.00  0.00    +0.000 C 
ATOM      4  C   UNL     1       4.866   4.970  18.300  0.00  0.00    +0.000 C 
ATOM      5  C   UNL     1       5.408   4.710  16.908  0.00  0.00    +0.000 A 
ATOM      6  C   UNL     1       4.613   3.978  16.006  0.00  0.00    +0.000 A 
ATOM      7  C   UNL     1       5.041   3.757  14.703  0.00  0.00    +0.000 A 
ATOM      8  C   UNL     1       6.266   4.261  14.287  0.00  0.00    +0.000 A 
ATOM      9  C   UNL     1       7.066   4.991  15.176  0.00  0.00    +0.000 A 
ATOM     10  C   UNL     1       6.645   5.244  16.496  0.00  0.00    +0.000 A 
ENDROOT
BRANCH   4  11
ATOM     11  C   UNL     1       3.879   6.136  18.343  0.00  0.00    +0.000 A 
ATOM     12  C   UNL     1       3.841   7.055  17.286  0.00  0.00    +0.000 A 
ATOM     13  C   UNL     1       3.013   8.182  17.350  0.00  0.00    +0.000 A 
ATOM     14  C   UNL     1       2.206   8.400  18.464  0.00  0.00    +0.000 A 
ATOM     15  C   UNL     1       2.203   7.487  19.525  0.00  0.00    +0.000 A 
ATOM     16  C   UNL     1       3.034   6.360  19.445  0.00  0.00    +0.000 A 
BRANCH  15  17
ATOM     17  C   UNL     1       1.354   7.699  20.755  0.00  0.00    +0.000 C 
ATOM     18  F   UNL     1       2.023   8.295  21.782  0.00  0.00    +0.000 F 
ATOM     19  F   UNL     1       0.268   8.487  20.517  0.00  0.00    +0.000 F 
ATOM     20  F   UNL     1       0.865   6.532  21.264  0.00  0.00    +0.000 F 
ENDBRANCH  15  17
ENDBRANCH   4  11
BRANCH   1  22
ATOM     21  C   UNL     1       8.027   8.433  17.948  0.00  0.00    +0.000 C 
ATOM     22  N   UNL     1       7.655   7.458  16.930  0.00  0.00    +0.000 NA
ATOM     23  H   UNL     1       8.325   7.500  16.165  0.00  0.00    +0.000 HD
ENDBRANCH   1  22
TORSDOF 3
ENDMDL
MODEL 6
REMARK VINA RESULT:      -7.2      1.879      2.702
REMARK  Name = 
REMARK  4 active torsions:
REMARK  status: ('A' for Active; 'I' for Inactive)
REMARK    1  A    between atoms: C_1  and  N_2
REMARK    2  A    between atoms: N_2  and  C_3
REMARK    3  A    between atoms: C_6  and  C_7
REMARK    4  A    between atoms: C_11  and  C_12
REMARK                            x       y       z     vdW  Elec       q    Type
REMARK                         _______ _______ _______ _____ _____    ______ ____
ROOT
ATOM      1  C   UNL     1       5.101   6.825  17.450  0.00  0.00    +0.000 C 
ATOM      2  C   UNL     1       5.192   6.332  18.915  0.00  0.00    +0.000 C 
ATOM      3  C   UNL     1       6.021   5.075  19.124  0.00  0.00    +0.000 C 
ATOM      4  C   UNL     1       5.606   3.949  18.173  0.00  0.00    +0.000 C 
ATOM      5  C   UNL     1       5.714   4.429  16.739  0.00  0.00    +0.000 A 
ATOM      6  C   UNL     1       6.006   3.485  15.737  0.00  0.00    +0.000 A 
ATOM      7  C   UNL     1       6.065   3.864  14.402  0.00  0.00    +0.000 A 
ATOM      8  C   UNL     1       5.835   5.187  14.052  0.00  0.00    +0.000 A 
ATOM      9  C   UNL     1       5.543   6.137  15.041  0.00  0.00    +0.000 A 
ATOM     10  C   UNL     1       5.460   5.773  16.399  0.00  0.00    +0.000 A 
ENDROOT
BRANCH   4  11
ATOM     11  C   UNL     1       4.252   3.314  18.485  0.00  0.00    +0.000 A 
ATOM     12  C   UNL     1       3.676   2.418  17.573  0.00  0.00    +0.000 A 
ATOM     13  C   UNL     1       2.396   1.899  17.794  0.00  0.00    +0.000 A 
ATOM     14  C   UNL     1       1.677   2.259  18.931  0.00  0.00    +0.000 A 
ATOM     15  C   UNL     1       2.235   3.131  19.874  0.00  0.00    +0.000 A 
ATOM     16  C   UNL     1       3.521   3.639  19.642  0.00  0.00    +0.000 A 
BRANCH  15  17
ATOM     17  C   UNL     1       1.480   3.555  21.111  0.00  0.00    +0.000 C 
ATOM     18  F   UNL     1       0.488   4.456  20.860  0.00  0.00    +0.000 F 
ATOM     19  F   UNL     1       0.876   2.510  21.745  0.00  0.00    +0.000 F 
ATOM     20  F   UNL     1       2.283   4.144  22.041  0.00  0.00    +0.000 F 
ENDBRANCH  15  17
ENDBRANCH   4  11
BRANCH   1  22
ATOM     21  C   UNL     1       2.779   6.946  18.263  0.00  0.00    +0.000 C 
ATOM     22  N   UNL     1       3.735   7.334  17.233  0.00  0.00    +0.000 NA
ATOM     23  H   UNL     1       3.741   8.348  17.146  0.00  0.00    +0.000 HD
ENDBRANCH   1  22
TORSDOF 3
ENDMDL
MODEL 7
REMARK VINA RESULT:      -7.2      1.790      2.332
REMARK  Name = 
REMARK  4 active torsions:
REMARK  status: ('A' for Active; 'I' for Inactive)
REMARK    1  A    between atoms: C_1  and  N_2
REMARK    2  A    between atoms: N_2  and  C_3
REMARK    3  A    between atoms: C_6  and  C_7
REMARK    4  A    between atoms: C_11  and  C_12
REMARK                            x       y       z     vdW  Elec       q    Type
REMARK                         _______ _______ _______ _____ _____    ______ ____
ROOT
ATOM      1  C   UNL     1       7.336   6.248  17.319  0.00  0.00    +0.000 C 
ATOM      2  C   UNL     1       6.838   5.765  18.703  0.00  0.00    +0.000 C 
ATOM      3  C   UNL     1       6.420   4.305  18.767  0.00  0.00    +0.000 C 
ATOM      4  C   UNL     1       5.435   3.940  17.652  0.00  0.00    +0.000 C 
ATOM      5  C   UNL     1       6.051   4.262  16.305  0.00  0.00    +0.000 A 
ATOM      6  C   UNL     1       5.672   3.487  15.194  0.00  0.00    +0.000 A 
ATOM      7  C   UNL     1       6.168   3.774  13.927  0.00  0.00    +0.000 A 
ATOM      8  C   UNL     1       7.047   4.835  13.757  0.00  0.00    +0.000 A 
ATOM      9  C   UNL     1       7.431   5.614  14.857  0.00  0.00    +0.000 A 
ATOM     10  C   UNL     1       6.928   5.355  16.146  0.00  0.00    +0.000 A 
ENDROOT
BRANCH   4  11
ATOM     11  C   UNL     1       4.034   4.526  17.819  0.00  0.00    +0.000 A 
ATOM     12  C   UNL     1       2.913   3.690  17.714  0.00  0.00    +0.000 A 
ATOM     13  C   UNL     1       1.620   4.221  17.768  0.00  0.00    +0.000 A 
ATOM     14  C   UNL     1       1.427   5.590  17.936  0.00  0.00    +0.000 A 
ATOM     15  C   UNL     1       2.525   6.448  18.070  0.00  0.00    +0.000 A 
ATOM     16  C   UNL     1       3.816   5.901  18.019  0.00  0.00    +0.000 A 
BRANCH  15  17
ATOM     17  C   UNL     1       2.355   7.938  18.239  0.00  0.00    +0.000 C 
ATOM     18  F   UNL     1       2.073   8.311  19.520  0.00  0.00    +0.000 F 
ATOM     19  F   UNL     1       3.470   8.640  17.890  0.00  0.00    +0.000 F 
ATOM     20  F   UNL     1       1.342   8.442  17.479  0.00  0.00    +0.000 F 
ENDBRANCH  15  17
ENDBRANCH   4  11
BRANCH   1  22
ATOM     21  C   UNL     1       7.728   8.657  17.656  0.00  0.00    +0.000 C 
ATOM     22  N   UNL     1       6.847   7.624  17.122  0.00  0.00    +0.000 NA
ATOM     23  H   UNL     1       6.678   7.805  16.135  0.00  0.00    +0.000 HD
ENDBRANCH   1  22
TORSDOF 3
ENDMDL
MODEL 8
REMARK VINA RESULT:      -7.1      1.859      2.450
REMARK  Name = 
REMARK  4 active torsions:
REMARK  status: ('A' for Active; 'I' for Inactive)
REMARK    1  A    between atoms: C_1  and  N_2
REMARK    2  A    between atoms: N_2  and  C_3
REMARK    3  A    between atoms: C_6  and  C_7
REMARK    4  A    between atoms: C_11  and  C_12
REMARK                            x       y       z     vdW  Elec       q    Type
REMARK                         _______ _______ _______ _____ _____    ______ ____
ROOT
ATOM      1  C   UNL     1       7.561   6.449  17.457  0.00  0.00    +0.000 C 
ATOM      2  C   UNL     1       7.422   6.147  18.970  0.00  0.00    +0.000 C 
ATOM      3  C   UNL     1       6.932   4.748  19.308  0.00  0.00    +0.000 C 
ATOM      4  C   UNL     1       5.659   4.385  18.538  0.00  0.00    +0.000 C 
ATOM      5  C   UNL     1       5.909   4.519  17.049  0.00  0.00    +0.000 A 
ATOM      6  C   UNL     1       5.188   3.688  16.172  0.00  0.00    +0.000 A 
ATOM      7  C   UNL     1       5.342   3.808  14.796  0.00  0.00    +0.000 A 
ATOM      8  C   UNL     1       6.217   4.754  14.281  0.00  0.00    +0.000 A 
ATOM      9  C   UNL     1       6.940   5.588  15.146  0.00  0.00    +0.000 A 
ATOM     10  C   UNL     1       6.787   5.499  16.543  0.00  0.00    +0.000 A 
ENDROOT
BRANCH   4  11
ATOM     11  C   UNL     1       4.401   5.121  18.997  0.00  0.00    +0.000 A 
ATOM     12  C   UNL     1       3.630   4.597  20.044  0.00  0.00    +0.000 A 
ATOM     13  C   UNL     1       2.425   5.203  20.415  0.00  0.00    +0.000 A 
ATOM     14  C   UNL     1       1.978   6.345  19.754  0.00  0.00    +0.000 A 
ATOM     15  C   UNL     1       2.737   6.907  18.722  0.00  0.00    +0.000 A 
ATOM     16  C   UNL     1       3.946   6.292  18.363  0.00  0.00    +0.000 A 
BRANCH  15  17
ATOM     17  C   UNL     1       2.278   8.135  17.973  0.00  0.00    +0.000 C 
ATOM     18  F   UNL     1       1.050   7.993  17.398  0.00  0.00    +0.000 F 
ATOM     19  F   UNL     1       2.185   9.236  18.771  0.00  0.00    +0.000 F 
ATOM     20  F   UNL     1       3.121   8.478  16.958  0.00  0.00    +0.000 F 
ENDBRANCH  15  17
ENDBRANCH   4  11
BRANCH   1  22
ATOM     21  C   UNL     1       8.018   8.840  17.841  0.00  0.00    +0.000 C 
ATOM     22  N   UNL     1       7.139   7.844  17.239  0.00  0.00    +0.000 NA
ATOM     23  H   UNL     1       7.044   8.037  16.244  0.00  0.00    +0.000 HD
ENDBRANCH   1  22
TORSDOF 3
ENDMDL
MODEL 9
REMARK VINA RESULT:      -7.0      2.868      4.235
REMARK  Name = 
REMARK  4 active torsions:
REMARK  status: ('A' for Active; 'I' for Inactive)
REMARK    1  A    between atoms: C_1  and  N_2
REMARK    2  A    between atoms: N_2  and  C_3
REMARK    3  A    between atoms: C_6  and  C_7
REMARK    4  A    between atoms: C_11  and  C_12
REMARK                            x       y       z     vdW  Elec       q    Type
REMARK                         _______ _______ _______ _____ _____    ______ ____
ROOT
ATOM      1  C   UNL     1       4.944   3.347  18.366  0.00  0.00    +0.000 C 
ATOM      2  C   UNL     1       3.425   3.300  18.071  0.00  0.00    +0.000 C 
ATOM      3  C   UNL     1       2.927   4.335  17.075  0.00  0.00    +0.000 C 
ATOM      4  C   UNL     1       3.389   5.749  17.437  0.00  0.00    +0.000 C 
ATOM      5  C   UNL     1       4.902   5.781  17.531  0.00  0.00    +0.000 A 
ATOM      6  C   UNL     1       5.566   6.983  17.222  0.00  0.00    +0.000 A 
ATOM      7  C   UNL     1       6.947   7.080  17.343  0.00  0.00    +0.000 A 
ATOM      8  C   UNL     1       7.679   5.980  17.769  0.00  0.00    +0.000 A 
ATOM      9  C   UNL     1       7.028   4.778  18.079  0.00  0.00    +0.000 A 
ATOM     10  C   UNL     1       5.628   4.661  17.983  0.00  0.00    +0.000 A 
ENDROOT
BRANCH   4  11
ATOM     11  C   UNL     1       2.706   6.352  18.665  0.00  0.00    +0.000 A 
ATOM     12  C   UNL     1       2.461   5.551  19.788  0.00  0.00    +0.000 A 
ATOM     13  C   UNL     1       1.753   6.057  20.884  0.00  0.00    +0.000 A 
ATOM     14  C   UNL     1       1.289   7.369  20.877  0.00  0.00    +0.000 A 
ATOM     15  C   UNL     1       1.540   8.202  19.781  0.00  0.00    +0.000 A 
ATOM     16  C   UNL     1       2.255   7.684  18.692  0.00  0.00    +0.000 A 
BRANCH  15  17
ATOM     17  C   UNL     1       1.040   9.626  19.731  0.00  0.00    +0.000 C 
ATOM     18  F   UNL     1       1.598  10.364  18.730  0.00  0.00    +0.000 F 
ATOM     19  F   UNL     1      -0.307   9.706  19.540  0.00  0.00    +0.000 F 
ATOM     20  F   UNL     1       1.296  10.314  20.880  0.00  0.00    +0.000 F 
ENDBRANCH  15  17
ENDBRANCH   4  11
BRANCH   1  22
ATOM     21  C   UNL     1       4.052   2.287  20.403  0.00  0.00    +0.000 C 
ATOM     22  N   UNL     1       5.131   3.060  19.800  0.00  0.00    +0.000 NA
ATOM     23  H   UNL     1       6.015   2.581  19.956  0.00  0.00    +0.000 HD
ENDBRANCH   1  22
TORSDOF 3
ENDMDL
