MODEL 1
REMARK VINA RESULT:      -8.1      0.000      0.000
REMARK  Name = 
REMARK  4 active torsions:
REMARK  status: ('A' for Active; 'I' for Inactive)
REMARK    1  A    between atoms: C_2  and  C_3
REMARK    2  A    between atoms: C_3  and  C_4
REMARK    3  A    between atoms: N_11  and  S_12
REMARK    4  A    between atoms: S_12  and  C_15
REMARK                            x       y       z     vdW  Elec       q    Type
REMARK                         _______ _______ _______ _____ _____    ______ ____
ROOT
ATOM      1  O   UNL     1       5.363   3.833  18.328  0.00  0.00    +0.000 OA
ATOM      2  C   UNL     1       4.824   4.753  17.728  0.00  0.00    +0.000 C 
ATOM      3  N   UNL     1       5.502   5.569  16.809  0.00  0.00    +0.000 N 
ATOM      4  H   UNL     1       5.041   6.344  16.344  0.00  0.00    +0.000 HD
ENDROOT
BRANCH   3   5
ATOM      5  S   UNL     1       7.094   5.400  16.358  0.00  0.00    +0.000 S 
ATOM      6  O   UNL     1       7.621   6.751  16.344  0.00  0.00    +0.000 OA
ATOM      7  O   UNL     1       7.722   4.369  17.151  0.00  0.00    +0.000 OA
BRANCH   5   8
ATOM      8  C   UNL     1       6.986   4.855  14.670  0.00  0.00    +0.000 A 
ATOM      9  C   UNL     1       6.048   3.879  14.314  0.00  0.00    +0.000 A 
ATOM     10  C   UNL     1       5.954   3.468  12.982  0.00  0.00    +0.000 A 
ATOM     11  C   UNL     1       6.784   4.037  12.015  0.00  0.00    +0.000 A 
ATOM     12  C   UNL     1       7.699   5.028  12.370  0.00  0.00    +0.000 A 
ATOM     13  C   UNL     1       7.796   5.447  13.699  0.00  0.00    +0.000 A 
ENDBRANCH   5   8
ENDBRANCH   3   5
BRANCH   2  14
ATOM     14  C   UNL     1       3.351   5.068  17.903  0.00  0.00    +0.000 C 
BRANCH  14  15
ATOM     15  C   UNL     1       2.683   4.331  19.039  0.00  0.00    +0.000 A 
ATOM     16  C   UNL     1       2.788   4.807  20.357  0.00  0.00    +0.000 A 
ATOM     17  C   UNL     1       2.122   4.157  21.400  0.00  0.00    +0.000 A 
ATOM     18  C   UNL     1       1.345   3.037  21.128  0.00  0.00    +0.000 A 
ATOM     19  F   UNL     1       0.701   2.422  22.128  0.00  0.00    +0.000 F 
ATOM     20  C   UNL     1       1.222   2.555  19.831  0.00  0.00    +0.000 A 
ATOM     21  C   UNL     1       1.888   3.200  18.787  0.00  0.00    +0.000 A 
ENDBRANCH  14  15
ENDBRANCH   2  14
TORSDOF 4
ENDMDL
MODEL 2
REMARK VINA RESULT:      -8.1      1.085      1.579
REMARK  Name = 
REMARK  4 active torsions:
REMARK  status: ('A' for Active; 'I' for Inactive)
REMARK    1  A    between atoms: C_2  and  C_3
REMARK    2  A    between atoms: C_3  and  C_4
REMARK    3  A    between atoms: N_11  and  S_12
REMARK    4  A    between atoms: S_12  and  C_15
REMARK                            x       y       z     vdW  Elec       q    Type
REMARK                         _______ _______ _______ _____ _____    ______ ____
ROOT
ATOM      1  O   UNL     1       5.617   6.505  18.678  0.00  0.00    +0.000 OA
ATOM      2  C   UNL     1       4.886   6.337  17.712  0.00  0.00    +0.000 C 
ATOM      3  N   UNL     1       5.339   5.814  16.490  0.00  0.00    +0.000 N 
ATOM      4  H   UNL     1       4.720   5.711  15.694  0.00  0.00    +0.000 HD
ENDROOT
BRANCH   3   5
ATOM      5  S   UNL     1       6.891   5.308  16.173  0.00  0.00    +0.000 S 
ATOM      6  O   UNL     1       7.686   6.521  16.179  0.00  0.00    +0.000 OA
ATOM      7  O   UNL     1       7.230   4.197  17.031  0.00  0.00    +0.000 OA
BRANCH   5   8
ATOM      8  C   UNL     1       6.801   4.742  14.491  0.00  0.00    +0.000 A 
ATOM      9  C   UNL     1       5.818   3.816  14.121  0.00  0.00    +0.000 A 
ATOM     10  C   UNL     1       5.740   3.388  12.795  0.00  0.00    +0.000 A 
ATOM     11  C   UNL     1       6.629   3.892  11.844  0.00  0.00    +0.000 A 
ATOM     12  C   UNL     1       7.590   4.834  12.211  0.00  0.00    +0.000 A 
ATOM     13  C   UNL     1       7.673   5.269  13.536  0.00  0.00    +0.000 A 
ENDBRANCH   5   8
ENDBRANCH   3   5
BRANCH   2  14
ATOM     14  C   UNL     1       3.403   6.649  17.767  0.00  0.00    +0.000 C 
BRANCH  14  15
ATOM     15  C   UNL     1       2.574   5.622  18.501  0.00  0.00    +0.000 A 
ATOM     16  C   UNL     1       2.062   4.503  17.824  0.00  0.00    +0.000 A 
ATOM     17  C   UNL     1       1.344   3.524  18.516  0.00  0.00    +0.000 A 
ATOM     18  C   UNL     1       1.141   3.657  19.884  0.00  0.00    +0.000 A 
ATOM     19  F   UNL     1       0.460   2.712  20.545  0.00  0.00    +0.000 F 
ATOM     20  C   UNL     1       1.644   4.753  20.574  0.00  0.00    +0.000 A 
ATOM     21  C   UNL     1       2.360   5.734  19.886  0.00  0.00    +0.000 A 
ENDBRANCH  14  15
ENDBRANCH   2  14
TORSDOF 4
ENDMDL
MODEL 3
REMARK VINA RESULT:      -8.1      0.135      1.092
REMARK  Name = 
REMARK  4 active torsions:
REMARK  status: ('A' for Active; 'I' for Inactive)
REMARK    1  A    between atoms: C_2  and  C_3
REMARK    2  A    between atoms: C_3  and  C_4
REMARK    3  A    between atoms: N_11  and  S_12
REMARK    4  A    between atoms: S_12  and  C_15
REMARK                            x       y       z     vdW  Elec       q    Type
REMARK                         _______ _______ _______ _____ _____    ______ ____
ROOT
ATOM      1  O   UNL     1       5.416   4.020  18.510  0.00  0.00    +0.000 OA
ATOM      2  C   UNL     1       4.804   4.764  17.755  0.00  0.00    +0.000 C 
ATOM      3  N   UNL     1       5.415   5.449  16.694  0.00  0.00    +0.000 N 
ATOM      4  H   UNL     1       4.892   6.083  16.099  0.00  0.00    +0.000 HD
ENDROOT
BRANCH   3   5
ATOM      5  S   UNL     1       7.017   5.335  16.266  0.00  0.00    +0.000 S 
ATOM      6  O   UNL     1       7.514   6.697  16.317  0.00  0.00    +0.000 OA
ATOM      7  O   UNL     1       7.655   4.286  17.027  0.00  0.00    +0.000 OA
BRANCH   5   8
ATOM      8  C   UNL     1       6.951   4.859  14.555  0.00  0.00    +0.000 A 
ATOM      9  C   UNL     1       7.826   5.450  13.635  0.00  0.00    +0.000 A 
ATOM     10  C   UNL     1       7.783   5.059  12.295  0.00  0.00    +0.000 A 
ATOM     11  C   UNL     1       6.881   4.077  11.882  0.00  0.00    +0.000 A 
ATOM     12  C   UNL     1       6.029   3.473  12.807  0.00  0.00    +0.000 A 
ATOM     13  C   UNL     1       6.069   3.857  14.149  0.00  0.00    +0.000 A 
ENDBRANCH   5   8
ENDBRANCH   3   5
BRANCH   2  14
ATOM     14  C   UNL     1       3.308   4.979  17.885  0.00  0.00    +0.000 C 
BRANCH  14  15
ATOM     15  C   UNL     1       2.669   4.258  19.047  0.00  0.00    +0.000 A 
ATOM     16  C   UNL     1       2.747   4.788  20.345  0.00  0.00    +0.000 A 
ATOM     17  C   UNL     1       2.105   4.151  21.410  0.00  0.00    +0.000 A 
ATOM     18  C   UNL     1       1.380   2.988  21.180  0.00  0.00    +0.000 A 
ATOM     19  F   UNL     1       0.760   2.384  22.202  0.00  0.00    +0.000 F 
ATOM     20  C   UNL     1       1.285   2.450  19.903  0.00  0.00    +0.000 A 
ATOM     21  C   UNL     1       1.926   3.083  18.836  0.00  0.00    +0.000 A 
ENDBRANCH  14  15
ENDBRANCH   2  14
TORSDOF 4
ENDMDL
MODEL 4
REMARK VINA RESULT:      -7.9      2.595      3.515
REMARK  Name = 
REMARK  4 active torsions:
REMARK  status: ('A' for Active; 'I' for Inactive)
REMARK    1  A    between atoms: C_2  and  C_3
REMARK    2  A    between atoms: C_3  and  C_4
REMARK    3  A    between atoms: N_11  and  S_12
REMARK    4  A    between atoms: S_12  and  C_15
REMARK                            x       y       z     vdW  Elec       q    Type
REMARK                         _______ _______ _______ _____ _____    ______ ____
ROOT
ATOM      1  O   UNL     1       3.841   5.188  17.486  0.00  0.00    +0.000 OA
ATOM      2  C   UNL     1       4.123   4.158  16.889  0.00  0.00    +0.000 C 
ATOM      3  N   UNL     1       5.105   4.099  15.888  0.00  0.00    +0.000 N 
ATOM      4  H   UNL     1       5.302   3.239  15.386  0.00  0.00    +0.000 HD
ENDROOT
BRANCH   3   5
ATOM      5  S   UNL     1       6.055   5.369  15.390  0.00  0.00    +0.000 S 
ATOM      6  O   UNL     1       7.004   4.784  14.464  0.00  0.00    +0.000 OA
ATOM      7  O   UNL     1       5.221   6.479  14.991  0.00  0.00    +0.000 OA
BRANCH   5   8
ATOM      8  C   UNL     1       6.952   5.810  16.860  0.00  0.00    +0.000 A 
ATOM      9  C   UNL     1       7.236   7.155  17.123  0.00  0.00    +0.000 A 
ATOM     10  C   UNL     1       7.924   7.498  18.289  0.00  0.00    +0.000 A 
ATOM     11  C   UNL     1       8.314   6.505  19.188  0.00  0.00    +0.000 A 
ATOM     12  C   UNL     1       8.007   5.168  18.934  0.00  0.00    +0.000 A 
ATOM     13  C   UNL     1       7.316   4.818  17.772  0.00  0.00    +0.000 A 
ENDBRANCH   5   8
ENDBRANCH   3   5
BRANCH   2  14
ATOM     14  C   UNL     1       3.452   2.837  17.211  0.00  0.00    +0.000 C 
BRANCH  14  15
ATOM     15  C   UNL     1       2.780   2.789  18.562  0.00  0.00    +0.000 A 
ATOM     16  C   UNL     1       3.539   2.616  19.731  0.00  0.00    +0.000 A 
ATOM     17  C   UNL     1       2.923   2.630  20.985  0.00  0.00    +0.000 A 
ATOM     18  C   UNL     1       1.550   2.822  21.075  0.00  0.00    +0.000 A 
ATOM     19  F   UNL     1       0.963   2.843  22.279  0.00  0.00    +0.000 F 
ATOM     20  C   UNL     1       0.781   3.001  19.932  0.00  0.00    +0.000 A 
ATOM     21  C   UNL     1       1.393   2.986  18.677  0.00  0.00    +0.000 A 
ENDBRANCH  14  15
ENDBRANCH   2  14
TORSDOF 4
ENDMDL
MODEL 5
REMARK VINA RESULT:      -7.8      1.275      1.910
REMARK  Name = 
REMARK  4 active torsions:
REMARK  status: ('A' for Active; 'I' for Inactive)
REMARK    1  A    between atoms: C_2  and  C_3
REMARK    2  A    between atoms: C_3  and  C_4
REMARK    3  A    between atoms: N_11  and  S_12
REMARK    4  A    between atoms: S_12  and  C_15
REMARK                            x       y       z     vdW  Elec       q    Type
REMARK                         _______ _______ _______ _____ _____    ______ ____
ROOT
ATOM      1  O   UNL     1       3.635   4.773  16.884  0.00  0.00    +0.000 OA
ATOM      2  C   UNL     1       4.221   3.709  17.034  0.00  0.00    +0.000 C 
ATOM      3  N   UNL     1       5.599   3.556  16.814  0.00  0.00    +0.000 N 
ATOM      4  H   UNL     1       6.058   2.657  16.918  0.00  0.00    +0.000 HD
ENDROOT
BRANCH   3   5
ATOM      5  S   UNL     1       6.646   4.768  16.369  0.00  0.00    +0.000 S 
ATOM      6  O   UNL     1       5.927   5.998  16.636  0.00  0.00    +0.000 OA
ATOM      7  O   UNL     1       7.947   4.531  16.951  0.00  0.00    +0.000 OA
BRANCH   5   8
ATOM      8  C   UNL     1       6.753   4.589  14.604  0.00  0.00    +0.000 A 
ATOM      9  C   UNL     1       7.681   5.350  13.883  0.00  0.00    +0.000 A 
ATOM     10  C   UNL     1       7.774   5.191  12.499  0.00  0.00    +0.000 A 
ATOM     11  C   UNL     1       6.954   4.271  11.844  0.00  0.00    +0.000 A 
ATOM     12  C   UNL     1       6.048   3.497  12.569  0.00  0.00    +0.000 A 
ATOM     13  C   UNL     1       5.952   3.647  13.954  0.00  0.00    +0.000 A 
ENDBRANCH   5   8
ENDBRANCH   3   5
BRANCH   2  14
ATOM     14  C   UNL     1       3.503   2.461  17.512  0.00  0.00    +0.000 C 
BRANCH  14  15
ATOM     15  C   UNL     1       2.789   2.617  18.833  0.00  0.00    +0.000 A 
ATOM     16  C   UNL     1       1.395   2.786  18.874  0.00  0.00    +0.000 A 
ATOM     17  C   UNL     1       0.728   2.871  20.100  0.00  0.00    +0.000 A 
ATOM     18  C   UNL     1       1.450   2.781  21.284  0.00  0.00    +0.000 A 
ATOM     19  F   UNL     1       0.806   2.855  22.456  0.00  0.00    +0.000 F 
ATOM     20  C   UNL     1       2.828   2.607  21.265  0.00  0.00    +0.000 A 
ATOM     21  C   UNL     1       3.498   2.524  20.043  0.00  0.00    +0.000 A 
ENDBRANCH  14  15
ENDBRANCH   2  14
TORSDOF 4
ENDMDL
MODEL 6
REMARK VINA RESULT:      -7.8      0.511      1.186
REMARK  Name = 
REMARK  4 active torsions:
REMARK  status: ('A' for Active; 'I' for Inactive)
REMARK    1  A    between atoms: C_2  and  C_3
REMARK    2  A    between atoms: C_3  and  C_4
REMARK    3  A    between atoms: N_11  and  S_12
REMARK    4  A    between atoms: S_12  and  C_15
REMARK                            x       y       z     vdW  Elec       q    Type
REMARK                         _______ _______ _______ _____ _____    ______ ____
ROOT
ATOM      1  O   UNL     1       4.757   3.184  17.250  0.00  0.00    +0.000 OA
ATOM      2  C   UNL     1       4.347   4.330  17.127  0.00  0.00    +0.000 C 
ATOM      3  N   UNL     1       5.171   5.403  16.752  0.00  0.00    +0.000 N 
ATOM      4  H   UNL     1       4.814   6.350  16.684  0.00  0.00    +0.000 HD
ENDROOT
BRANCH   3   5
ATOM      5  S   UNL     1       6.788   5.293  16.380  0.00  0.00    +0.000 S 
ATOM      6  O   UNL     1       7.277   6.656  16.445  0.00  0.00    +0.000 OA
ATOM      7  O   UNL     1       7.403   4.248  17.164  0.00  0.00    +0.000 OA
BRANCH   5   8
ATOM      8  C   UNL     1       6.782   4.814  14.668  0.00  0.00    +0.000 A 
ATOM      9  C   UNL     1       5.881   3.840  14.222  0.00  0.00    +0.000 A 
ATOM     10  C   UNL     1       5.867   3.480  12.873  0.00  0.00    +0.000 A 
ATOM     11  C   UNL     1       6.739   4.099  11.976  0.00  0.00    +0.000 A 
ATOM     12  C   UNL     1       7.619   5.087  12.420  0.00  0.00    +0.000 A 
ATOM     13  C   UNL     1       7.636   5.454  13.768  0.00  0.00    +0.000 A 
ENDBRANCH   5   8
ENDBRANCH   3   5
BRANCH   2  14
ATOM     14  C   UNL     1       2.886   4.683  17.335  0.00  0.00    +0.000 C 
BRANCH  14  15
ATOM     15  C   UNL     1       2.298   4.179  18.631  0.00  0.00    +0.000 A 
ATOM     16  C   UNL     1       1.453   3.057  18.641  0.00  0.00    +0.000 A 
ATOM     17  C   UNL     1       0.955   2.556  19.847  0.00  0.00    +0.000 A 
ATOM     18  C   UNL     1       1.306   3.168  21.043  0.00  0.00    +0.000 A 
ATOM     19  F   UNL     1       0.834   2.680  22.198  0.00  0.00    +0.000 F 
ATOM     20  C   UNL     1       2.145   4.275  21.057  0.00  0.00    +0.000 A 
ATOM     21  C   UNL     1       2.643   4.780  19.854  0.00  0.00    +0.000 A 
ENDBRANCH  14  15
ENDBRANCH   2  14
TORSDOF 4
ENDMDL
MODEL 7
REMARK VINA RESULT:      -7.8      1.298      1.573
REMARK  Name = 
REMARK  4 active torsions:
REMARK  status: ('A' for Active; 'I' for Inactive)
REMARK    1  A    between atoms: C_2  and  C_3
REMARK    2  A    between atoms: C_3  and  C_4
REMARK    3  A    between atoms: N_11  and  S_12
REMARK    4  A    between atoms: S_12  and  C_15
REMARK                            x       y       z     vdW  Elec       q    Type
REMARK                         _______ _______ _______ _____ _____    ______ ____
ROOT
ATOM      1  O   UNL     1       6.199   4.546  19.627  0.00  0.00    +0.000 OA
ATOM      2  C   UNL     1       5.462   5.300  19.007  0.00  0.00    +0.000 C 
ATOM      3  N   UNL     1       5.808   5.862  17.768  0.00  0.00    +0.000 N 
ATOM      4  H   UNL     1       5.191   6.508  17.286  0.00  0.00    +0.000 HD
ENDROOT
BRANCH   3   5
ATOM      5  S   UNL     1       7.218   5.573  16.937  0.00  0.00    +0.000 S 
ATOM      6  O   UNL     1       7.753   6.888  16.642  0.00  0.00    +0.000 OA
ATOM      7  O   UNL     1       8.011   4.593  17.642  0.00  0.00    +0.000 OA
BRANCH   5   8
ATOM      8  C   UNL     1       6.653   4.875  15.403  0.00  0.00    +0.000 A 
ATOM      9  C   UNL     1       5.372   4.316  15.324  0.00  0.00    +0.000 A 
ATOM     10  C   UNL     1       4.925   3.786  14.112  0.00  0.00    +0.000 A 
ATOM     11  C   UNL     1       5.750   3.826  12.986  0.00  0.00    +0.000 A 
ATOM     12  C   UNL     1       7.016   4.406  13.063  0.00  0.00    +0.000 A 
ATOM     13  C   UNL     1       7.468   4.941  14.271  0.00  0.00    +0.000 A 
ENDBRANCH   5   8
ENDBRANCH   3   5
BRANCH   2  14
ATOM     14  C   UNL     1       4.080   5.664  19.515  0.00  0.00    +0.000 C 
BRANCH  14  15
ATOM     15  C   UNL     1       3.030   4.602  19.291  0.00  0.00    +0.000 A 
ATOM     16  C   UNL     1       2.129   4.264  20.314  0.00  0.00    +0.000 A 
ATOM     17  C   UNL     1       1.121   3.322  20.086  0.00  0.00    +0.000 A 
ATOM     18  C   UNL     1       1.007   2.723  18.838  0.00  0.00    +0.000 A 
ATOM     19  F   UNL     1       0.035   1.828  18.621  0.00  0.00    +0.000 F 
ATOM     20  C   UNL     1       1.884   3.049  17.811  0.00  0.00    +0.000 A 
ATOM     21  C   UNL     1       2.894   3.987  18.034  0.00  0.00    +0.000 A 
ENDBRANCH  14  15
ENDBRANCH   2  14
TORSDOF 4
ENDMDL
MODEL 8
REMARK VINA RESULT:      -7.8      1.129      1.213
REMARK  Name = 
REMARK  4 active torsions:
REMARK  status: ('A' for Active; 'I' for Inactive)
REMARK    1  A    between atoms: C_2  and  C_3
REMARK    2  A    between atoms: C_3  and  C_4
REMARK    3  A    between atoms: N_11  and  S_12
REMARK    4  A    between atoms: S_12  and  C_15
REMARK                            x       y       z     vdW  Elec       q    Type
REMARK                         _______ _______ _______ _____ _____    ______ ____
ROOT
ATOM      1  O   UNL     1       4.627   4.830  18.421  0.00  0.00    +0.000 OA
ATOM      2  C   UNL     1       4.408   4.066  17.491  0.00  0.00    +0.000 C 
ATOM      3  N   UNL     1       5.149   4.078  16.299  0.00  0.00    +0.000 N 
ATOM      4  H   UNL     1       4.930   3.453  15.530  0.00  0.00    +0.000 HD
ENDROOT
BRANCH   3   5
ATOM      5  S   UNL     1       6.439   5.076  15.974  0.00  0.00    +0.000 S 
ATOM      6  O   UNL     1       5.900   6.419  16.056  0.00  0.00    +0.000 OA
ATOM      7  O   UNL     1       7.575   4.684  16.774  0.00  0.00    +0.000 OA
BRANCH   5   8
ATOM      8  C   UNL     1       6.788   4.748  14.262  0.00  0.00    +0.000 A 
ATOM      9  C   UNL     1       6.061   3.766  13.580  0.00  0.00    +0.000 A 
ATOM     10  C   UNL     1       6.326   3.526  12.230  0.00  0.00    +0.000 A 
ATOM     11  C   UNL     1       7.303   4.270  11.567  0.00  0.00    +0.000 A 
ATOM     12  C   UNL     1       8.008   5.265  12.244  0.00  0.00    +0.000 A 
ATOM     13  C   UNL     1       7.746   5.513  13.593  0.00  0.00    +0.000 A 
ENDBRANCH   5   8
ENDBRANCH   3   5
BRANCH   2  14
ATOM     14  C   UNL     1       3.330   3.002  17.567  0.00  0.00    +0.000 C 
BRANCH  14  15
ATOM     15  C   UNL     1       2.675   2.869  18.921  0.00  0.00    +0.000 A 
ATOM     16  C   UNL     1       3.418   2.440  20.033  0.00  0.00    +0.000 A 
ATOM     17  C   UNL     1       2.826   2.373  21.298  0.00  0.00    +0.000 A 
ATOM     18  C   UNL     1       1.495   2.739  21.454  0.00  0.00    +0.000 A 
ATOM     19  F   UNL     1       0.933   2.681  22.669  0.00  0.00    +0.000 F 
ATOM     20  C   UNL     1       0.744   3.172  20.369  0.00  0.00    +0.000 A 
ATOM     21  C   UNL     1       1.331   3.238  19.104  0.00  0.00    +0.000 A 
ENDBRANCH  14  15
ENDBRANCH   2  14
TORSDOF 4
ENDMDL
MODEL 9
REMARK VINA RESULT:      -7.8      1.080      1.584
REMARK  Name = 
REMARK  4 active torsions:
REMARK  status: ('A' for Active; 'I' for Inactive)
REMARK    1  A    between atoms: C_2  and  C_3
REMARK    2  A    between atoms: C_3  and  C_4
REMARK    3  A    between atoms: N_11  and  S_12
REMARK    4  A    between atoms: S_12  and  C_15
REMARK                            x       y       z     vdW  Elec       q    Type
REMARK                         _______ _______ _______ _____ _____    ______ ____
ROOT
ATOM      1  O   UNL     1       4.325   6.113  18.197  0.00  0.00    +0.000 OA
ATOM      2  C   UNL     1       3.972   5.227  17.431  0.00  0.00    +0.000 C 
ATOM      3  N   UNL     1       4.800   4.712  16.421  0.00  0.00    +0.000 N 
ATOM      4  H   UNL     1       4.475   3.997  15.780  0.00  0.00    +0.000 HD
ENDROOT
BRANCH   3   5
ATOM      5  S   UNL     1       6.370   5.174  16.132  0.00  0.00    +0.000 S 
ATOM      6  O   UNL     1       6.352   6.622  16.209  0.00  0.00    +0.000 OA
ATOM      7  O   UNL     1       7.270   4.400  16.955  0.00  0.00    +0.000 OA
BRANCH   5   8
ATOM      8  C   UNL     1       6.617   4.738  14.426  0.00  0.00    +0.000 A 
ATOM      9  C   UNL     1       7.662   5.325  13.703  0.00  0.00    +0.000 A 
ATOM     10  C   UNL     1       7.863   4.965  12.369  0.00  0.00    +0.000 A 
ATOM     11  C   UNL     1       7.033   4.018  11.768  0.00  0.00    +0.000 A 
ATOM     12  C   UNL     1       6.009   3.417  12.500  0.00  0.00    +0.000 A 
ATOM     13  C   UNL     1       5.803   3.770  13.835  0.00  0.00    +0.000 A 
ENDBRANCH   5   8
ENDBRANCH   3   5
BRANCH   2  14
ATOM     14  C   UNL     1       2.605   4.577  17.536  0.00  0.00    +0.000 C 
BRANCH  14  15
ATOM     15  C   UNL     1       2.365   3.828  18.825  0.00  0.00    +0.000 A 
ATOM     16  C   UNL     1       3.404   3.108  19.436  0.00  0.00    +0.000 A 
ATOM     17  C   UNL     1       3.196   2.463  20.659  0.00  0.00    +0.000 A 
ATOM     18  C   UNL     1       1.953   2.542  21.275  0.00  0.00    +0.000 A 
ATOM     19  F   UNL     1       1.760   1.930  22.451  0.00  0.00    +0.000 F 
ATOM     20  C   UNL     1       0.913   3.254  20.691  0.00  0.00    +0.000 A 
ATOM     21  C   UNL     1       1.117   3.898  19.469  0.00  0.00    +0.000 A 
ENDBRANCH  14  15
ENDBRANCH   2  14
TORSDOF 4
ENDMDL
