MODEL 1
REMARK VINA RESULT:      -8.1      0.000      0.000
REMARK  Name = 
REMARK  6 active torsions:
REMARK  status: ('A' for Active; 'I' for Inactive)
REMARK    1  A    between atoms: C_1  and  O_2
REMARK    2  A    between atoms: O_2  and  C_3
REMARK    3  A    between atoms: C_6  and  C_7
REMARK    4  A    between atoms: C_12  and  C_13
REMARK    5  A    between atoms: C_22  and  O_23
REMARK    6  A    between atoms: O_23  and  C_24
REMARK                            x       y       z     vdW  Elec       q    Type
REMARK                         _______ _______ _______ _____ _____    ______ ____
ROOT
ATOM      1  C   UNL     1       4.304   3.876  18.217  0.00  0.00    +0.000 A 
ATOM      2  N   UNL     1       4.089   2.631  18.640  0.00  0.00    +0.000 NA
ATOM      3  N   UNL     1       3.169   2.652  19.678  0.00  0.00    +0.000 NA
ATOM      4  C   UNL     1       2.845   3.901  19.829  0.00  0.00    +0.000 A 
ATOM      5  S   UNL     1       1.800   4.814  20.820  0.00  0.00    +0.000 S 
ATOM      6  C   UNL     1       2.320   6.225  19.868  0.00  0.00    +0.000 A 
ATOM      7  N   UNL     1       3.202   6.041  18.923  0.00  0.00    +0.000 NA
ATOM      8  N   UNL     1       3.482   4.705  18.944  0.00  0.00    +0.000 N 
ENDROOT
BRANCH   1  12
ATOM      9  C   UNL     1       6.977   5.096  15.093  0.00  0.00    +0.000 A 
ATOM     10  C   UNL     1       6.100   4.014  14.916  0.00  0.00    +0.000 A 
ATOM     11  C   UNL     1       5.228   3.622  15.937  0.00  0.00    +0.000 A 
ATOM     12  C   UNL     1       5.228   4.286  17.164  0.00  0.00    +0.000 A 
ATOM     13  C   UNL     1       6.158   5.315  17.360  0.00  0.00    +0.000 A 
ATOM     14  C   UNL     1       7.039   5.722  16.345  0.00  0.00    +0.000 A 
BRANCH   9  16
ATOM     15  C   UNL     1       7.549   4.945  12.799  0.00  0.00    +0.000 C 
ATOM     16  O   UNL     1       7.796   5.518  14.082  0.00  0.00    +0.000 OA
ENDBRANCH   9  16
BRANCH  14  17
ATOM     17  O   UNL     1       7.854   6.741  16.763  0.00  0.00    +0.000 OA
ATOM     18  C   UNL     1       7.297   7.810  17.507  0.00  0.00    +0.000 C 
ENDBRANCH  14  17
ENDBRANCH   1  12
BRANCH   6  19
ATOM     19  C   UNL     1       1.732   7.499  20.170  0.00  0.00    +0.000 A 
ATOM     20  C   UNL     1       1.636   8.657  19.417  0.00  0.00    +0.000 A 
ATOM     21  C   UNL     1       0.950   9.608  20.213  0.00  0.00    +0.000 A 
ATOM     22  C   UNL     1       0.677   8.981  21.407  0.00  0.00    +0.000 A 
ATOM     23 BR   UNL     1      -0.209   9.753  22.854  0.00  0.00    +0.000 Br
ATOM     24  O   UNL     1       1.144   7.706  21.388  0.00  0.00    +0.000 OA
ENDBRANCH   6  19
TORSDOF 4
ENDMDL
MODEL 2
REMARK VINA RESULT:      -8.0      1.103      1.216
REMARK  Name = 
REMARK  6 active torsions:
REMARK  status: ('A' for Active; 'I' for Inactive)
REMARK    1  A    between atoms: C_1  and  O_2
REMARK    2  A    between atoms: O_2  and  C_3
REMARK    3  A    between atoms: C_6  and  C_7
REMARK    4  A    between atoms: C_12  and  C_13
REMARK    5  A    between atoms: C_22  and  O_23
REMARK    6  A    between atoms: O_23  and  C_24
REMARK                            x       y       z     vdW  Elec       q    Type
REMARK                         _______ _______ _______ _____ _____    ______ ____
ROOT
ATOM      1  C   UNL     1       4.282   3.960  18.240  0.00  0.00    +0.000 A 
ATOM      2  N   UNL     1       4.049   2.722  18.673  0.00  0.00    +0.000 NA
ATOM      3  N   UNL     1       3.124   2.763  19.706  0.00  0.00    +0.000 NA
ATOM      4  C   UNL     1       2.816   4.017  19.845  0.00  0.00    +0.000 A 
ATOM      5  S   UNL     1       1.779   4.952  20.824  0.00  0.00    +0.000 S 
ATOM      6  C   UNL     1       2.321   6.348  19.863  0.00  0.00    +0.000 A 
ATOM      7  N   UNL     1       3.205   6.145  18.923  0.00  0.00    +0.000 NA
ATOM      8  N   UNL     1       3.467   4.806  18.956  0.00  0.00    +0.000 N 
ENDROOT
BRANCH   1  12
ATOM      9  C   UNL     1       6.984   5.116  15.117  0.00  0.00    +0.000 A 
ATOM     10  C   UNL     1       6.161   3.986  14.983  0.00  0.00    +0.000 A 
ATOM     11  C   UNL     1       5.279   3.615  16.003  0.00  0.00    +0.000 A 
ATOM     12  C   UNL     1       5.215   4.350  17.188  0.00  0.00    +0.000 A 
ATOM     13  C   UNL     1       6.092   5.430  17.344  0.00  0.00    +0.000 A 
ATOM     14  C   UNL     1       6.983   5.817  16.329  0.00  0.00    +0.000 A 
BRANCH   9  16
ATOM     15  C   UNL     1       7.537   4.958  12.818  0.00  0.00    +0.000 C 
ATOM     16  O   UNL     1       7.811   5.515  14.102  0.00  0.00    +0.000 OA
ENDBRANCH   9  16
BRANCH  14  17
ATOM     17  O   UNL     1       7.739   6.896  16.706  0.00  0.00    +0.000 OA
ATOM     18  C   UNL     1       7.833   7.228  18.080  0.00  0.00    +0.000 C 
ENDBRANCH  14  17
ENDBRANCH   1  12
BRANCH   6  19
ATOM     19  C   UNL     1       1.749   7.632  20.152  0.00  0.00    +0.000 A 
ATOM     20  C   UNL     1       1.181   8.135  21.310  0.00  0.00    +0.000 A 
ATOM     21  C   UNL     1       0.784   9.466  21.028  0.00  0.00    +0.000 A 
ATOM     22  C   UNL     1       1.122   9.695  19.714  0.00  0.00    +0.000 A 
ATOM     23 BR   UNL     1       0.829  11.285  18.787  0.00  0.00    +0.000 Br
ATOM     24  O   UNL     1       1.707   8.594  19.179  0.00  0.00    +0.000 OA
ENDBRANCH   6  19
TORSDOF 4
ENDMDL
MODEL 3
REMARK VINA RESULT:      -7.5      3.308      7.520
REMARK  Name = 
REMARK  6 active torsions:
REMARK  status: ('A' for Active; 'I' for Inactive)
REMARK    1  A    between atoms: C_1  and  O_2
REMARK    2  A    between atoms: O_2  and  C_3
REMARK    3  A    between atoms: C_6  and  C_7
REMARK    4  A    between atoms: C_12  and  C_13
REMARK    5  A    between atoms: C_22  and  O_23
REMARK    6  A    between atoms: O_23  and  C_24
REMARK                            x       y       z     vdW  Elec       q    Type
REMARK                         _______ _______ _______ _____ _____    ______ ____
ROOT
ATOM      1  C   UNL     1       2.272   6.205  19.922  0.00  0.00    +0.000 A 
ATOM      2  N   UNL     1       1.893   5.342  20.864  0.00  0.00    +0.000 NA
ATOM      3  N   UNL     1       2.459   4.102  20.606  0.00  0.00    +0.000 NA
ATOM      4  C   UNL     1       3.174   4.264  19.533  0.00  0.00    +0.000 A 
ATOM      5  S   UNL     1       4.195   3.315  18.552  0.00  0.00    +0.000 S 
ATOM      6  C   UNL     1       4.497   4.804  17.627  0.00  0.00    +0.000 A 
ATOM      7  N   UNL     1       3.881   5.895  17.995  0.00  0.00    +0.000 NA
ATOM      8  N   UNL     1       3.130   5.540  19.077  0.00  0.00    +0.000 N 
ENDROOT
BRANCH   1  12
ATOM      9  C   UNL     1       1.042  10.298  19.574  0.00  0.00    +0.000 A 
ATOM     10  C   UNL     1       1.479   9.574  18.453  0.00  0.00    +0.000 A 
ATOM     11  C   UNL     1       1.877   8.238  18.571  0.00  0.00    +0.000 A 
ATOM     12  C   UNL     1       1.867   7.603  19.813  0.00  0.00    +0.000 A 
ATOM     13  C   UNL     1       1.502   8.353  20.938  0.00  0.00    +0.000 A 
ATOM     14  C   UNL     1       1.099   9.695  20.837  0.00  0.00    +0.000 A 
BRANCH   9  16
ATOM     15  C   UNL     1      -0.795  11.753  19.220  0.00  0.00    +0.000 C 
ATOM     16  O   UNL     1       0.603  11.588  19.457  0.00  0.00    +0.000 OA
ENDBRANCH   9  16
BRANCH  14  17
ATOM     17  O   UNL     1       0.790  10.223  22.063  0.00  0.00    +0.000 OA
ATOM     18  C   UNL     1      -0.333   9.723  22.767  0.00  0.00    +0.000 C 
ENDBRANCH  14  17
ENDBRANCH   1  12
BRANCH   6  19
ATOM     19  C   UNL     1       5.419   4.744  16.528  0.00  0.00    +0.000 A 
ATOM     20  C   UNL     1       6.725   5.188  16.412  0.00  0.00    +0.000 A 
ATOM     21  C   UNL     1       7.154   4.861  15.101  0.00  0.00    +0.000 A 
ATOM     22  C   UNL     1       6.084   4.247  14.491  0.00  0.00    +0.000 A 
ATOM     23 BR   UNL     1       6.063   3.604  12.742  0.00  0.00    +0.000 Br
ATOM     24  O   UNL     1       5.033   4.170  15.347  0.00  0.00    +0.000 OA
ENDBRANCH   6  19
TORSDOF 4
ENDMDL
MODEL 4
REMARK VINA RESULT:      -7.2      4.749      6.755
REMARK  Name = 
REMARK  6 active torsions:
REMARK  status: ('A' for Active; 'I' for Inactive)
REMARK    1  A    between atoms: C_1  and  O_2
REMARK    2  A    between atoms: O_2  and  C_3
REMARK    3  A    between atoms: C_6  and  C_7
REMARK    4  A    between atoms: C_12  and  C_13
REMARK    5  A    between atoms: C_22  and  O_23
REMARK    6  A    between atoms: O_23  and  C_24
REMARK                            x       y       z     vdW  Elec       q    Type
REMARK                         _______ _______ _______ _____ _____    ______ ____
ROOT
ATOM      1  C   UNL     1       1.131   8.982  20.689  0.00  0.00    +0.000 A 
ATOM      2  N   UNL     1       1.399   9.570  21.854  0.00  0.00    +0.000 NA
ATOM      3  N   UNL     1       0.613  10.706  21.987  0.00  0.00    +0.000 NA
ATOM      4  C   UNL     1      -0.114  10.751  20.911  0.00  0.00    +0.000 A 
ATOM      5  S   UNL     1      -1.332  11.753  20.263  0.00  0.00    +0.000 S 
ATOM      6  C   UNL     1      -1.415  10.587  18.921  0.00  0.00    +0.000 A 
ATOM      7  N   UNL     1      -0.600   9.566  18.939  0.00  0.00    +0.000 NA
ATOM      8  N   UNL     1       0.129   9.706  20.084  0.00  0.00    +0.000 N 
ENDROOT
BRANCH   1  12
ATOM      9  C   UNL     1       3.048   5.477  19.131  0.00  0.00    +0.000 A 
ATOM     10  C   UNL     1       3.019   6.675  18.398  0.00  0.00    +0.000 A 
ATOM     11  C   UNL     1       2.395   7.816  18.912  0.00  0.00    +0.000 A 
ATOM     12  C   UNL     1       1.767   7.781  20.158  0.00  0.00    +0.000 A 
ATOM     13  C   UNL     1       1.735   6.563  20.848  0.00  0.00    +0.000 A 
ATOM     14  C   UNL     1       2.357   5.408  20.347  0.00  0.00    +0.000 A 
BRANCH   9  16
ATOM     15  C   UNL     1       5.104   4.320  18.912  0.00  0.00    +0.000 C 
ATOM     16  O   UNL     1       3.701   4.372  18.658  0.00  0.00    +0.000 OA
ENDBRANCH   9  16
BRANCH  14  17
ATOM     17  O   UNL     1       2.194   4.341  21.191  0.00  0.00    +0.000 OA
ATOM     18  C   UNL     1       1.228   3.353  20.878  0.00  0.00    +0.000 C 
ENDBRANCH  14  17
ENDBRANCH   1  12
BRANCH   6  19
ATOM     19  C   UNL     1      -2.386  10.811  17.888  0.00  0.00    +0.000 A 
ATOM     20  C   UNL     1      -3.558  11.547  17.886  0.00  0.00    +0.000 A 
ATOM     21  C   UNL     1      -4.120  11.421  16.591  0.00  0.00    +0.000 A 
ATOM     22  C   UNL     1      -3.265  10.609  15.881  0.00  0.00    +0.000 A 
ATOM     23 BR   UNL     1      -3.498  10.086  14.108  0.00  0.00    +0.000 Br
ATOM     24  O   UNL     1      -2.214  10.239  16.657  0.00  0.00    +0.000 OA
ENDBRANCH   6  19
TORSDOF 4
ENDMDL
MODEL 5
REMARK VINA RESULT:      -7.2      4.729      6.954
REMARK  Name = 
REMARK  6 active torsions:
REMARK  status: ('A' for Active; 'I' for Inactive)
REMARK    1  A    between atoms: C_1  and  O_2
REMARK    2  A    between atoms: O_2  and  C_3
REMARK    3  A    between atoms: C_6  and  C_7
REMARK    4  A    between atoms: C_12  and  C_13
REMARK    5  A    between atoms: C_22  and  O_23
REMARK    6  A    between atoms: O_23  and  C_24
REMARK                            x       y       z     vdW  Elec       q    Type
REMARK                         _______ _______ _______ _____ _____    ______ ____
ROOT
ATOM      1  C   UNL     1       0.907   9.511  20.564  0.00  0.00    +0.000 A 
ATOM      2  N   UNL     1       1.250  10.103  21.707  0.00  0.00    +0.000 NA
ATOM      3  N   UNL     1       0.433  11.204  21.917  0.00  0.00    +0.000 NA
ATOM      4  C   UNL     1      -0.385  11.226  20.907  0.00  0.00    +0.000 A 
ATOM      5  S   UNL     1      -1.693  12.181  20.375  0.00  0.00    +0.000 S 
ATOM      6  C   UNL     1      -1.843  11.021  19.034  0.00  0.00    +0.000 A 
ATOM      7  N   UNL     1      -0.989  10.034  18.974  0.00  0.00    +0.000 NA
ATOM      8  N   UNL     1      -0.171  10.197  20.053  0.00  0.00    +0.000 N 
ENDROOT
BRANCH   1  12
ATOM      9  C   UNL     1       2.824   6.097  18.815  0.00  0.00    +0.000 A 
ATOM     10  C   UNL     1       2.697   7.301  18.105  0.00  0.00    +0.000 A 
ATOM     11  C   UNL     1       2.073   8.412  18.680  0.00  0.00    +0.000 A 
ATOM     12  C   UNL     1       1.544   8.340  19.969  0.00  0.00    +0.000 A 
ATOM     13  C   UNL     1       1.607   7.114  20.643  0.00  0.00    +0.000 A 
ATOM     14  C   UNL     1       2.231   5.989  20.080  0.00  0.00    +0.000 A 
BRANCH   9  16
ATOM     15  C   UNL     1       4.447   5.318  17.274  0.00  0.00    +0.000 C 
ATOM     16  O   UNL     1       3.478   5.022  18.279  0.00  0.00    +0.000 OA
ENDBRANCH   9  16
BRANCH  14  17
ATOM     17  O   UNL     1       2.171   4.907  20.919  0.00  0.00    +0.000 OA
ATOM     18  C   UNL     1       1.198   3.903  20.684  0.00  0.00    +0.000 C 
ENDBRANCH  14  17
ENDBRANCH   1  12
BRANCH   6  19
ATOM     19  C   UNL     1      -2.907  11.211  18.089  0.00  0.00    +0.000 A 
ATOM     20  C   UNL     1      -3.006  10.870  16.751  0.00  0.00    +0.000 A 
ATOM     21  C   UNL     1      -4.285  11.295  16.313  0.00  0.00    +0.000 A 
ATOM     22  C   UNL     1      -4.888  11.878  17.404  0.00  0.00    +0.000 A 
ATOM     23 BR   UNL     1      -6.594  12.629  17.421  0.00  0.00    +0.000 Br
ATOM     24  O   UNL     1      -4.063  11.829  18.482  0.00  0.00    +0.000 OA
ENDBRANCH   6  19
TORSDOF 4
ENDMDL
MODEL 6
REMARK VINA RESULT:      -7.2      4.288      7.893
REMARK  Name = 
REMARK  6 active torsions:
REMARK  status: ('A' for Active; 'I' for Inactive)
REMARK    1  A    between atoms: C_1  and  O_2
REMARK    2  A    between atoms: O_2  and  C_3
REMARK    3  A    between atoms: C_6  and  C_7
REMARK    4  A    between atoms: C_12  and  C_13
REMARK    5  A    between atoms: C_22  and  O_23
REMARK    6  A    between atoms: O_23  and  C_24
REMARK                            x       y       z     vdW  Elec       q    Type
REMARK                         _______ _______ _______ _____ _____    ______ ____
ROOT
ATOM      1  C   UNL     1       5.523   5.071  17.686  0.00  0.00    +0.000 A 
ATOM      2  N   UNL     1       6.500   5.863  18.127  0.00  0.00    +0.000 NA
ATOM      3  N   UNL     1       7.443   6.031  17.123  0.00  0.00    +0.000 NA
ATOM      4  C   UNL     1       6.993   5.355  16.108  0.00  0.00    +0.000 A 
ATOM      5  S   UNL     1       7.474   5.034  14.504  0.00  0.00    +0.000 S 
ATOM      6  C   UNL     1       5.940   4.145  14.346  0.00  0.00    +0.000 A 
ATOM      7  N   UNL     1       5.159   4.072  15.390  0.00  0.00    +0.000 NA
ATOM      8  N   UNL     1       5.803   4.766  16.374  0.00  0.00    +0.000 N 
ENDROOT
BRANCH   1  12
ATOM      9  C   UNL     1       2.140   3.724  19.950  0.00  0.00    +0.000 A 
ATOM     10  C   UNL     1       2.879   2.837  19.151  0.00  0.00    +0.000 A 
ATOM     11  C   UNL     1       3.983   3.280  18.417  0.00  0.00    +0.000 A 
ATOM     12  C   UNL     1       4.361   4.623  18.446  0.00  0.00    +0.000 A 
ATOM     13  C   UNL     1       3.575   5.516  19.184  0.00  0.00    +0.000 A 
ATOM     14  C   UNL     1       2.464   5.087  19.929  0.00  0.00    +0.000 A 
BRANCH   9  16
ATOM     15  C   UNL     1       1.434   2.548  21.882  0.00  0.00    +0.000 C 
ATOM     16  O   UNL     1       1.091   3.288  20.712  0.00  0.00    +0.000 OA
ENDBRANCH   9  16
BRANCH  14  17
ATOM     17  O   UNL     1       1.850   6.133  20.567  0.00  0.00    +0.000 OA
ATOM     18  C   UNL     1       2.021   7.446  20.064  0.00  0.00    +0.000 C 
ENDBRANCH  14  17
ENDBRANCH   1  12
BRANCH   6  19
ATOM     19  C   UNL     1       5.623   3.563  13.073  0.00  0.00    +0.000 A 
ATOM     20  C   UNL     1       6.319   2.658  12.289  0.00  0.00    +0.000 A 
ATOM     21  C   UNL     1       5.532   2.429  11.132  0.00  0.00    +0.000 A 
ATOM     22  C   UNL     1       4.409   3.212  11.273  0.00  0.00    +0.000 A 
ATOM     23 BR   UNL     1       3.013   3.325  10.044  0.00  0.00    +0.000 Br
ATOM     24  O   UNL     1       4.455   3.898  12.444  0.00  0.00    +0.000 OA
ENDBRANCH   6  19
TORSDOF 4
ENDMDL
MODEL 7
REMARK VINA RESULT:      -7.2      1.919      2.389
REMARK  Name = 
REMARK  6 active torsions:
REMARK  status: ('A' for Active; 'I' for Inactive)
REMARK    1  A    between atoms: C_1  and  O_2
REMARK    2  A    between atoms: O_2  and  C_3
REMARK    3  A    between atoms: C_6  and  C_7
REMARK    4  A    between atoms: C_12  and  C_13
REMARK    5  A    between atoms: C_22  and  O_23
REMARK    6  A    between atoms: O_23  and  C_24
REMARK                            x       y       z     vdW  Elec       q    Type
REMARK                         _______ _______ _______ _____ _____    ______ ____
ROOT
ATOM      1  C   UNL     1       3.272   5.643  19.142  0.00  0.00    +0.000 A 
ATOM      2  N   UNL     1       3.020   4.701  20.050  0.00  0.00    +0.000 NA
ATOM      3  N   UNL     1       2.137   5.200  20.997  0.00  0.00    +0.000 NA
ATOM      4  C   UNL     1       1.872   6.414  20.617  0.00  0.00    +0.000 A 
ATOM      5  S   UNL     1       0.902   7.710  21.150  0.00  0.00    +0.000 S 
ATOM      6  C   UNL     1       1.447   8.567  19.689  0.00  0.00    +0.000 A 
ATOM      7  N   UNL     1       2.288   7.960  18.896  0.00  0.00    +0.000 NA
ATOM      8  N   UNL     1       2.511   6.742  19.468  0.00  0.00    +0.000 N 
ENDROOT
BRANCH   1  12
ATOM      9  C   UNL     1       5.885   5.311  15.758  0.00  0.00    +0.000 A 
ATOM     10  C   UNL     1       4.921   4.327  16.030  0.00  0.00    +0.000 A 
ATOM     11  C   UNL     1       4.069   4.441  17.133  0.00  0.00    +0.000 A 
ATOM     12  C   UNL     1       4.176   5.528  18.002  0.00  0.00    +0.000 A 
ATOM     13  C   UNL     1       5.188   6.466  17.767  0.00  0.00    +0.000 A 
ATOM     14  C   UNL     1       6.051   6.367  16.663  0.00  0.00    +0.000 A 
BRANCH   9  16
ATOM     15  C   UNL     1       6.466   4.110  13.800  0.00  0.00    +0.000 C 
ATOM     16  O   UNL     1       6.686   5.233  14.652  0.00  0.00    +0.000 OA
ENDBRANCH   9  16
BRANCH  14  17
ATOM     17  O   UNL     1       6.959   7.393  16.639  0.00  0.00    +0.000 OA
ATOM     18  C   UNL     1       7.780   7.617  17.772  0.00  0.00    +0.000 C 
ENDBRANCH  14  17
ENDBRANCH   1  12
BRANCH   6  19
ATOM     19  C   UNL     1       0.925   9.881  19.440  0.00  0.00    +0.000 A 
ATOM     20  C   UNL     1       1.431  10.934  18.696  0.00  0.00    +0.000 A 
ATOM     21  C   UNL     1       0.493  11.993  18.795  0.00  0.00    +0.000 A 
ATOM     22  C   UNL     1      -0.523  11.529  19.599  0.00  0.00    +0.000 A 
ATOM     23 BR   UNL     1      -2.038  12.498  20.088  0.00  0.00    +0.000 Br
ATOM     24  O   UNL     1      -0.271  10.254  19.990  0.00  0.00    +0.000 OA
ENDBRANCH   6  19
TORSDOF 4
ENDMDL
MODEL 8
REMARK VINA RESULT:      -7.2      2.055      2.419
REMARK  Name = 
REMARK  6 active torsions:
REMARK  status: ('A' for Active; 'I' for Inactive)
REMARK    1  A    between atoms: C_1  and  O_2
REMARK    2  A    between atoms: O_2  and  C_3
REMARK    3  A    between atoms: C_6  and  C_7
REMARK    4  A    between atoms: C_12  and  C_13
REMARK    5  A    between atoms: C_22  and  O_23
REMARK    6  A    between atoms: O_23  and  C_24
REMARK                            x       y       z     vdW  Elec       q    Type
REMARK                         _______ _______ _______ _____ _____    ______ ____
ROOT
ATOM      1  C   UNL     1       3.692   5.470  18.822  0.00  0.00    +0.000 A 
ATOM      2  N   UNL     1       3.463   4.532  19.740  0.00  0.00    +0.000 NA
ATOM      3  N   UNL     1       2.562   5.016  20.677  0.00  0.00    +0.000 NA
ATOM      4  C   UNL     1       2.263   6.217  20.282  0.00  0.00    +0.000 A 
ATOM      5  S   UNL     1       1.253   7.491  20.795  0.00  0.00    +0.000 S 
ATOM      6  C   UNL     1       1.780   8.346  19.326  0.00  0.00    +0.000 A 
ATOM      7  N   UNL     1       2.642   7.754  18.543  0.00  0.00    +0.000 NA
ATOM      8  N   UNL     1       2.898   6.550  19.131  0.00  0.00    +0.000 N 
ENDROOT
BRANCH   1  12
ATOM      9  C   UNL     1       6.330   5.186  15.454  0.00  0.00    +0.000 A 
ATOM     10  C   UNL     1       5.218   4.338  15.578  0.00  0.00    +0.000 A 
ATOM     11  C   UNL     1       4.359   4.437  16.677  0.00  0.00    +0.000 A 
ATOM     12  C   UNL     1       4.603   5.368  17.687  0.00  0.00    +0.000 A 
ATOM     13  C   UNL     1       5.755   6.158  17.594  0.00  0.00    +0.000 A 
ATOM     14  C   UNL     1       6.628   6.073  16.497  0.00  0.00    +0.000 A 
BRANCH   9  16
ATOM     15  C   UNL     1       6.746   4.228  13.327  0.00  0.00    +0.000 C 
ATOM     16  O   UNL     1       7.145   5.131  14.356  0.00  0.00    +0.000 OA
ENDBRANCH   9  16
BRANCH  14  17
ATOM     17  O   UNL     1       7.683   6.938  16.623  0.00  0.00    +0.000 OA
ATOM     18  C   UNL     1       7.654   7.919  17.644  0.00  0.00    +0.000 C 
ENDBRANCH  14  17
ENDBRANCH   1  12
BRANCH   6  19
ATOM     19  C   UNL     1       1.221   9.641  19.059  0.00  0.00    +0.000 A 
ATOM     20  C   UNL     1      -0.095  10.061  18.967  0.00  0.00    +0.000 A 
ATOM     21  C   UNL     1      -0.063  11.450  18.687  0.00  0.00    +0.000 A 
ATOM     22  C   UNL     1       1.267  11.794  18.614  0.00  0.00    +0.000 A 
ATOM     23 BR   UNL     1       1.921  13.503  18.260  0.00  0.00    +0.000 Br
ATOM     24  O   UNL     1       2.049  10.708  18.840  0.00  0.00    +0.000 OA
ENDBRANCH   6  19
TORSDOF 4
ENDMDL
MODEL 9
REMARK VINA RESULT:      -7.1      4.584      8.035
REMARK  Name = 
REMARK  6 active torsions:
REMARK  status: ('A' for Active; 'I' for Inactive)
REMARK    1  A    between atoms: C_1  and  O_2
REMARK    2  A    between atoms: O_2  and  C_3
REMARK    3  A    between atoms: C_6  and  C_7
REMARK    4  A    between atoms: C_12  and  C_13
REMARK    5  A    between atoms: C_22  and  O_23
REMARK    6  A    between atoms: O_23  and  C_24
REMARK                            x       y       z     vdW  Elec       q    Type
REMARK                         _______ _______ _______ _____ _____    ______ ____
ROOT
ATOM      1  C   UNL     1       5.563   5.407  17.533  0.00  0.00    +0.000 A 
ATOM      2  N   UNL     1       6.525   6.257  17.891  0.00  0.00    +0.000 NA
ATOM      3  N   UNL     1       7.435   6.386  16.853  0.00  0.00    +0.000 NA
ATOM      4  C   UNL     1       6.981   5.629  15.899  0.00  0.00    +0.000 A 
ATOM      5  S   UNL     1       7.430   5.214  14.307  0.00  0.00    +0.000 S 
ATOM      6  C   UNL     1       5.923   4.269  14.253  0.00  0.00    +0.000 A 
ATOM      7  N   UNL     1       5.172   4.243  15.321  0.00  0.00    +0.000 NA
ATOM      8  N   UNL     1       5.818   5.022  16.237  0.00  0.00    +0.000 N 
ENDROOT
BRANCH   1  12
ATOM      9  C   UNL     1       2.221   4.171  19.918  0.00  0.00    +0.000 A 
ATOM     10  C   UNL     1       2.701   5.490  19.969  0.00  0.00    +0.000 A 
ATOM     11  C   UNL     1       3.790   5.889  19.187  0.00  0.00    +0.000 A 
ATOM     12  C   UNL     1       4.437   4.975  18.354  0.00  0.00    +0.000 A 
ATOM     13  C   UNL     1       4.000   3.645  18.365  0.00  0.00    +0.000 A 
ATOM     14  C   UNL     1       2.908   3.228  19.144  0.00  0.00    +0.000 A 
BRANCH   9  16
ATOM     15  C   UNL     1       1.372   2.885  21.718  0.00  0.00    +0.000 C 
ATOM     16  O   UNL     1       1.125   3.787  20.641  0.00  0.00    +0.000 OA
ENDBRANCH   9  16
BRANCH  14  17
ATOM     17  O   UNL     1       2.665   1.888  18.995  0.00  0.00    +0.000 OA
ATOM     18  C   UNL     1       3.703   1.045  18.526  0.00  0.00    +0.000 C 
ENDBRANCH  14  17
ENDBRANCH   1  12
BRANCH   6  19
ATOM     19  C   UNL     1       5.592   3.591  13.031  0.00  0.00    +0.000 A 
ATOM     20  C   UNL     1       6.259   2.598  12.334  0.00  0.00    +0.000 A 
ATOM     21  C   UNL     1       5.470   2.299  11.194  0.00  0.00    +0.000 A 
ATOM     22  C   UNL     1       4.377   3.132  11.256  0.00  0.00    +0.000 A 
ATOM     23 BR   UNL     1       2.993   3.190  10.009  0.00  0.00    +0.000 Br
ATOM     24  O   UNL     1       4.441   3.913  12.365  0.00  0.00    +0.000 OA
ENDBRANCH   6  19
TORSDOF 4
ENDMDL
