MODEL 1
REMARK VINA RESULT:      -9.4      0.000      0.000
REMARK  Name = 
REMARK  6 active torsions:
REMARK  status: ('A' for Active; 'I' for Inactive)
REMARK    1  A    between atoms: C_1  and  O_2
REMARK    2  A    between atoms: O_2  and  C_3
REMARK    3  A    between atoms: C_5  and  C_6
REMARK    4  A    between atoms: N_14  and  C_15
REMARK    5  A    between atoms: C_15  and  C_16
REMARK    6  A    between atoms: C_27  and  O_28
REMARK                            x       y       z     vdW  Elec       q    Type
REMARK                         _______ _______ _______ _____ _____    ______ ____
ROOT
ATOM      1  C   UNL     1       3.960   5.443  19.206  0.00  0.00    +0.000 C 
ATOM      2  C   UNL     1       3.861   3.999  19.661  0.00  0.00    +0.000 A 
ATOM      3  N   UNL     1       4.898   3.103  19.789  0.00  0.00    +0.000 NA
ATOM      4  C   UNL     1       4.360   2.020  20.312  0.00  0.00    +0.000 A 
ATOM      5  N   UNL     1       3.025   2.183  20.567  0.00  0.00    +0.000 N 
ATOM      6  C   UNL     1       2.708   3.449  20.182  0.00  0.00    +0.000 A 
ATOM      7  C   UNL     1       1.419   4.157  20.308  0.00  0.00    +0.000 C 
ATOM      8  C   UNL     1       1.694   5.677  20.179  0.00  0.00    +0.000 C 
ATOM      9  N   UNL     1       2.578   6.012  19.037  0.00  0.00    +0.000 NA
ATOM     10  H   UNL     1       2.412   1.500  20.989  0.00  0.00    +0.000 HD
ENDROOT
BRANCH   1  13
ATOM     11  C   UNL     1       6.709   6.217  16.579  0.00  0.00    +0.000 A 
ATOM     12  C   UNL     1       5.958   6.241  17.770  0.00  0.00    +0.000 A 
ATOM     13  C   UNL     1       4.802   5.456  17.937  0.00  0.00    +0.000 A 
ATOM     14  C   UNL     1       4.426   4.613  16.874  0.00  0.00    +0.000 A 
ATOM     15  C   UNL     1       5.165   4.573  15.690  0.00  0.00    +0.000 A 
ATOM     16  C   UNL     1       6.299   5.373  15.538  0.00  0.00    +0.000 A 
BRANCH  11  18
ATOM     17  C   UNL     1       7.852   8.040  17.632  0.00  0.00    +0.000 C 
ATOM     18  O   UNL     1       7.790   7.062  16.603  0.00  0.00    +0.000 OA
ENDBRANCH  11  18
BRANCH  16  19
ATOM     19  O   UNL     1       6.984   5.296  14.357  0.00  0.00    +0.000 OA
ATOM     20  H   UNL     1       6.400   4.913  13.683  0.00  0.00    +0.000 HD
ENDBRANCH  16  19
ENDBRANCH   1  13
BRANCH   9  21
ATOM     21  C   UNL     1       2.604   7.459  18.767  0.00  0.00    +0.000 C 
BRANCH  21  22
ATOM     22  C   UNL     1       1.783   8.306  19.695  0.00  0.00    +0.000 A 
ATOM     23  N   UNL     1       1.009   9.311  19.343  0.00  0.00    +0.000 NA
ATOM     24  C   UNL     1       0.422   9.753  20.498  0.00  0.00    +0.000 A 
ATOM     25  C   UNL     1      -0.532  10.762  20.681  0.00  0.00    +0.000 A 
ATOM     26  C   UNL     1      -1.012  11.001  21.972  0.00  0.00    +0.000 A 
ATOM     27  C   UNL     1      -0.519  10.280  23.063  0.00  0.00    +0.000 A 
ATOM     28  C   UNL     1       0.453   9.284  22.902  0.00  0.00    +0.000 A 
ATOM     29  C   UNL     1       0.877   9.032  21.596  0.00  0.00    +0.000 A 
ATOM     30  N   UNL     1       1.737   8.108  21.056  0.00  0.00    +0.000 N 
ATOM     31  H   UNL     1       2.237   7.398  21.565  0.00  0.00    +0.000 HD
ENDBRANCH  21  22
ENDBRANCH   9  21
TORSDOF 5
ENDMDL
MODEL 2
REMARK VINA RESULT:      -9.3      0.163      1.109
REMARK  Name = 
REMARK  6 active torsions:
REMARK  status: ('A' for Active; 'I' for Inactive)
REMARK    1  A    between atoms: C_1  and  O_2
REMARK    2  A    between atoms: O_2  and  C_3
REMARK    3  A    between atoms: C_5  and  C_6
REMARK    4  A    between atoms: N_14  and  C_15
REMARK    5  A    between atoms: C_15  and  C_16
REMARK    6  A    between atoms: C_27  and  O_28
REMARK                            x       y       z     vdW  Elec       q    Type
REMARK                         _______ _______ _______ _____ _____    ______ ____
ROOT
ATOM      1  C   UNL     1       3.928   5.456  19.288  0.00  0.00    +0.000 C 
ATOM      2  C   UNL     1       3.844   4.005  19.723  0.00  0.00    +0.000 A 
ATOM      3  N   UNL     1       4.887   3.112  19.820  0.00  0.00    +0.000 NA
ATOM      4  C   UNL     1       4.363   2.019  20.334  0.00  0.00    +0.000 A 
ATOM      5  N   UNL     1       3.031   2.171  20.612  0.00  0.00    +0.000 N 
ATOM      6  C   UNL     1       2.701   3.441  20.252  0.00  0.00    +0.000 A 
ATOM      7  C   UNL     1       1.411   4.139  20.409  0.00  0.00    +0.000 C 
ATOM      8  C   UNL     1       1.676   5.663  20.300  0.00  0.00    +0.000 C 
ATOM      9  N   UNL     1       2.541   6.020  19.150  0.00  0.00    +0.000 NA
ATOM     10  H   UNL     1       2.429   1.478  21.034  0.00  0.00    +0.000 HD
ENDROOT
BRANCH   1  13
ATOM     11  C   UNL     1       6.657   6.252  16.646  0.00  0.00    +0.000 A 
ATOM     12  C   UNL     1       5.925   6.252  17.850  0.00  0.00    +0.000 A 
ATOM     13  C   UNL     1       4.750   5.493  18.007  0.00  0.00    +0.000 A 
ATOM     14  C   UNL     1       4.334   4.703  16.919  0.00  0.00    +0.000 A 
ATOM     15  C   UNL     1       5.053   4.687  15.723  0.00  0.00    +0.000 A 
ATOM     16  C   UNL     1       6.207   5.460  15.582  0.00  0.00    +0.000 A 
BRANCH  11  18
ATOM     17  C   UNL     1       7.805   8.090  17.668  0.00  0.00    +0.000 C 
ATOM     18  O   UNL     1       7.761   7.065  16.685  0.00  0.00    +0.000 OA
ENDBRANCH  11  18
BRANCH  16  19
ATOM     19  O   UNL     1       6.870   5.409  14.387  0.00  0.00    +0.000 OA
ATOM     20  H   UNL     1       7.675   5.948  14.454  0.00  0.00    +0.000 HD
ENDBRANCH  16  19
ENDBRANCH   1  13
BRANCH   9  21
ATOM     21  C   UNL     1       2.555   7.471  18.903  0.00  0.00    +0.000 C 
BRANCH  21  22
ATOM     22  C   UNL     1       1.673   8.291  19.800  0.00  0.00    +0.000 A 
ATOM     23  N   UNL     1       1.502   8.106  21.092  0.00  0.00    +0.000 NA
ATOM     24  C   UNL     1       0.663   9.107  21.504  0.00  0.00    +0.000 A 
ATOM     25  C   UNL     1       0.204   9.409  22.791  0.00  0.00    +0.000 A 
ATOM     26  C   UNL     1      -0.625  10.522  22.962  0.00  0.00    +0.000 A 
ATOM     27  C   UNL     1      -1.025  11.290  21.864  0.00  0.00    +0.000 A 
ATOM     28  C   UNL     1      -0.596  10.988  20.565  0.00  0.00    +0.000 A 
ATOM     29  C   UNL     1       0.272   9.902  20.432  0.00  0.00    +0.000 A 
ATOM     30  N   UNL     1       0.938   9.366  19.358  0.00  0.00    +0.000 N 
ATOM     31  H   UNL     1       0.907   9.710  18.412  0.00  0.00    +0.000 HD
ENDBRANCH  21  22
ENDBRANCH   9  21
TORSDOF 5
ENDMDL
MODEL 3
REMARK VINA RESULT:      -9.1      3.040      7.397
REMARK  Name = 
REMARK  6 active torsions:
REMARK  status: ('A' for Active; 'I' for Inactive)
REMARK    1  A    between atoms: C_1  and  O_2
REMARK    2  A    between atoms: O_2  and  C_3
REMARK    3  A    between atoms: C_5  and  C_6
REMARK    4  A    between atoms: N_14  and  C_15
REMARK    5  A    between atoms: C_15  and  C_16
REMARK    6  A    between atoms: C_27  and  O_28
REMARK                            x       y       z     vdW  Elec       q    Type
REMARK                         _______ _______ _______ _____ _____    ______ ____
ROOT
ATOM      1  C   UNL     1       3.279   5.241  18.282  0.00  0.00    +0.000 C 
ATOM      2  C   UNL     1       2.493   4.213  19.076  0.00  0.00    +0.000 A 
ATOM      3  N   UNL     1       1.124   4.094  19.140  0.00  0.00    +0.000 NA
ATOM      4  C   UNL     1       0.902   3.008  19.852  0.00  0.00    +0.000 A 
ATOM      5  N   UNL     1       2.067   2.392  20.223  0.00  0.00    +0.000 N 
ATOM      6  C   UNL     1       3.082   3.137  19.708  0.00  0.00    +0.000 A 
ATOM      7  C   UNL     1       4.534   2.876  19.751  0.00  0.00    +0.000 C 
ATOM      8  C   UNL     1       5.206   3.726  18.643  0.00  0.00    +0.000 C 
ATOM      9  N   UNL     1       4.738   5.133  18.627  0.00  0.00    +0.000 NA
ATOM     10  H   UNL     1       2.144   1.532  20.749  0.00  0.00    +0.000 HD
ENDROOT
BRANCH   1  13
ATOM     11  C   UNL     1       1.682   8.283  20.086  0.00  0.00    +0.000 A 
ATOM     12  C   UNL     1       2.242   7.011  19.857  0.00  0.00    +0.000 A 
ATOM     13  C   UNL     1       2.663   6.602  18.579  0.00  0.00    +0.000 A 
ATOM     14  C   UNL     1       2.531   7.523  17.523  0.00  0.00    +0.000 A 
ATOM     15  C   UNL     1       1.985   8.789  17.735  0.00  0.00    +0.000 A 
ATOM     16  C   UNL     1       1.557   9.169  19.009  0.00  0.00    +0.000 A 
BRANCH  11  18
ATOM     17  C   UNL     1      -0.064   8.590  21.697  0.00  0.00    +0.000 C 
ATOM     18  O   UNL     1       1.320   8.488  21.394  0.00  0.00    +0.000 OA
ENDBRANCH  11  18
BRANCH  16  19
ATOM     19  O   UNL     1       1.027  10.422  19.160  0.00  0.00    +0.000 OA
ATOM     20  H   UNL     1       0.524  10.645  18.360  0.00  0.00    +0.000 HD
ENDBRANCH  16  19
ENDBRANCH   1  13
BRANCH   9  21
ATOM     21  C   UNL     1       5.576   5.981  17.764  0.00  0.00    +0.000 C 
BRANCH  21  22
ATOM     22  C   UNL     1       5.869   5.428  16.399  0.00  0.00    +0.000 A 
ATOM     23  N   UNL     1       5.109   4.590  15.726  0.00  0.00    +0.000 NA
ATOM     24  C   UNL     1       5.736   4.402  14.523  0.00  0.00    +0.000 A 
ATOM     25  C   UNL     1       5.326   3.650  13.415  0.00  0.00    +0.000 A 
ATOM     26  C   UNL     1       6.134   3.647  12.274  0.00  0.00    +0.000 A 
ATOM     27  C   UNL     1       7.347   4.341  12.255  0.00  0.00    +0.000 A 
ATOM     28  C   UNL     1       7.786   5.078  13.364  0.00  0.00    +0.000 A 
ATOM     29  C   UNL     1       6.934   5.105  14.470  0.00  0.00    +0.000 A 
ATOM     30  N   UNL     1       6.991   5.760  15.675  0.00  0.00    +0.000 N 
ATOM     31  H   UNL     1       7.720   6.387  15.973  0.00  0.00    +0.000 HD
ENDBRANCH  21  22
ENDBRANCH   9  21
TORSDOF 5
ENDMDL
MODEL 4
REMARK VINA RESULT:      -9.0      3.051      7.359
REMARK  Name = 
REMARK  6 active torsions:
REMARK  status: ('A' for Active; 'I' for Inactive)
REMARK    1  A    between atoms: C_1  and  O_2
REMARK    2  A    between atoms: O_2  and  C_3
REMARK    3  A    between atoms: C_5  and  C_6
REMARK    4  A    between atoms: N_14  and  C_15
REMARK    5  A    between atoms: C_15  and  C_16
REMARK    6  A    between atoms: C_27  and  O_28
REMARK                            x       y       z     vdW  Elec       q    Type
REMARK                         _______ _______ _______ _____ _____    ______ ____
ROOT
ATOM      1  C   UNL     1       3.336   5.226  18.279  0.00  0.00    +0.000 C 
ATOM      2  C   UNL     1       2.524   4.173  19.009  0.00  0.00    +0.000 A 
ATOM      3  N   UNL     1       1.154   4.045  19.011  0.00  0.00    +0.000 NA
ATOM      4  C   UNL     1       0.909   2.939  19.683  0.00  0.00    +0.000 A 
ATOM      5  N   UNL     1       2.060   2.318  20.086  0.00  0.00    +0.000 N 
ATOM      6  C   UNL     1       3.092   3.083  19.636  0.00  0.00    +0.000 A 
ATOM      7  C   UNL     1       4.542   2.828  19.735  0.00  0.00    +0.000 C 
ATOM      8  C   UNL     1       5.256   3.712  18.681  0.00  0.00    +0.000 C 
ATOM      9  N   UNL     1       4.781   5.116  18.684  0.00  0.00    +0.000 NA
ATOM     10  H   UNL     1       2.120   1.445  20.590  0.00  0.00    +0.000 HD
ENDROOT
BRANCH   1  13
ATOM     11  C   UNL     1       1.684   8.225  20.104  0.00  0.00    +0.000 A 
ATOM     12  C   UNL     1       2.262   6.964  19.865  0.00  0.00    +0.000 A 
ATOM     13  C   UNL     1       2.700   6.576  18.586  0.00  0.00    +0.000 A 
ATOM     14  C   UNL     1       2.565   7.508  17.540  0.00  0.00    +0.000 A 
ATOM     15  C   UNL     1       2.001   8.764  17.762  0.00  0.00    +0.000 A 
ATOM     16  C   UNL     1       1.557   9.123  19.037  0.00  0.00    +0.000 A 
BRANCH  11  18
ATOM     17  C   UNL     1      -0.076   8.569  21.693  0.00  0.00    +0.000 C 
ATOM     18  O   UNL     1       1.307   8.410  21.411  0.00  0.00    +0.000 OA
ENDBRANCH  11  18
BRANCH  16  19
ATOM     19  O   UNL     1       1.009  10.366  19.197  0.00  0.00    +0.000 OA
ATOM     20  H   UNL     1       1.374  10.958  18.519  0.00  0.00    +0.000 HD
ENDBRANCH  16  19
ENDBRANCH   1  13
BRANCH   9  21
ATOM     21  C   UNL     1       5.650   5.992  17.881  0.00  0.00    +0.000 C 
BRANCH  21  22
ATOM     22  C   UNL     1       5.927   5.525  16.482  0.00  0.00    +0.000 A 
ATOM     23  N   UNL     1       6.994   5.816  15.767  0.00  0.00    +0.000 NA
ATOM     24  C   UNL     1       6.847   5.139  14.586  0.00  0.00    +0.000 A 
ATOM     25  C   UNL     1       7.722   5.054  13.496  0.00  0.00    +0.000 A 
ATOM     26  C   UNL     1       7.357   4.256  12.407  0.00  0.00    +0.000 A 
ATOM     27  C   UNL     1       6.127   3.593  12.387  0.00  0.00    +0.000 A 
ATOM     28  C   UNL     1       5.228   3.686  13.458  0.00  0.00    +0.000 A 
ATOM     29  C   UNL     1       5.641   4.449  14.552  0.00  0.00    +0.000 A 
ATOM     30  N   UNL     1       5.077   4.703  15.778  0.00  0.00    +0.000 N 
ATOM     31  H   UNL     1       4.199   4.339  16.111  0.00  0.00    +0.000 HD
ENDBRANCH  21  22
ENDBRANCH   9  21
TORSDOF 5
ENDMDL
MODEL 5
REMARK VINA RESULT:      -8.8      1.362      2.262
REMARK  Name = 
REMARK  6 active torsions:
REMARK  status: ('A' for Active; 'I' for Inactive)
REMARK    1  A    between atoms: C_1  and  O_2
REMARK    2  A    between atoms: O_2  and  C_3
REMARK    3  A    between atoms: C_5  and  C_6
REMARK    4  A    between atoms: N_14  and  C_15
REMARK    5  A    between atoms: C_15  and  C_16
REMARK    6  A    between atoms: C_27  and  O_28
REMARK                            x       y       z     vdW  Elec       q    Type
REMARK                         _______ _______ _______ _____ _____    ______ ____
ROOT
ATOM      1  C   UNL     1       3.695   4.583  19.680  0.00  0.00    +0.000 C 
ATOM      2  C   UNL     1       3.282   3.218  19.163  0.00  0.00    +0.000 A 
ATOM      3  N   UNL     1       4.119   2.192  18.787  0.00  0.00    +0.000 NA
ATOM      4  C   UNL     1       3.325   1.177  18.514  0.00  0.00    +0.000 A 
ATOM      5  N   UNL     1       2.009   1.483  18.732  0.00  0.00    +0.000 N 
ATOM      6  C   UNL     1       1.977   2.770  19.172  0.00  0.00    +0.000 A 
ATOM      7  C   UNL     1       0.816   3.565  19.619  0.00  0.00    +0.000 C 
ATOM      8  C   UNL     1       1.347   4.759  20.453  0.00  0.00    +0.000 C 
ATOM      9  N   UNL     1       2.480   5.461  19.804  0.00  0.00    +0.000 NA
ATOM     10  H   UNL     1       1.226   0.856  18.616  0.00  0.00    +0.000 HD
ENDROOT
BRANCH   1  13
ATOM     11  C   UNL     1       5.595   5.756  16.506  0.00  0.00    +0.000 A 
ATOM     12  C   UNL     1       4.581   5.251  17.344  0.00  0.00    +0.000 A 
ATOM     13  C   UNL     1       4.761   5.118  18.733  0.00  0.00    +0.000 A 
ATOM     14  C   UNL     1       5.991   5.534  19.274  0.00  0.00    +0.000 A 
ATOM     15  C   UNL     1       7.002   6.044  18.458  0.00  0.00    +0.000 A 
ATOM     16  C   UNL     1       6.810   6.151  17.079  0.00  0.00    +0.000 A 
BRANCH  11  18
ATOM     17  C   UNL     1       5.576   4.683  14.364  0.00  0.00    +0.000 C 
ATOM     18  O   UNL     1       5.235   5.793  15.182  0.00  0.00    +0.000 OA
ENDBRANCH  11  18
BRANCH  16  19
ATOM     19  O   UNL     1       7.835   6.654  16.327  0.00  0.00    +0.000 OA
ATOM     20  H   UNL     1       8.317   5.915  15.922  0.00  0.00    +0.000 HD
ENDBRANCH  16  19
ENDBRANCH   1  13
BRANCH   9  21
ATOM     21  C   UNL     1       2.785   6.740  20.466  0.00  0.00    +0.000 C 
BRANCH  21  22
ATOM     22  C   UNL     1       1.884   7.886  20.110  0.00  0.00    +0.000 A 
ATOM     23  N   UNL     1       1.695   8.375  18.902  0.00  0.00    +0.000 NA
ATOM     24  C   UNL     1       0.763   9.368  19.042  0.00  0.00    +0.000 A 
ATOM     25  C   UNL     1       0.164  10.169  18.063  0.00  0.00    +0.000 A 
ATOM     26  C   UNL     1      -0.803  11.098  18.459  0.00  0.00    +0.000 A 
ATOM     27  C   UNL     1      -1.131  11.257  19.809  0.00  0.00    +0.000 A 
ATOM     28  C   UNL     1      -0.523  10.481  20.805  0.00  0.00    +0.000 A 
ATOM     29  C   UNL     1       0.400   9.526  20.375  0.00  0.00    +0.000 A 
ATOM     30  N   UNL     1       1.122   8.563  21.034  0.00  0.00    +0.000 N 
ATOM     31  H   UNL     1       1.089   8.373  22.023  0.00  0.00    +0.000 HD
ENDBRANCH  21  22
ENDBRANCH   9  21
TORSDOF 5
ENDMDL
MODEL 6
REMARK VINA RESULT:      -8.8      0.694      1.714
REMARK  Name = 
REMARK  6 active torsions:
REMARK  status: ('A' for Active; 'I' for Inactive)
REMARK    1  A    between atoms: C_1  and  O_2
REMARK    2  A    between atoms: O_2  and  C_3
REMARK    3  A    between atoms: C_5  and  C_6
REMARK    4  A    between atoms: N_14  and  C_15
REMARK    5  A    between atoms: C_15  and  C_16
REMARK    6  A    between atoms: C_27  and  O_28
REMARK                            x       y       z     vdW  Elec       q    Type
REMARK                         _______ _______ _______ _____ _____    ______ ____
ROOT
ATOM      1  C   UNL     1       4.045   5.436  19.139  0.00  0.00    +0.000 C 
ATOM      2  C   UNL     1       3.922   3.987  19.573  0.00  0.00    +0.000 A 
ATOM      3  N   UNL     1       4.954   3.104  19.798  0.00  0.00    +0.000 NA
ATOM      4  C   UNL     1       4.383   2.010  20.256  0.00  0.00    +0.000 A 
ATOM      5  N   UNL     1       3.027   2.152  20.378  0.00  0.00    +0.000 N 
ATOM      6  C   UNL     1       2.731   3.417  19.972  0.00  0.00    +0.000 A 
ATOM      7  C   UNL     1       1.425   4.105  19.973  0.00  0.00    +0.000 C 
ATOM      8  C   UNL     1       1.689   5.630  19.882  0.00  0.00    +0.000 C 
ATOM      9  N   UNL     1       2.678   5.986  18.837  0.00  0.00    +0.000 NA
ATOM     10  H   UNL     1       2.386   1.457  20.732  0.00  0.00    +0.000 HD
ENDROOT
BRANCH   1  13
ATOM     11  C   UNL     1       5.617   5.058  15.612  0.00  0.00    +0.000 A 
ATOM     12  C   UNL     1       4.693   5.000  16.674  0.00  0.00    +0.000 A 
ATOM     13  C   UNL     1       5.009   5.471  17.961  0.00  0.00    +0.000 A 
ATOM     14  C   UNL     1       6.285   6.033  18.156  0.00  0.00    +0.000 A 
ATOM     15  C   UNL     1       7.208   6.104  17.111  0.00  0.00    +0.000 A 
ATOM     16  C   UNL     1       6.880   5.615  15.845  0.00  0.00    +0.000 A 
BRANCH  11  18
ATOM     17  C   UNL     1       5.965   3.663  13.696  0.00  0.00    +0.000 C 
ATOM     18  O   UNL     1       5.128   4.536  14.441  0.00  0.00    +0.000 OA
ENDBRANCH  11  18
BRANCH  16  19
ATOM     19  O   UNL     1       7.824   5.707  14.859  0.00  0.00    +0.000 OA
ATOM     20  H   UNL     1       7.388   5.981  14.035  0.00  0.00    +0.000 HD
ENDBRANCH  16  19
ENDBRANCH   1  13
BRANCH   9  21
ATOM     21  C   UNL     1       2.709   7.436  18.581  0.00  0.00    +0.000 C 
BRANCH  21  22
ATOM     22  C   UNL     1       1.890   8.277  19.516  0.00  0.00    +0.000 A 
ATOM     23  N   UNL     1       1.092   9.265  19.169  0.00  0.00    +0.000 NA
ATOM     24  C   UNL     1       0.518   9.707  20.331  0.00  0.00    +0.000 A 
ATOM     25  C   UNL     1      -0.450  10.700  20.523  0.00  0.00    +0.000 A 
ATOM     26  C   UNL     1      -0.911  10.943  21.820  0.00  0.00    +0.000 A 
ATOM     27  C   UNL     1      -0.385  10.241  22.909  0.00  0.00    +0.000 A 
ATOM     28  C   UNL     1       0.602   9.261  22.739  0.00  0.00    +0.000 A 
ATOM     29  C   UNL     1       1.006   9.005  21.427  0.00  0.00    +0.000 A 
ATOM     30  N   UNL     1       1.872   8.091  20.880  0.00  0.00    +0.000 N 
ATOM     31  H   UNL     1       2.395   7.395  21.386  0.00  0.00    +0.000 HD
ENDBRANCH  21  22
ENDBRANCH   9  21
TORSDOF 5
ENDMDL
MODEL 7
REMARK VINA RESULT:      -8.7      1.207      1.555
REMARK  Name = 
REMARK  6 active torsions:
REMARK  status: ('A' for Active; 'I' for Inactive)
REMARK    1  A    between atoms: C_1  and  O_2
REMARK    2  A    between atoms: O_2  and  C_3
REMARK    3  A    between atoms: C_5  and  C_6
REMARK    4  A    between atoms: N_14  and  C_15
REMARK    5  A    between atoms: C_15  and  C_16
REMARK    6  A    between atoms: C_27  and  O_28
REMARK                            x       y       z     vdW  Elec       q    Type
REMARK                         _______ _______ _______ _____ _____    ______ ____
ROOT
ATOM      1  C   UNL     1       3.942   4.732  18.876  0.00  0.00    +0.000 C 
ATOM      2  C   UNL     1       3.437   3.303  18.810  0.00  0.00    +0.000 A 
ATOM      3  N   UNL     1       4.189   2.173  18.580  0.00  0.00    +0.000 NA
ATOM      4  C   UNL     1       3.353   1.165  18.718  0.00  0.00    +0.000 A 
ATOM      5  N   UNL     1       2.098   1.583  19.066  0.00  0.00    +0.000 N 
ATOM      6  C   UNL     1       2.151   2.940  19.154  0.00  0.00    +0.000 A 
ATOM      7  C   UNL     1       1.091   3.881  19.567  0.00  0.00    +0.000 C 
ATOM      8  C   UNL     1       1.768   5.220  19.959  0.00  0.00    +0.000 C 
ATOM      9  N   UNL     1       2.773   5.674  18.969  0.00  0.00    +0.000 NA
ATOM     10  H   UNL     1       1.302   0.989  19.252  0.00  0.00    +0.000 HD
ENDROOT
BRANCH   1  13
ATOM     11  C   UNL     1       6.766   5.939  16.505  0.00  0.00    +0.000 A 
ATOM     12  C   UNL     1       5.973   5.770  17.656  0.00  0.00    +0.000 A 
ATOM     13  C   UNL     1       4.828   4.951  17.657  0.00  0.00    +0.000 A 
ATOM     14  C   UNL     1       4.508   4.276  16.465  0.00  0.00    +0.000 A 
ATOM     15  C   UNL     1       5.289   4.428  15.318  0.00  0.00    +0.000 A 
ATOM     16  C   UNL     1       6.411   5.259  15.334  0.00  0.00    +0.000 A 
BRANCH  11  18
ATOM     17  C   UNL     1       7.664   7.867  17.607  0.00  0.00    +0.000 C 
ATOM     18  O   UNL     1       7.828   6.787  16.699  0.00  0.00    +0.000 OA
ENDBRANCH  11  18
BRANCH  16  19
ATOM     19  O   UNL     1       7.139   5.373  14.181  0.00  0.00    +0.000 OA
ATOM     20  H   UNL     1       6.572   5.755  13.491  0.00  0.00    +0.000 HD
ENDBRANCH  16  19
ENDBRANCH   1  13
BRANCH   9  21
ATOM     21  C   UNL     1       3.198   7.062  19.213  0.00  0.00    +0.000 C 
BRANCH  21  22
ATOM     22  C   UNL     1       2.106   8.091  19.173  0.00  0.00    +0.000 A 
ATOM     23  N   UNL     1       1.543   8.578  18.087  0.00  0.00    +0.000 NA
ATOM     24  C   UNL     1       0.573   9.440  18.523  0.00  0.00    +0.000 A 
ATOM     25  C   UNL     1      -0.358  10.179  17.784  0.00  0.00    +0.000 A 
ATOM     26  C   UNL     1      -1.284  10.968  18.473  0.00  0.00    +0.000 A 
ATOM     27  C   UNL     1      -1.254  11.053  19.868  0.00  0.00    +0.000 A 
ATOM     28  C   UNL     1      -0.313  10.339  20.623  0.00  0.00    +0.000 A 
ATOM     29  C   UNL     1       0.566   9.521  19.911  0.00  0.00    +0.000 A 
ATOM     30  N   UNL     1       1.546   8.643  20.302  0.00  0.00    +0.000 N 
ATOM     31  H   UNL     1       1.803   8.428  21.252  0.00  0.00    +0.000 HD
ENDBRANCH  21  22
ENDBRANCH   9  21
TORSDOF 5
ENDMDL
MODEL 8
REMARK VINA RESULT:      -8.7      1.169      1.881
REMARK  Name = 
REMARK  6 active torsions:
REMARK  status: ('A' for Active; 'I' for Inactive)
REMARK    1  A    between atoms: C_1  and  O_2
REMARK    2  A    between atoms: O_2  and  C_3
REMARK    3  A    between atoms: C_5  and  C_6
REMARK    4  A    between atoms: N_14  and  C_15
REMARK    5  A    between atoms: C_15  and  C_16
REMARK    6  A    between atoms: C_27  and  O_28
REMARK                            x       y       z     vdW  Elec       q    Type
REMARK                         _______ _______ _______ _____ _____    ______ ____
ROOT
ATOM      1  C   UNL     1       3.978   5.659  19.284  0.00  0.00    +0.000 C 
ATOM      2  C   UNL     1       3.700   4.225  19.694  0.00  0.00    +0.000 A 
ATOM      3  N   UNL     1       4.618   3.203  19.789  0.00  0.00    +0.000 NA
ATOM      4  C   UNL     1       3.949   2.179  20.278  0.00  0.00    +0.000 A 
ATOM      5  N   UNL     1       2.645   2.498  20.544  0.00  0.00    +0.000 N 
ATOM      6  C   UNL     1       2.488   3.806  20.201  0.00  0.00    +0.000 A 
ATOM      7  C   UNL     1       1.296   4.664  20.355  0.00  0.00    +0.000 C 
ATOM      8  C   UNL     1       1.758   6.141  20.273  0.00  0.00    +0.000 C 
ATOM      9  N   UNL     1       2.677   6.400  19.139  0.00  0.00    +0.000 NA
ATOM     10  H   UNL     1       1.953   1.883  20.947  0.00  0.00    +0.000 HD
ENDROOT
BRANCH   1  13
ATOM     11  C   UNL     1       6.749   6.254  16.635  0.00  0.00    +0.000 A 
ATOM     12  C   UNL     1       6.004   6.336  17.827  0.00  0.00    +0.000 A 
ATOM     13  C   UNL     1       4.815   5.608  18.013  0.00  0.00    +0.000 A 
ATOM     14  C   UNL     1       4.397   4.763  16.968  0.00  0.00    +0.000 A 
ATOM     15  C   UNL     1       5.129   4.666  15.783  0.00  0.00    +0.000 A 
ATOM     16  C   UNL     1       6.297   5.410  15.612  0.00  0.00    +0.000 A 
BRANCH  11  18
ATOM     17  C   UNL     1       7.908   8.143  17.546  0.00  0.00    +0.000 C 
ATOM     18  O   UNL     1       7.868   7.050  16.639  0.00  0.00    +0.000 OA
ENDBRANCH  11  18
BRANCH  16  19
ATOM     19  O   UNL     1       6.974   5.279  14.430  0.00  0.00    +0.000 OA
ATOM     20  H   UNL     1       7.924   5.223  14.620  0.00  0.00    +0.000 HD
ENDBRANCH  16  19
ENDBRANCH   1  13
BRANCH   9  21
ATOM     21  C   UNL     1       2.882   7.841  18.916  0.00  0.00    +0.000 C 
BRANCH  21  22
ATOM     22  C   UNL     1       1.638   8.681  18.918  0.00  0.00    +0.000 A 
ATOM     23  N   UNL     1       1.170   9.365  19.940  0.00  0.00    +0.000 NA
ATOM     24  C   UNL     1       0.057  10.014  19.476  0.00  0.00    +0.000 A 
ATOM     25  C   UNL     1      -0.784  10.919  20.136  0.00  0.00    +0.000 A 
ATOM     26  C   UNL     1      -1.847  11.484  19.424  0.00  0.00    +0.000 A 
ATOM     27  C   UNL     1      -2.093  11.119  18.097  0.00  0.00    +0.000 A 
ATOM     28  C   UNL     1      -1.277  10.197  17.429  0.00  0.00    +0.000 A 
ATOM     29  C   UNL     1      -0.193   9.688  18.148  0.00  0.00    +0.000 A 
ATOM     30  N   UNL     1       0.835   8.844  17.812  0.00  0.00    +0.000 N 
ATOM     31  H   UNL     1       0.986   8.426  16.908  0.00  0.00    +0.000 HD
ENDBRANCH  21  22
ENDBRANCH   9  21
TORSDOF 5
ENDMDL
MODEL 9
REMARK VINA RESULT:      -8.7      1.343      2.389
REMARK  Name = 
REMARK  6 active torsions:
REMARK  status: ('A' for Active; 'I' for Inactive)
REMARK    1  A    between atoms: C_1  and  O_2
REMARK    2  A    between atoms: O_2  and  C_3
REMARK    3  A    between atoms: C_5  and  C_6
REMARK    4  A    between atoms: N_14  and  C_15
REMARK    5  A    between atoms: C_15  and  C_16
REMARK    6  A    between atoms: C_27  and  O_28
REMARK                            x       y       z     vdW  Elec       q    Type
REMARK                         _______ _______ _______ _____ _____    ______ ____
ROOT
ATOM      1  C   UNL     1       3.712   4.612  19.660  0.00  0.00    +0.000 C 
ATOM      2  C   UNL     1       3.285   3.245  19.157  0.00  0.00    +0.000 A 
ATOM      3  N   UNL     1       4.112   2.209  18.787  0.00  0.00    +0.000 NA
ATOM      4  C   UNL     1       3.309   1.199  18.526  0.00  0.00    +0.000 A 
ATOM      5  N   UNL     1       1.996   1.517  18.747  0.00  0.00    +0.000 N 
ATOM      6  C   UNL     1       1.977   2.809  19.175  0.00  0.00    +0.000 A 
ATOM      7  C   UNL     1       0.825   3.617  19.620  0.00  0.00    +0.000 C 
ATOM      8  C   UNL     1       1.369   4.814  20.440  0.00  0.00    +0.000 C 
ATOM      9  N   UNL     1       2.505   5.501  19.781  0.00  0.00    +0.000 NA
ATOM     10  H   UNL     1       1.207   0.896  18.640  0.00  0.00    +0.000 HD
ENDROOT
BRANCH   1  13
ATOM     11  C   UNL     1       5.612   5.729  16.467  0.00  0.00    +0.000 A 
ATOM     12  C   UNL     1       4.598   5.240  17.313  0.00  0.00    +0.000 A 
ATOM     13  C   UNL     1       4.778   5.129  18.704  0.00  0.00    +0.000 A 
ATOM     14  C   UNL     1       6.010   5.551  19.238  0.00  0.00    +0.000 A 
ATOM     15  C   UNL     1       7.022   6.045  18.413  0.00  0.00    +0.000 A 
ATOM     16  C   UNL     1       6.829   6.131  17.033  0.00  0.00    +0.000 A 
BRANCH  11  18
ATOM     17  C   UNL     1       5.610   4.633  14.337  0.00  0.00    +0.000 C 
ATOM     18  O   UNL     1       5.251   5.746  15.143  0.00  0.00    +0.000 OA
ENDBRANCH  11  18
BRANCH  16  19
ATOM     19  O   UNL     1       7.855   6.619  16.272  0.00  0.00    +0.000 OA
ATOM     20  H   UNL     1       7.902   7.581  16.393  0.00  0.00    +0.000 HD
ENDBRANCH  16  19
ENDBRANCH   1  13
BRANCH   9  21
ATOM     21  C   UNL     1       2.824   6.783  20.430  0.00  0.00    +0.000 C 
BRANCH  21  22
ATOM     22  C   UNL     1       1.848   7.896  20.182  0.00  0.00    +0.000 A 
ATOM     23  N   UNL     1       1.058   8.446  21.081  0.00  0.00    +0.000 NA
ATOM     24  C   UNL     1       0.386   9.444  20.427  0.00  0.00    +0.000 A 
ATOM     25  C   UNL     1      -0.532  10.374  20.928  0.00  0.00    +0.000 A 
ATOM     26  C   UNL     1      -1.057  11.332  20.056  0.00  0.00    +0.000 A 
ATOM     27  C   UNL     1      -0.709  11.333  18.702  0.00  0.00    +0.000 A 
ATOM     28  C   UNL     1       0.189  10.394  18.177  0.00  0.00    +0.000 A 
ATOM     29  C   UNL     1       0.736   9.482  19.082  0.00  0.00    +0.000 A 
ATOM     30  N   UNL     1       1.678   8.492  18.953  0.00  0.00    +0.000 N 
ATOM     31  H   UNL     1       2.171   8.251  18.109  0.00  0.00    +0.000 HD
ENDBRANCH  21  22
ENDBRANCH   9  21
TORSDOF 5
ENDMDL
