MODEL 1
REMARK VINA RESULT:      -8.6      0.000      0.000
REMARK  Name = 
REMARK  4 active torsions:
REMARK  status: ('A' for Active; 'I' for Inactive)
REMARK    1  A    between atoms: C_4  and  N_5
REMARK    2  A    between atoms: N_5  and  C_6
REMARK    3  A    between atoms: N_9  and  C_10
REMARK    4  A    between atoms: C_10  and  C_11
REMARK                            x       y       z     vdW  Elec       q    Type
REMARK                         _______ _______ _______ _____ _____    ______ ____
ROOT
ATOM      1  O   UNL     1       1.821   3.062  21.055  0.00  0.00    +0.000 OA
ATOM      2  C   UNL     1       2.116   4.093  20.460  0.00  0.00    +0.000 A 
ATOM      3  C   UNL     1       1.684   5.395  20.970  0.00  0.00    +0.000 A 
ATOM      4  C   UNL     1       1.973   6.571  20.399  0.00  0.00    +0.000 A 
ATOM      5  C   UNL     1       2.776   6.530  19.144  0.00  0.00    +0.000 A 
ATOM      6  C   UNL     1       3.187   7.665  18.442  0.00  0.00    +0.000 A 
ATOM      7  C   UNL     1       3.989   7.547  17.290  0.00  0.00    +0.000 A 
ATOM      8  C   UNL     1       4.409   6.295  16.805  0.00  0.00    +0.000 A 
ATOM      9  C   UNL     1       4.007   5.150  17.485  0.00  0.00    +0.000 A 
ATOM     10  C   UNL     1       3.200   5.295  18.639  0.00  0.00    +0.000 A 
ATOM     11  O   UNL     1       2.856   4.093  19.301  0.00  0.00    +0.000 OA
ATOM     12  C   UNL     1       4.407   3.773  17.048  0.00  0.00    +0.000 C 
ATOM     13  C   UNL     1       5.244   3.627  15.786  0.00  0.00    +0.000 C 
ATOM     14  C   UNL     1       5.647   4.879  15.023  0.00  0.00    +0.000 C 
ATOM     15  C   UNL     1       5.333   6.245  15.626  0.00  0.00    +0.000 C 
ENDROOT
BRANCH   4  16
ATOM     16  N   UNL     1       1.570   7.804  20.887  0.00  0.00    +0.000 N 
ATOM     17  H   UNL     1       2.353   8.386  21.180  0.00  0.00    +0.000 HD
BRANCH  16  18
ATOM     18  C   UNL     1       0.303   8.549  20.807  0.00  0.00    +0.000 C 
ATOM     19  C   UNL     1       0.270   9.731  19.832  0.00  0.00    +0.000 C 
ATOM     20  C   UNL     1       0.261  11.126  20.466  0.00  0.00    +0.000 C 
ATOM     21  N   UNL     1      -0.577  11.223  21.674  0.00  0.00    +0.000 NA
ATOM     22  C   UNL     1      -0.106  10.258  22.677  0.00  0.00    +0.000 C 
ATOM     23  C   UNL     1      -0.306   8.831  22.177  0.00  0.00    +0.000 C 
BRANCH  21  24
ATOM     24  C   UNL     1      -0.516  12.610  22.187  0.00  0.00    +0.000 C 
BRANCH  24  25
ATOM     25  C   UNL     1      -1.701  13.051  23.026  0.00  0.00    +0.000 A 
ATOM     26  C   UNL     1      -1.601  14.183  23.851  0.00  0.00    +0.000 A 
ATOM     27  C   UNL     1      -2.712  14.656  24.552  0.00  0.00    +0.000 A 
ATOM     28  C   UNL     1      -3.937  14.003  24.438  0.00  0.00    +0.000 A 
ATOM     29  C   UNL     1      -4.045  12.862  23.644  0.00  0.00    +0.000 A 
ATOM     30  C   UNL     1      -2.933  12.385  22.945  0.00  0.00    +0.000 A 
ENDBRANCH  24  25
ENDBRANCH  21  24
ENDBRANCH  16  18
ENDBRANCH   4  16
TORSDOF 4
ENDMDL
MODEL 2
REMARK VINA RESULT:      -8.6      0.800      1.079
REMARK  Name = 
REMARK  4 active torsions:
REMARK  status: ('A' for Active; 'I' for Inactive)
REMARK    1  A    between atoms: C_4  and  N_5
REMARK    2  A    between atoms: N_5  and  C_6
REMARK    3  A    between atoms: N_9  and  C_10
REMARK    4  A    between atoms: C_10  and  C_11
REMARK                            x       y       z     vdW  Elec       q    Type
REMARK                         _______ _______ _______ _____ _____    ______ ____
ROOT
ATOM      1  O   UNL     1       2.225   2.945  21.042  0.00  0.00    +0.000 OA
ATOM      2  C   UNL     1       2.455   3.974  20.416  0.00  0.00    +0.000 A 
ATOM      3  C   UNL     1       1.963   5.265  20.899  0.00  0.00    +0.000 A 
ATOM      4  C   UNL     1       2.180   6.438  20.293  0.00  0.00    +0.000 A 
ATOM      5  C   UNL     1       2.965   6.406  19.025  0.00  0.00    +0.000 A 
ATOM      6  C   UNL     1       3.304   7.541  18.287  0.00  0.00    +0.000 A 
ATOM      7  C   UNL     1       4.092   7.435  17.125  0.00  0.00    +0.000 A 
ATOM      8  C   UNL     1       4.570   6.194  16.666  0.00  0.00    +0.000 A 
ATOM      9  C   UNL     1       4.240   5.048  17.382  0.00  0.00    +0.000 A 
ATOM     10  C   UNL     1       3.446   5.182  18.546  0.00  0.00    +0.000 A 
ATOM     11  O   UNL     1       3.176   3.981  19.244  0.00  0.00    +0.000 OA
ATOM     12  C   UNL     1       4.706   3.683  16.974  0.00  0.00    +0.000 C 
ATOM     13  C   UNL     1       5.529   3.547  15.702  0.00  0.00    +0.000 C 
ATOM     14  C   UNL     1       5.854   4.797  14.900  0.00  0.00    +0.000 C 
ATOM     15  C   UNL     1       5.477   6.161  15.472  0.00  0.00    +0.000 C 
ENDROOT
BRANCH   4  16
ATOM     16  N   UNL     1       1.720   7.661  20.755  0.00  0.00    +0.000 N 
ATOM     17  H   UNL     1       2.461   8.234  21.157  0.00  0.00    +0.000 HD
BRANCH  16  18
ATOM     18  C   UNL     1       0.474   8.413  20.534  0.00  0.00    +0.000 C 
ATOM     19  C   UNL     1       0.627   9.838  19.992  0.00  0.00    +0.000 C 
ATOM     20  C   UNL     1       0.331  10.969  20.980  0.00  0.00    +0.000 C 
ATOM     21  N   UNL     1      -0.818  10.702  21.862  0.00  0.00    +0.000 NA
ATOM     22  C   UNL     1      -0.577   9.468  22.623  0.00  0.00    +0.000 C 
ATOM     23  C   UNL     1      -0.517   8.268  21.685  0.00  0.00    +0.000 C 
BRANCH  21  24
ATOM     24  C   UNL     1      -1.012  11.863  22.760  0.00  0.00    +0.000 C 
BRANCH  24  25
ATOM     25  C   UNL     1      -2.430  12.397  22.844  0.00  0.00    +0.000 A 
ATOM     26  C   UNL     1      -3.102  12.805  21.680  0.00  0.00    +0.000 A 
ATOM     27  C   UNL     1      -4.439  13.203  21.732  0.00  0.00    +0.000 A 
ATOM     28  C   UNL     1      -5.121  13.202  22.946  0.00  0.00    +0.000 A 
ATOM     29  C   UNL     1      -4.459  12.825  24.114  0.00  0.00    +0.000 A 
ATOM     30  C   UNL     1      -3.119  12.429  24.065  0.00  0.00    +0.000 A 
ENDBRANCH  24  25
ENDBRANCH  21  24
ENDBRANCH  16  18
ENDBRANCH   4  16
TORSDOF 4
ENDMDL
MODEL 3
REMARK VINA RESULT:      -8.1      2.444      9.455
REMARK  Name = 
REMARK  4 active torsions:
REMARK  status: ('A' for Active; 'I' for Inactive)
REMARK    1  A    between atoms: C_4  and  N_5
REMARK    2  A    between atoms: N_5  and  C_6
REMARK    3  A    between atoms: N_9  and  C_10
REMARK    4  A    between atoms: C_10  and  C_11
REMARK                            x       y       z     vdW  Elec       q    Type
REMARK                         _______ _______ _______ _____ _____    ______ ____
ROOT
ATOM      1  O   UNL     1       2.263   9.168  17.276  0.00  0.00    +0.000 OA
ATOM      2  C   UNL     1       1.813   9.026  18.408  0.00  0.00    +0.000 A 
ATOM      3  C   UNL     1       2.094   7.810  19.173  0.00  0.00    +0.000 A 
ATOM      4  C   UNL     1       1.661   7.576  20.418  0.00  0.00    +0.000 A 
ATOM      5  C   UNL     1       0.818   8.632  21.046  0.00  0.00    +0.000 A 
ATOM      6  C   UNL     1       0.312   8.558  22.346  0.00  0.00    +0.000 A 
ATOM      7  C   UNL     1      -0.436   9.621  22.888  0.00  0.00    +0.000 A 
ATOM      8  C   UNL     1      -0.700  10.791  22.154  0.00  0.00    +0.000 A 
ATOM      9  C   UNL     1      -0.211  10.886  20.855  0.00  0.00    +0.000 A 
ATOM     10  C   UNL     1       0.537   9.803  20.333  0.00  0.00    +0.000 A 
ATOM     11  O   UNL     1       1.032   9.979  19.018  0.00  0.00    +0.000 OA
ATOM     12  C   UNL     1      -0.436  12.094  19.997  0.00  0.00    +0.000 C 
ATOM     13  C   UNL     1      -1.272  13.235  20.556  0.00  0.00    +0.000 C 
ATOM     14  C   UNL     1      -1.838  13.111  21.961  0.00  0.00    +0.000 C 
ATOM     15  C   UNL     1      -1.427  11.920  22.821  0.00  0.00    +0.000 C 
ENDROOT
BRANCH   4  16
ATOM     16  N   UNL     1       1.935   6.428  21.144  0.00  0.00    +0.000 N 
ATOM     17  H   UNL     1       1.798   6.554  22.146  0.00  0.00    +0.000 HD
BRANCH  16  18
ATOM     18  C   UNL     1       2.097   5.016  20.764  0.00  0.00    +0.000 C 
ATOM     19  C   UNL     1       3.534   4.529  20.552  0.00  0.00    +0.000 C 
ATOM     20  C   UNL     1       3.946   4.258  19.103  0.00  0.00    +0.000 C 
ATOM     21  N   UNL     1       2.892   3.620  18.295  0.00  0.00    +0.000 NA
ATOM     22  C   UNL     1       1.695   4.473  18.289  0.00  0.00    +0.000 C 
ATOM     23  C   UNL     1       1.106   4.573  19.691  0.00  0.00    +0.000 C 
BRANCH  21  24
ATOM     24  C   UNL     1       3.407   3.399  16.925  0.00  0.00    +0.000 C 
BRANCH  24  25
ATOM     25  C   UNL     1       4.606   4.242  16.532  0.00  0.00    +0.000 A 
ATOM     26  C   UNL     1       4.565   5.639  16.674  0.00  0.00    +0.000 A 
ATOM     27  C   UNL     1       5.695   6.416  16.410  0.00  0.00    +0.000 A 
ATOM     28  C   UNL     1       6.878   5.807  15.998  0.00  0.00    +0.000 A 
ATOM     29  C   UNL     1       6.926   4.425  15.826  0.00  0.00    +0.000 A 
ATOM     30  C   UNL     1       5.795   3.646  16.087  0.00  0.00    +0.000 A 
ENDBRANCH  24  25
ENDBRANCH  21  24
ENDBRANCH  16  18
ENDBRANCH   4  16
TORSDOF 4
ENDMDL
MODEL 4
REMARK VINA RESULT:      -8.1      1.023      1.387
REMARK  Name = 
REMARK  4 active torsions:
REMARK  status: ('A' for Active; 'I' for Inactive)
REMARK    1  A    between atoms: C_4  and  N_5
REMARK    2  A    between atoms: N_5  and  C_6
REMARK    3  A    between atoms: N_9  and  C_10
REMARK    4  A    between atoms: C_10  and  C_11
REMARK                            x       y       z     vdW  Elec       q    Type
REMARK                         _______ _______ _______ _____ _____    ______ ____
ROOT
ATOM      1  O   UNL     1       2.112   2.836  20.913  0.00  0.00    +0.000 OA
ATOM      2  C   UNL     1       2.361   3.885  20.329  0.00  0.00    +0.000 A 
ATOM      3  C   UNL     1       1.887   5.164  20.861  0.00  0.00    +0.000 A 
ATOM      4  C   UNL     1       2.125   6.356  20.302  0.00  0.00    +0.000 A 
ATOM      5  C   UNL     1       2.914   6.361  19.037  0.00  0.00    +0.000 A 
ATOM      6  C   UNL     1       3.274   7.519  18.345  0.00  0.00    +0.000 A 
ATOM      7  C   UNL     1       4.065   7.446  17.183  0.00  0.00    +0.000 A 
ATOM      8  C   UNL     1       4.525   6.217  16.676  0.00  0.00    +0.000 A 
ATOM      9  C   UNL     1       4.174   5.049  17.346  0.00  0.00    +0.000 A 
ATOM     10  C   UNL     1       3.377   5.150  18.511  0.00  0.00    +0.000 A 
ATOM     11  O   UNL     1       3.086   3.927  19.161  0.00  0.00    +0.000 OA
ATOM     12  C   UNL     1       4.620   3.693  16.886  0.00  0.00    +0.000 C 
ATOM     13  C   UNL     1       5.446   3.595  15.613  0.00  0.00    +0.000 C 
ATOM     14  C   UNL     1       5.793   4.870  14.861  0.00  0.00    +0.000 C 
ATOM     15  C   UNL     1       5.436   6.216  15.485  0.00  0.00    +0.000 C 
ENDROOT
BRANCH   4  16
ATOM     16  N   UNL     1       1.682   7.567  20.811  0.00  0.00    +0.000 N 
ATOM     17  H   UNL     1       2.436   8.126  21.208  0.00  0.00    +0.000 HD
BRANCH  16  18
ATOM     18  C   UNL     1       0.434   8.328  20.646  0.00  0.00    +0.000 C 
ATOM     19  C   UNL     1       0.560   9.710  19.996  0.00  0.00    +0.000 C 
ATOM     20  C   UNL     1       0.368  10.911  20.927  0.00  0.00    +0.000 C 
ATOM     21  N   UNL     1      -0.705  10.727  21.919  0.00  0.00    +0.000 NA
ATOM     22  C   UNL     1      -0.418   9.542  22.740  0.00  0.00    +0.000 C 
ATOM     23  C   UNL     1      -0.457   8.281  21.884  0.00  0.00    +0.000 C 
BRANCH  21  24
ATOM     24  C   UNL     1      -0.804  11.950  22.749  0.00  0.00    +0.000 C 
BRANCH  24  25
ATOM     25  C   UNL     1      -1.733  13.027  22.222  0.00  0.00    +0.000 A 
ATOM     26  C   UNL     1      -2.928  12.674  21.574  0.00  0.00    +0.000 A 
ATOM     27  C   UNL     1      -3.838  13.655  21.173  0.00  0.00    +0.000 A 
ATOM     28  C   UNL     1      -3.564  14.999  21.411  0.00  0.00    +0.000 A 
ATOM     29  C   UNL     1      -2.369  15.366  22.028  0.00  0.00    +0.000 A 
ATOM     30  C   UNL     1      -1.455  14.386  22.427  0.00  0.00    +0.000 A 
ENDBRANCH  24  25
ENDBRANCH  21  24
ENDBRANCH  16  18
ENDBRANCH   4  16
TORSDOF 4
ENDMDL
MODEL 5
REMARK VINA RESULT:      -7.9      0.792      1.329
REMARK  Name = 
REMARK  4 active torsions:
REMARK  status: ('A' for Active; 'I' for Inactive)
REMARK    1  A    between atoms: C_4  and  N_5
REMARK    2  A    between atoms: N_5  and  C_6
REMARK    3  A    between atoms: N_9  and  C_10
REMARK    4  A    between atoms: C_10  and  C_11
REMARK                            x       y       z     vdW  Elec       q    Type
REMARK                         _______ _______ _______ _____ _____    ______ ____
ROOT
ATOM      1  O   UNL     1       2.747   2.681  21.320  0.00  0.00    +0.000 OA
ATOM      2  C   UNL     1       2.723   3.720  20.669  0.00  0.00    +0.000 A 
ATOM      3  C   UNL     1       1.879   4.840  21.086  0.00  0.00    +0.000 A 
ATOM      4  C   UNL     1       1.804   6.015  20.450  0.00  0.00    +0.000 A 
ATOM      5  C   UNL     1       2.631   6.168  19.219  0.00  0.00    +0.000 A 
ATOM      6  C   UNL     1       2.689   7.336  18.456  0.00  0.00    +0.000 A 
ATOM      7  C   UNL     1       3.534   7.421  17.333  0.00  0.00    +0.000 A 
ATOM      8  C   UNL     1       4.350   6.345  16.938  0.00  0.00    +0.000 A 
ATOM      9  C   UNL     1       4.304   5.168  17.679  0.00  0.00    +0.000 A 
ATOM     10  C   UNL     1       3.446   5.109  18.802  0.00  0.00    +0.000 A 
ATOM     11  O   UNL     1       3.473   3.895  19.530  0.00  0.00    +0.000 OA
ATOM     12  C   UNL     1       5.139   3.971  17.338  0.00  0.00    +0.000 C 
ATOM     13  C   UNL     1       6.031   4.034  16.108  0.00  0.00    +0.000 C 
ATOM     14  C   UNL     1       6.048   5.308  15.277  0.00  0.00    +0.000 C 
ATOM     15  C   UNL     1       5.291   6.531  15.785  0.00  0.00    +0.000 C 
ENDROOT
BRANCH   4  16
ATOM     16  N   UNL     1       1.010   7.079  20.850  0.00  0.00    +0.000 N 
ATOM     17  H   UNL     1       0.135   6.778  21.276  0.00  0.00    +0.000 HD
BRANCH  16  18
ATOM     18  C   UNL     1       1.280   8.511  21.050  0.00  0.00    +0.000 C 
ATOM     19  C   UNL     1       0.770   9.123  22.359  0.00  0.00    +0.000 C 
ATOM     20  C   UNL     1      -0.432  10.064  22.239  0.00  0.00    +0.000 C 
ATOM     21  N   UNL     1      -0.381  10.944  21.058  0.00  0.00    +0.000 NA
ATOM     22  C   UNL     1      -0.305  10.125  19.839  0.00  0.00    +0.000 C 
ATOM     23  C   UNL     1       1.005   9.346  19.802  0.00  0.00    +0.000 C 
BRANCH  21  24
ATOM     24  C   UNL     1      -1.582  11.809  21.054  0.00  0.00    +0.000 C 
BRANCH  24  25
ATOM     25  C   UNL     1      -1.748  12.704  22.268  0.00  0.00    +0.000 A 
ATOM     26  C   UNL     1      -0.763  13.654  22.586  0.00  0.00    +0.000 A 
ATOM     27  C   UNL     1      -0.950  14.550  23.641  0.00  0.00    +0.000 A 
ATOM     28  C   UNL     1      -2.122  14.506  24.392  0.00  0.00    +0.000 A 
ATOM     29  C   UNL     1      -3.096  13.552  24.106  0.00  0.00    +0.000 A 
ATOM     30  C   UNL     1      -2.909  12.652  23.053  0.00  0.00    +0.000 A 
ENDBRANCH  24  25
ENDBRANCH  21  24
ENDBRANCH  16  18
ENDBRANCH   4  16
TORSDOF 4
ENDMDL
MODEL 6
REMARK VINA RESULT:      -7.9      1.052      1.746
REMARK  Name = 
REMARK  4 active torsions:
REMARK  status: ('A' for Active; 'I' for Inactive)
REMARK    1  A    between atoms: C_4  and  N_5
REMARK    2  A    between atoms: N_5  and  C_6
REMARK    3  A    between atoms: N_9  and  C_10
REMARK    4  A    between atoms: C_10  and  C_11
REMARK                            x       y       z     vdW  Elec       q    Type
REMARK                         _______ _______ _______ _____ _____    ______ ____
ROOT
ATOM      1  O   UNL     1       2.640   2.698  21.229  0.00  0.00    +0.000 OA
ATOM      2  C   UNL     1       2.647   3.739  20.581  0.00  0.00    +0.000 A 
ATOM      3  C   UNL     1       1.827   4.878  20.994  0.00  0.00    +0.000 A 
ATOM      4  C   UNL     1       1.785   6.057  20.361  0.00  0.00    +0.000 A 
ATOM      5  C   UNL     1       2.626   6.193  19.137  0.00  0.00    +0.000 A 
ATOM      6  C   UNL     1       2.720   7.362  18.380  0.00  0.00    +0.000 A 
ATOM      7  C   UNL     1       3.577   7.430  17.264  0.00  0.00    +0.000 A 
ATOM      8  C   UNL     1       4.370   6.336  16.872  0.00  0.00    +0.000 A 
ATOM      9  C   UNL     1       4.289   5.158  17.609  0.00  0.00    +0.000 A 
ATOM     10  C   UNL     1       3.419   5.116  18.725  0.00  0.00    +0.000 A 
ATOM     11  O   UNL     1       3.411   3.900  19.449  0.00  0.00    +0.000 OA
ATOM     12  C   UNL     1       5.098   3.942  17.272  0.00  0.00    +0.000 C 
ATOM     13  C   UNL     1       6.002   3.988  16.050  0.00  0.00    +0.000 C 
ATOM     14  C   UNL     1       6.057   5.263  15.224  0.00  0.00    +0.000 C 
ATOM     15  C   UNL     1       5.325   6.503  15.729  0.00  0.00    +0.000 C 
ENDROOT
BRANCH   4  16
ATOM     16  N   UNL     1       1.014   7.138  20.757  0.00  0.00    +0.000 N 
ATOM     17  H   UNL     1       0.067   6.870  21.021  0.00  0.00    +0.000 HD
BRANCH  16  18
ATOM     18  C   UNL     1       1.346   8.518  21.146  0.00  0.00    +0.000 C 
ATOM     19  C   UNL     1       1.403   8.805  22.650  0.00  0.00    +0.000 C 
ATOM     20  C   UNL     1       0.257   9.646  23.219  0.00  0.00    +0.000 C 
ATOM     21  N   UNL     1      -0.166  10.747  22.337  0.00  0.00    +0.000 NA
ATOM     22  C   UNL     1      -0.586  10.202  21.038  0.00  0.00    +0.000 C 
ATOM     23  C   UNL     1       0.597   9.561  20.322  0.00  0.00    +0.000 C 
BRANCH  21  24
ATOM     24  C   UNL     1      -1.265  11.490  22.994  0.00  0.00    +0.000 C 
BRANCH  24  25
ATOM     25  C   UNL     1      -1.310  12.980  22.710  0.00  0.00    +0.000 A 
ATOM     26  C   UNL     1      -2.460  13.724  23.021  0.00  0.00    +0.000 A 
ATOM     27  C   UNL     1      -2.478  15.111  22.857  0.00  0.00    +0.000 A 
ATOM     28  C   UNL     1      -1.349  15.771  22.379  0.00  0.00    +0.000 A 
ATOM     29  C   UNL     1      -0.209  15.042  22.041  0.00  0.00    +0.000 A 
ATOM     30  C   UNL     1      -0.191  13.654  22.201  0.00  0.00    +0.000 A 
ENDBRANCH  24  25
ENDBRANCH  21  24
ENDBRANCH  16  18
ENDBRANCH   4  16
TORSDOF 4
ENDMDL
MODEL 7
REMARK VINA RESULT:      -7.9      2.944     10.646
REMARK  Name = 
REMARK  4 active torsions:
REMARK  status: ('A' for Active; 'I' for Inactive)
REMARK    1  A    between atoms: C_4  and  N_5
REMARK    2  A    between atoms: N_5  and  C_6
REMARK    3  A    between atoms: N_9  and  C_10
REMARK    4  A    between atoms: C_10  and  C_11
REMARK                            x       y       z     vdW  Elec       q    Type
REMARK                         _______ _______ _______ _____ _____    ______ ____
ROOT
ATOM      1  O   UNL     1       2.208   4.212  21.575  0.00  0.00    +0.000 OA
ATOM      2  C   UNL     1       2.311   5.138  20.777  0.00  0.00    +0.000 A 
ATOM      3  C   UNL     1       3.124   4.993  19.569  0.00  0.00    +0.000 A 
ATOM      4  C   UNL     1       3.279   5.940  18.636  0.00  0.00    +0.000 A 
ATOM      5  C   UNL     1       2.581   7.236  18.872  0.00  0.00    +0.000 A 
ATOM      6  C   UNL     1       2.614   8.314  17.985  0.00  0.00    +0.000 A 
ATOM      7  C   UNL     1       1.887   9.490  18.254  0.00  0.00    +0.000 A 
ATOM      8  C   UNL     1       1.100   9.625  19.413  0.00  0.00    +0.000 A 
ATOM      9  C   UNL     1       1.056   8.566  20.314  0.00  0.00    +0.000 A 
ATOM     10  C   UNL     1       1.797   7.397  20.021  0.00  0.00    +0.000 A 
ATOM     11  O   UNL     1       1.681   6.346  20.963  0.00  0.00    +0.000 OA
ATOM     12  C   UNL     1       0.243   8.615  21.572  0.00  0.00    +0.000 C 
ATOM     13  C   UNL     1      -0.520   9.891  21.894  0.00  0.00    +0.000 C 
ATOM     14  C   UNL     1      -0.437  11.061  20.927  0.00  0.00    +0.000 C 
ATOM     15  C   UNL     1       0.282  10.868  19.595  0.00  0.00    +0.000 C 
ENDROOT
BRANCH   4  16
ATOM     16  N   UNL     1       4.042   5.799  17.489  0.00  0.00    +0.000 N 
ATOM     17  H   UNL     1       3.832   6.507  16.787  0.00  0.00    +0.000 HD
BRANCH  16  18
ATOM     18  C   UNL     1       5.267   5.041  17.186  0.00  0.00    +0.000 C 
ATOM     19  C   UNL     1       6.483   5.861  16.744  0.00  0.00    +0.000 C 
ATOM     20  C   UNL     1       6.867   5.752  15.266  0.00  0.00    +0.000 C 
ATOM     21  N   UNL     1       6.735   4.392  14.717  0.00  0.00    +0.000 NA
ATOM     22  C   UNL     1       5.348   3.931  14.874  0.00  0.00    +0.000 C 
ATOM     23  C   UNL     1       4.998   3.792  16.351  0.00  0.00    +0.000 C 
BRANCH  21  24
ATOM     24  C   UNL     1       7.142   4.409  13.293  0.00  0.00    +0.000 C 
BRANCH  24  25
ATOM     25  C   UNL     1       6.322   3.531  12.367  0.00  0.00    +0.000 A 
ATOM     26  C   UNL     1       6.837   2.304  11.916  0.00  0.00    +0.000 A 
ATOM     27  C   UNL     1       6.054   1.443  11.144  0.00  0.00    +0.000 A 
ATOM     28  C   UNL     1       4.749   1.797  10.812  0.00  0.00    +0.000 A 
ATOM     29  C   UNL     1       4.233   3.023  11.230  0.00  0.00    +0.000 A 
ATOM     30  C   UNL     1       5.016   3.888  11.999  0.00  0.00    +0.000 A 
ENDBRANCH  24  25
ENDBRANCH  21  24
ENDBRANCH  16  18
ENDBRANCH   4  16
TORSDOF 4
ENDMDL
MODEL 8
REMARK VINA RESULT:      -7.8      1.704      2.486
REMARK  Name = 
REMARK  4 active torsions:
REMARK  status: ('A' for Active; 'I' for Inactive)
REMARK    1  A    between atoms: C_4  and  N_5
REMARK    2  A    between atoms: N_5  and  C_6
REMARK    3  A    between atoms: N_9  and  C_10
REMARK    4  A    between atoms: C_10  and  C_11
REMARK                            x       y       z     vdW  Elec       q    Type
REMARK                         _______ _______ _______ _____ _____    ______ ____
ROOT
ATOM      1  O   UNL     1       1.879   2.632  20.762  0.00  0.00    +0.000 OA
ATOM      2  C   UNL     1       2.175   3.702  20.242  0.00  0.00    +0.000 A 
ATOM      3  C   UNL     1       1.722   4.964  20.827  0.00  0.00    +0.000 A 
ATOM      4  C   UNL     1       2.011   6.177  20.340  0.00  0.00    +0.000 A 
ATOM      5  C   UNL     1       2.839   6.225  19.101  0.00  0.00    +0.000 A 
ATOM      6  C   UNL     1       3.253   7.406  18.483  0.00  0.00    +0.000 A 
ATOM      7  C   UNL     1       4.077   7.370  17.342  0.00  0.00    +0.000 A 
ATOM      8  C   UNL     1       4.517   6.156  16.784  0.00  0.00    +0.000 A 
ATOM      9  C   UNL     1       4.113   4.966  17.380  0.00  0.00    +0.000 A 
ATOM     10  C   UNL     1       3.283   5.029  18.525  0.00  0.00    +0.000 A 
ATOM     11  O   UNL     1       2.937   3.783  19.100  0.00  0.00    +0.000 OA
ATOM     12  C   UNL     1       4.534   3.623  16.862  0.00  0.00    +0.000 C 
ATOM     13  C   UNL     1       5.395   3.567  15.609  0.00  0.00    +0.000 C 
ATOM     14  C   UNL     1       5.802   4.869  14.938  0.00  0.00    +0.000 C 
ATOM     15  C   UNL     1       5.464   6.191  15.622  0.00  0.00    +0.000 C 
ENDROOT
BRANCH   4  16
ATOM     16  N   UNL     1       1.588   7.372  20.900  0.00  0.00    +0.000 N 
ATOM     17  H   UNL     1       2.305   7.815  21.472  0.00  0.00    +0.000 HD
BRANCH  16  18
ATOM     18  C   UNL     1       0.452   8.265  20.618  0.00  0.00    +0.000 C 
ATOM     19  C   UNL     1       0.738   9.462  19.707  0.00  0.00    +0.000 C 
ATOM     20  C   UNL     1       0.767  10.835  20.387  0.00  0.00    +0.000 C 
ATOM     21  N   UNL     1      -0.268  11.006  21.421  0.00  0.00    +0.000 NA
ATOM     22  C   UNL     1      -0.107   9.970  22.452  0.00  0.00    +0.000 C 
ATOM     23  C   UNL     1      -0.369   8.588  21.863  0.00  0.00    +0.000 C 
BRANCH  21  24
ATOM     24  C   UNL     1      -0.149  12.365  21.996  0.00  0.00    +0.000 C 
BRANCH  24  25
ATOM     25  C   UNL     1       0.221  13.461  21.015  0.00  0.00    +0.000 A 
ATOM     26  C   UNL     1       1.474  14.091  21.097  0.00  0.00    +0.000 A 
ATOM     27  C   UNL     1       1.864  15.030  20.140  0.00  0.00    +0.000 A 
ATOM     28  C   UNL     1       1.007  15.354  19.092  0.00  0.00    +0.000 A 
ATOM     29  C   UNL     1      -0.251  14.758  19.013  0.00  0.00    +0.000 A 
ATOM     30  C   UNL     1      -0.644  13.820  19.971  0.00  0.00    +0.000 A 
ENDBRANCH  24  25
ENDBRANCH  21  24
ENDBRANCH  16  18
ENDBRANCH   4  16
TORSDOF 4
ENDMDL
MODEL 9
REMARK VINA RESULT:      -7.8      3.933     10.162
REMARK  Name = 
REMARK  4 active torsions:
REMARK  status: ('A' for Active; 'I' for Inactive)
REMARK    1  A    between atoms: C_4  and  N_5
REMARK    2  A    between atoms: N_5  and  C_6
REMARK    3  A    between atoms: N_9  and  C_10
REMARK    4  A    between atoms: C_10  and  C_11
REMARK                            x       y       z     vdW  Elec       q    Type
REMARK                         _______ _______ _______ _____ _____    ______ ____
ROOT
ATOM      1  O   UNL     1      -0.633  12.700  22.255  0.00  0.00    +0.000 OA
ATOM      2  C   UNL     1      -0.990  12.123  21.233  0.00  0.00    +0.000 A 
ATOM      3  C   UNL     1      -0.120  11.135  20.594  0.00  0.00    +0.000 A 
ATOM      4  C   UNL     1      -0.432  10.445  19.491  0.00  0.00    +0.000 A 
ATOM      5  C   UNL     1      -1.758  10.732  18.871  0.00  0.00    +0.000 A 
ATOM      6  C   UNL     1      -2.248  10.080  17.738  0.00  0.00    +0.000 A 
ATOM      7  C   UNL     1      -3.532  10.370  17.240  0.00  0.00    +0.000 A 
ATOM      8  C   UNL     1      -4.370  11.316  17.859  0.00  0.00    +0.000 A 
ATOM      9  C   UNL     1      -3.901  11.981  18.987  0.00  0.00    +0.000 A 
ATOM     10  C   UNL     1      -2.606  11.673  19.466  0.00  0.00    +0.000 A 
ATOM     11  O   UNL     1      -2.205  12.362  20.635  0.00  0.00    +0.000 OA
ATOM     12  C   UNL     1      -4.722  13.001  19.718  0.00  0.00    +0.000 C 
ATOM     13  C   UNL     1      -6.098  13.351  19.172  0.00  0.00    +0.000 C 
ATOM     14  C   UNL     1      -6.591  12.650  17.917  0.00  0.00    +0.000 C 
ATOM     15  C   UNL     1      -5.759  11.513  17.330  0.00  0.00    +0.000 C 
ENDROOT
BRANCH   4  16
ATOM     16  N   UNL     1       0.389   9.504  18.891  0.00  0.00    +0.000 N 
ATOM     17  H   UNL     1       0.061   9.227  17.966  0.00  0.00    +0.000 HD
BRANCH  16  18
ATOM     18  C   UNL     1       1.758   9.042  19.172  0.00  0.00    +0.000 C 
ATOM     19  C   UNL     1       2.620   8.689  17.956  0.00  0.00    +0.000 C 
ATOM     20  C   UNL     1       2.894   7.198  17.735  0.00  0.00    +0.000 C 
ATOM     21  N   UNL     1       3.143   6.450  18.979  0.00  0.00    +0.000 NA
ATOM     22  C   UNL     1       1.984   6.584  19.873  0.00  0.00    +0.000 C 
ATOM     23  C   UNL     1       1.819   8.034  20.316  0.00  0.00    +0.000 C 
BRANCH  21  24
ATOM     24  C   UNL     1       3.403   5.032  18.640  0.00  0.00    +0.000 C 
BRANCH  24  25
ATOM     25  C   UNL     1       4.713   4.760  17.924  0.00  0.00    +0.000 A 
ATOM     26  C   UNL     1       4.711   4.230  16.624  0.00  0.00    +0.000 A 
ATOM     27  C   UNL     1       5.904   4.068  15.918  0.00  0.00    +0.000 A 
ATOM     28  C   UNL     1       7.115   4.431  16.502  0.00  0.00    +0.000 A 
ATOM     29  C   UNL     1       7.135   4.934  17.802  0.00  0.00    +0.000 A 
ATOM     30  C   UNL     1       5.942   5.093  18.512  0.00  0.00    +0.000 A 
ENDBRANCH  24  25
ENDBRANCH  21  24
ENDBRANCH  16  18
ENDBRANCH   4  16
TORSDOF 4
ENDMDL
