MODEL 1
REMARK VINA RESULT:      -7.1      0.000      0.000
REMARK  Name = 
REMARK  4 active torsions:
REMARK  status: ('A' for Active; 'I' for Inactive)
REMARK    1  A    between atoms: C_2  and  C_3
REMARK    2  A    between atoms: C_6  and  N_7
REMARK    3  A    between atoms: C_12  and  N_13
REMARK    4  A    between atoms: N_13  and  C_14
REMARK                            x       y       z     vdW  Elec       q    Type
REMARK                         _______ _______ _______ _____ _____    ______ ____
ROOT
ATOM      1  N   UNL     1       1.259   7.727  21.087  0.00  0.00    +0.000 N 
ATOM      2  C   UNL     1       0.490   8.843  21.416  0.00  0.00    +0.000 A 
ATOM      3  N   UNL     1       0.225   9.027  22.715  0.00  0.00    +0.000 NA
ATOM      4  C   UNL     1      -0.436  10.154  23.035  0.00  0.00    +0.000 A 
ATOM      5  C   UNL     1      -0.855  11.083  22.111  0.00  0.00    +0.000 A 
ATOM      6  C   UNL     1      -0.607  10.774  20.796  0.00  0.00    +0.000 A 
ATOM      7  N   UNL     1       0.104   9.696  20.463  0.00  0.00    +0.000 NA
ATOM      8  H   UNL     1       1.585   7.301  21.942  0.00  0.00    +0.000 HD
ENDROOT
BRANCH   1  12
ATOM      9  C   UNL     1       3.650   7.027  17.691  0.00  0.00    +0.000 A 
ATOM     10  C   UNL     1       3.595   6.095  18.732  0.00  0.00    +0.000 A 
ATOM     11  C   UNL     1       2.767   6.327  19.832  0.00  0.00    +0.000 A 
ATOM     12  C   UNL     1       2.017   7.504  19.928  0.00  0.00    +0.000 A 
ATOM     13  C   UNL     1       2.066   8.407  18.856  0.00  0.00    +0.000 A 
ATOM     14  C   UNL     1       2.883   8.185  17.753  0.00  0.00    +0.000 A 
BRANCH   9  16
ATOM     15  N   UNL     1       5.164   6.596  15.636  0.00  0.00    +0.000 NA
ATOM     16  C   UNL     1       4.487   6.793  16.561  0.00  0.00    +0.000 C 
ENDBRANCH   9  16
ENDBRANCH   1  12
BRANCH   6  17
ATOM     17  N   UNL     1      -1.115  11.601  19.774  0.00  0.00    +0.000 N 
ATOM     18  H   UNL     1      -0.437  11.650  19.017  0.00  0.00    +0.000 HD
BRANCH  17  19
ATOM     19  C   UNL     1      -2.456  11.646  19.291  0.00  0.00    +0.000 A 
ATOM     20  C   UNL     1      -3.484  12.435  19.867  0.00  0.00    +0.000 A 
ATOM     21 BR   UNL     1      -3.288  13.544  21.409  0.00  0.00    +0.000 Br
ATOM     22  C   UNL     1      -4.740  12.548  19.255  0.00  0.00    +0.000 A 
ATOM     23  C   UNL     1      -4.981  11.919  18.046  0.00  0.00    +0.000 A 
ATOM     24  F   UNL     1      -6.159  12.102  17.435  0.00  0.00    +0.000 F 
ATOM     25  C   UNL     1      -4.014  11.130  17.451  0.00  0.00    +0.000 A 
ATOM     26  C   UNL     1      -2.771  10.984  18.077  0.00  0.00    +0.000 A 
ATOM     27 BR   UNL     1      -1.506   9.845  17.220  0.00  0.00    +0.000 Br
ENDBRANCH  17  19
ENDBRANCH   6  17
TORSDOF 4
ENDMDL
MODEL 2
REMARK VINA RESULT:      -7.0      4.498      8.749
REMARK  Name = 
REMARK  4 active torsions:
REMARK  status: ('A' for Active; 'I' for Inactive)
REMARK    1  A    between atoms: C_2  and  C_3
REMARK    2  A    between atoms: C_6  and  N_7
REMARK    3  A    between atoms: C_12  and  N_13
REMARK    4  A    between atoms: N_13  and  C_14
REMARK                            x       y       z     vdW  Elec       q    Type
REMARK                         _______ _______ _______ _____ _____    ______ ____
ROOT
ATOM      1  N   UNL     1      -6.490  12.127  21.999  0.00  0.00    +0.000 N 
ATOM      2  C   UNL     1      -6.220  11.744  20.685  0.00  0.00    +0.000 A 
ATOM      3  N   UNL     1      -7.134  10.973  20.085  0.00  0.00    +0.000 NA
ATOM      4  C   UNL     1      -6.915  10.685  18.789  0.00  0.00    +0.000 A 
ATOM      5  C   UNL     1      -5.815  11.118  18.086  0.00  0.00    +0.000 A 
ATOM      6  C   UNL     1      -4.892  11.841  18.802  0.00  0.00    +0.000 A 
ATOM      7  N   UNL     1      -5.122  12.192  20.068  0.00  0.00    +0.000 NA
ATOM      8  H   UNL     1      -7.425  11.829  22.232  0.00  0.00    +0.000 HD
ENDROOT
BRANCH   1  12
ATOM      9  C   UNL     1      -4.924  15.471  24.025  0.00  0.00    +0.000 A 
ATOM     10  C   UNL     1      -6.109  15.570  23.291  0.00  0.00    +0.000 A 
ATOM     11  C   UNL     1      -6.633  14.441  22.657  0.00  0.00    +0.000 A 
ATOM     12  C   UNL     1      -5.965  13.214  22.713  0.00  0.00    +0.000 A 
ATOM     13  C   UNL     1      -4.794  13.134  23.483  0.00  0.00    +0.000 A 
ATOM     14  C   UNL     1      -4.265  14.250  24.122  0.00  0.00    +0.000 A 
BRANCH   9  16
ATOM     15  N   UNL     1      -3.959  17.555  25.219  0.00  0.00    +0.000 NA
ATOM     16  C   UNL     1      -4.387  16.617  24.680  0.00  0.00    +0.000 C 
ENDBRANCH   9  16
ENDBRANCH   1  12
BRANCH   6  17
ATOM     17  N   UNL     1      -3.673  12.213  18.200  0.00  0.00    +0.000 N 
ATOM     18  H   UNL     1      -3.647  13.226  18.102  0.00  0.00    +0.000 HD
BRANCH  17  19
ATOM     19  C   UNL     1      -2.381  11.670  18.463  0.00  0.00    +0.000 A 
ATOM     20  C   UNL     1      -1.588  12.011  19.588  0.00  0.00    +0.000 A 
ATOM     21 BR   UNL     1      -2.068  13.280  20.930  0.00  0.00    +0.000 Br
ATOM     22  C   UNL     1      -0.394  11.330  19.864  0.00  0.00    +0.000 A 
ATOM     23  C   UNL     1       0.007  10.279  19.061  0.00  0.00    +0.000 A 
ATOM     24  F   UNL     1       1.108   9.587  19.385  0.00  0.00    +0.000 F 
ATOM     25  C   UNL     1      -0.728   9.916  17.946  0.00  0.00    +0.000 A 
ATOM     26  C   UNL     1      -1.900  10.616  17.645  0.00  0.00    +0.000 A 
ATOM     27 BR   UNL     1      -2.835  10.090  16.069  0.00  0.00    +0.000 Br
ENDBRANCH  17  19
ENDBRANCH   6  17
TORSDOF 4
ENDMDL
MODEL 3
REMARK VINA RESULT:      -7.0      0.307      1.939
REMARK  Name = 
REMARK  4 active torsions:
REMARK  status: ('A' for Active; 'I' for Inactive)
REMARK    1  A    between atoms: C_2  and  C_3
REMARK    2  A    between atoms: C_6  and  N_7
REMARK    3  A    between atoms: C_12  and  N_13
REMARK    4  A    between atoms: N_13  and  C_14
REMARK                            x       y       z     vdW  Elec       q    Type
REMARK                         _______ _______ _______ _____ _____    ______ ____
ROOT
ATOM      1  N   UNL     1       1.259   7.656  21.053  0.00  0.00    +0.000 N 
ATOM      2  C   UNL     1       0.549   8.791  21.447  0.00  0.00    +0.000 A 
ATOM      3  N   UNL     1       0.270   8.900  22.751  0.00  0.00    +0.000 NA
ATOM      4  C   UNL     1      -0.330  10.041  23.139  0.00  0.00    +0.000 A 
ATOM      5  C   UNL     1      -0.677  11.054  22.276  0.00  0.00    +0.000 A 
ATOM      6  C   UNL     1      -0.420  10.822  20.946  0.00  0.00    +0.000 A 
ATOM      7  N   UNL     1       0.233   9.729  20.550  0.00  0.00    +0.000 NA
ATOM      8  H   UNL     1       1.542   7.154  21.881  0.00  0.00    +0.000 HD
ENDROOT
BRANCH   1  12
ATOM      9  C   UNL     1       3.675   7.061  17.655  0.00  0.00    +0.000 A 
ATOM     10  C   UNL     1       3.616   6.100  18.668  0.00  0.00    +0.000 A 
ATOM     11  C   UNL     1       2.780   6.298  19.768  0.00  0.00    +0.000 A 
ATOM     12  C   UNL     1       2.025   7.469  19.894  0.00  0.00    +0.000 A 
ATOM     13  C   UNL     1       2.079   8.403  18.848  0.00  0.00    +0.000 A 
ATOM     14  C   UNL     1       2.904   8.215  17.745  0.00  0.00    +0.000 A 
BRANCH   9  16
ATOM     15  N   UNL     1       5.217   6.694  15.608  0.00  0.00    +0.000 NA
ATOM     16  C   UNL     1       4.521   6.863  16.525  0.00  0.00    +0.000 C 
ENDBRANCH   9  16
ENDBRANCH   1  12
BRANCH   6  17
ATOM     17  N   UNL     1      -0.860  11.746  19.976  0.00  0.00    +0.000 N 
ATOM     18  H   UNL     1      -0.121  11.885  19.291  0.00  0.00    +0.000 HD
BRANCH  17  19
ATOM     19  C   UNL     1      -2.156  11.824  19.387  0.00  0.00    +0.000 A 
ATOM     20  C   UNL     1      -2.573  11.048  18.275  0.00  0.00    +0.000 A 
ATOM     21 BR   UNL     1      -1.482   9.794  17.336  0.00  0.00    +0.000 Br
ATOM     22  C   UNL     1      -3.905  11.066  17.839  0.00  0.00    +0.000 A 
ATOM     23  C   UNL     1      -4.848  11.815  18.520  0.00  0.00    +0.000 A 
ATOM     24  F   UNL     1      -6.131  11.758  18.140  0.00  0.00    +0.000 F 
ATOM     25  C   UNL     1      -4.487  12.596  19.603  0.00  0.00    +0.000 A 
ATOM     26  C   UNL     1      -3.152  12.611  20.020  0.00  0.00    +0.000 A 
ATOM     27 BR   UNL     1      -2.722  13.746  21.489  0.00  0.00    +0.000 Br
ENDBRANCH  17  19
ENDBRANCH   6  17
TORSDOF 4
ENDMDL
MODEL 4
REMARK VINA RESULT:      -7.0      4.491      8.346
REMARK  Name = 
REMARK  4 active torsions:
REMARK  status: ('A' for Active; 'I' for Inactive)
REMARK    1  A    between atoms: C_2  and  C_3
REMARK    2  A    between atoms: C_6  and  N_7
REMARK    3  A    between atoms: C_12  and  N_13
REMARK    4  A    between atoms: N_13  and  C_14
REMARK                            x       y       z     vdW  Elec       q    Type
REMARK                         _______ _______ _______ _____ _____    ______ ____
ROOT
ATOM      1  N   UNL     1      -6.061  12.216  21.873  0.00  0.00    +0.000 N 
ATOM      2  C   UNL     1      -5.944  11.877  20.525  0.00  0.00    +0.000 A 
ATOM      3  N   UNL     1      -6.987  11.248  19.972  0.00  0.00    +0.000 NA
ATOM      4  C   UNL     1      -6.907  11.009  18.650  0.00  0.00    +0.000 A 
ATOM      5  C   UNL     1      -5.824  11.353  17.876  0.00  0.00    +0.000 A 
ATOM      6  C   UNL     1      -4.768  11.926  18.542  0.00  0.00    +0.000 A 
ATOM      7  N   UNL     1      -4.854  12.231  19.838  0.00  0.00    +0.000 NA
ATOM      8  H   UNL     1      -7.003  12.013  22.172  0.00  0.00    +0.000 HD
ENDROOT
BRANCH   1  12
ATOM      9  C   UNL     1      -3.955  15.074  24.140  0.00  0.00    +0.000 A 
ATOM     10  C   UNL     1      -3.564  13.732  24.140  0.00  0.00    +0.000 A 
ATOM     11  C   UNL     1      -4.251  12.806  23.352  0.00  0.00    +0.000 A 
ATOM     12  C   UNL     1      -5.357  13.195  22.589  0.00  0.00    +0.000 A 
ATOM     13  C   UNL     1      -5.709  14.554  22.582  0.00  0.00    +0.000 A 
ATOM     14  C   UNL     1      -5.029  15.486  23.359  0.00  0.00    +0.000 A 
BRANCH   9  16
ATOM     15  N   UNL     1      -2.686  16.812  25.580  0.00  0.00    +0.000 NA
ATOM     16  C   UNL     1      -3.254  16.026  24.936  0.00  0.00    +0.000 C 
ENDBRANCH   9  16
ENDBRANCH   1  12
BRANCH   6  17
ATOM     17  N   UNL     1      -3.566  12.191  17.855  0.00  0.00    +0.000 N 
ATOM     18  H   UNL     1      -3.507  13.188  17.661  0.00  0.00    +0.000 HD
BRANCH  17  19
ATOM     19  C   UNL     1      -2.284  11.621  18.112  0.00  0.00    +0.000 A 
ATOM     20  C   UNL     1      -1.421  12.040  19.156  0.00  0.00    +0.000 A 
ATOM     21 BR   UNL     1      -1.782  13.459  20.381  0.00  0.00    +0.000 Br
ATOM     22  C   UNL     1      -0.241  11.339  19.445  0.00  0.00    +0.000 A 
ATOM     23  C   UNL     1       0.077  10.194  18.736  0.00  0.00    +0.000 A 
ATOM     24  F   UNL     1       1.165   9.493  19.078  0.00  0.00    +0.000 F 
ATOM     25  C   UNL     1      -0.729   9.753  17.702  0.00  0.00    +0.000 A 
ATOM     26  C   UNL     1      -1.887  10.469  17.385  0.00  0.00    +0.000 A 
ATOM     27 BR   UNL     1      -2.921   9.826  15.918  0.00  0.00    +0.000 Br
ENDBRANCH  17  19
ENDBRANCH   6  17
TORSDOF 4
ENDMDL
MODEL 5
REMARK VINA RESULT:      -7.0      5.577      8.776
REMARK  Name = 
REMARK  4 active torsions:
REMARK  status: ('A' for Active; 'I' for Inactive)
REMARK    1  A    between atoms: C_2  and  C_3
REMARK    2  A    between atoms: C_6  and  N_7
REMARK    3  A    between atoms: C_12  and  N_13
REMARK    4  A    between atoms: N_13  and  C_14
REMARK                            x       y       z     vdW  Elec       q    Type
REMARK                         _______ _______ _______ _____ _____    ______ ____
ROOT
ATOM      1  N   UNL     1       1.548   6.033  21.068  0.00  0.00    +0.000 N 
ATOM      2  C   UNL     1       2.229   4.839  20.832  0.00  0.00    +0.000 A 
ATOM      3  N   UNL     1       1.661   3.722  21.299  0.00  0.00    +0.000 NA
ATOM      4  C   UNL     1       2.273   2.565  20.986  0.00  0.00    +0.000 A 
ATOM      5  C   UNL     1       3.432   2.489  20.250  0.00  0.00    +0.000 A 
ATOM      6  C   UNL     1       3.986   3.690  19.877  0.00  0.00    +0.000 A 
ATOM      7  N   UNL     1       3.360   4.842  20.120  0.00  0.00    +0.000 NA
ATOM      8  H   UNL     1       0.650   5.813  21.472  0.00  0.00    +0.000 HD
ENDROOT
BRANCH   1  12
ATOM      9  C   UNL     1       1.752   9.715  19.034  0.00  0.00    +0.000 A 
ATOM     10  C   UNL     1       1.209   9.638  20.319  0.00  0.00    +0.000 A 
ATOM     11  C   UNL     1       1.185   8.415  20.993  0.00  0.00    +0.000 A 
ATOM     12  C   UNL     1       1.663   7.251  20.382  0.00  0.00    +0.000 A 
ATOM     13  C   UNL     1       2.232   7.362  19.104  0.00  0.00    +0.000 A 
ATOM     14  C   UNL     1       2.265   8.575  18.425  0.00  0.00    +0.000 A 
BRANCH   9  16
ATOM     15  N   UNL     1       1.805  11.981  17.781  0.00  0.00    +0.000 NA
ATOM     16  C   UNL     1       1.787  10.962  18.343  0.00  0.00    +0.000 C 
ENDBRANCH   9  16
ENDBRANCH   1  12
BRANCH   6  17
ATOM     17  N   UNL     1       5.240   3.714  19.236  0.00  0.00    +0.000 N 
ATOM     18  H   UNL     1       5.693   2.811  19.356  0.00  0.00    +0.000 HD
BRANCH  17  19
ATOM     19  C   UNL     1       5.551   4.302  17.974  0.00  0.00    +0.000 A 
ATOM     20  C   UNL     1       6.638   5.185  17.753  0.00  0.00    +0.000 A 
ATOM     21 BR   UNL     1       7.857   5.787  19.092  0.00  0.00    +0.000 Br
ATOM     22  C   UNL     1       6.974   5.609  16.459  0.00  0.00    +0.000 A 
ATOM     23  C   UNL     1       6.271   5.132  15.368  0.00  0.00    +0.000 A 
ATOM     24  F   UNL     1       6.656   5.483  14.134  0.00  0.00    +0.000 F 
ATOM     25  C   UNL     1       5.196   4.277  15.535  0.00  0.00    +0.000 A 
ATOM     26  C   UNL     1       4.832   3.881  16.825  0.00  0.00    +0.000 A 
ATOM     27 BR   UNL     1       3.314   2.739  16.978  0.00  0.00    +0.000 Br
ENDBRANCH  17  19
ENDBRANCH   6  17
TORSDOF 4
ENDMDL
MODEL 6
REMARK VINA RESULT:      -7.0      3.649      5.563
REMARK  Name = 
REMARK  4 active torsions:
REMARK  status: ('A' for Active; 'I' for Inactive)
REMARK    1  A    between atoms: C_2  and  C_3
REMARK    2  A    between atoms: C_6  and  N_7
REMARK    3  A    between atoms: C_12  and  N_13
REMARK    4  A    between atoms: N_13  and  C_14
REMARK                            x       y       z     vdW  Elec       q    Type
REMARK                         _______ _______ _______ _____ _____    ______ ____
ROOT
ATOM      1  N   UNL     1       3.412   3.373  17.793  0.00  0.00    +0.000 N 
ATOM      2  C   UNL     1       2.828   3.944  18.924  0.00  0.00    +0.000 A 
ATOM      3  N   UNL     1       2.192   3.111  19.756  0.00  0.00    +0.000 NA
ATOM      4  C   UNL     1       1.713   3.652  20.891  0.00  0.00    +0.000 A 
ATOM      5  C   UNL     1       1.827   4.985  21.210  0.00  0.00    +0.000 A 
ATOM      6  C   UNL     1       2.428   5.778  20.263  0.00  0.00    +0.000 A 
ATOM      7  N   UNL     1       2.967   5.251  19.163  0.00  0.00    +0.000 NA
ATOM      8  H   UNL     1       3.339   2.370  17.869  0.00  0.00    +0.000 HD
ENDROOT
BRANCH   1  12
ATOM      9  C   UNL     1       6.496   4.800  15.306  0.00  0.00    +0.000 A 
ATOM     10  C   UNL     1       5.226   4.533  14.788  0.00  0.00    +0.000 A 
ATOM     11  C   UNL     1       4.206   4.097  15.636  0.00  0.00    +0.000 A 
ATOM     12  C   UNL     1       4.447   3.884  16.997  0.00  0.00    +0.000 A 
ATOM     13  C   UNL     1       5.722   4.190  17.497  0.00  0.00    +0.000 A 
ATOM     14  C   UNL     1       6.745   4.629  16.663  0.00  0.00    +0.000 A 
BRANCH   9  16
ATOM     15  N   UNL     1       8.388   5.631  13.746  0.00  0.00    +0.000 NA
ATOM     16  C   UNL     1       7.541   5.253  14.448  0.00  0.00    +0.000 C 
ENDBRANCH   9  16
ENDBRANCH   1  12
BRANCH   6  17
ATOM     17  N   UNL     1       2.472   7.175  20.444  0.00  0.00    +0.000 N 
ATOM     18  H   UNL     1       3.443   7.475  20.489  0.00  0.00    +0.000 HD
BRANCH  17  19
ATOM     19  C   UNL     1       1.642   8.151  19.818  0.00  0.00    +0.000 A 
ATOM     20  C   UNL     1       0.579   8.828  20.468  0.00  0.00    +0.000 A 
ATOM     21 BR   UNL     1       0.030   8.539  22.273  0.00  0.00    +0.000 Br
ATOM     22  C   UNL     1      -0.100   9.881  19.839  0.00  0.00    +0.000 A 
ATOM     23  C   UNL     1       0.289  10.305  18.582  0.00  0.00    +0.000 A 
ATOM     24  F   UNL     1      -0.317  11.364  18.029  0.00  0.00    +0.000 F 
ATOM     25  C   UNL     1       1.313   9.669  17.904  0.00  0.00    +0.000 A 
ATOM     26  C   UNL     1       1.970   8.594  18.511  0.00  0.00    +0.000 A 
ATOM     27 BR   UNL     1       3.339   7.739  17.497  0.00  0.00    +0.000 Br
ENDBRANCH  17  19
ENDBRANCH   6  17
TORSDOF 4
ENDMDL
MODEL 7
REMARK VINA RESULT:      -7.0      3.965      8.450
REMARK  Name = 
REMARK  4 active torsions:
REMARK  status: ('A' for Active; 'I' for Inactive)
REMARK    1  A    between atoms: C_2  and  C_3
REMARK    2  A    between atoms: C_6  and  N_7
REMARK    3  A    between atoms: C_12  and  N_13
REMARK    4  A    between atoms: N_13  and  C_14
REMARK                            x       y       z     vdW  Elec       q    Type
REMARK                         _______ _______ _______ _____ _____    ______ ____
ROOT
ATOM      1  N   UNL     1      -5.776  11.037  18.551  0.00  0.00    +0.000 N 
ATOM      2  C   UNL     1      -4.548  11.150  17.898  0.00  0.00    +0.000 A 
ATOM      3  N   UNL     1      -4.547  10.927  16.579  0.00  0.00    +0.000 NA
ATOM      4  C   UNL     1      -3.380  11.130  15.940  0.00  0.00    +0.000 A 
ATOM      5  C   UNL     1      -2.222  11.521  16.570  0.00  0.00    +0.000 A 
ATOM      6  C   UNL     1      -2.298  11.652  17.936  0.00  0.00    +0.000 A 
ATOM      7  N   UNL     1      -3.459  11.521  18.578  0.00  0.00    +0.000 NA
ATOM      8  H   UNL     1      -6.496  10.910  17.855  0.00  0.00    +0.000 HD
ENDROOT
BRANCH   1  12
ATOM      9  C   UNL     1      -7.072  12.681  22.205  0.00  0.00    +0.000 A 
ATOM     10  C   UNL     1      -7.604  11.477  21.734  0.00  0.00    +0.000 A 
ATOM     11  C   UNL     1      -7.134  10.929  20.539  0.00  0.00    +0.000 A 
ATOM     12  C   UNL     1      -6.161  11.589  19.781  0.00  0.00    +0.000 A 
ATOM     13  C   UNL     1      -5.621  12.778  20.293  0.00  0.00    +0.000 A 
ATOM     14  C   UNL     1      -6.078  13.332  21.483  0.00  0.00    +0.000 A 
BRANCH   9  16
ATOM     15  N   UNL     1      -7.917  13.696  24.432  0.00  0.00    +0.000 NA
ATOM     16  C   UNL     1      -7.541  13.243  23.428  0.00  0.00    +0.000 C 
ENDBRANCH   9  16
ENDBRANCH   1  12
BRANCH   6  17
ATOM     17  N   UNL     1      -1.131  11.921  18.680  0.00  0.00    +0.000 N 
ATOM     18  H   UNL     1      -0.955  12.923  18.672  0.00  0.00    +0.000 HD
BRANCH  17  19
ATOM     19  C   UNL     1      -0.739  11.321  19.912  0.00  0.00    +0.000 A 
ATOM     20  C   UNL     1      -1.156  11.778  21.189  0.00  0.00    +0.000 A 
ATOM     21 BR   UNL     1      -2.273  13.293  21.505  0.00  0.00    +0.000 Br
ATOM     22  C   UNL     1      -0.854  11.054  22.351  0.00  0.00    +0.000 A 
ATOM     23  C   UNL     1      -0.177   9.851  22.262  0.00  0.00    +0.000 A 
ATOM     24  F   UNL     1       0.033   9.133  23.373  0.00  0.00    +0.000 F 
ATOM     25  C   UNL     1       0.259   9.370  21.041  0.00  0.00    +0.000 A 
ATOM     26  C   UNL     1      -0.007  10.106  19.882  0.00  0.00    +0.000 A 
ATOM     27 BR   UNL     1       0.665   9.403  18.243  0.00  0.00    +0.000 Br
ENDBRANCH  17  19
ENDBRANCH   6  17
TORSDOF 4
ENDMDL
MODEL 8
REMARK VINA RESULT:      -7.0      4.684      8.653
REMARK  Name = 
REMARK  4 active torsions:
REMARK  status: ('A' for Active; 'I' for Inactive)
REMARK    1  A    between atoms: C_2  and  C_3
REMARK    2  A    between atoms: C_6  and  N_7
REMARK    3  A    between atoms: C_12  and  N_13
REMARK    4  A    between atoms: N_13  and  C_14
REMARK                            x       y       z     vdW  Elec       q    Type
REMARK                         _______ _______ _______ _____ _____    ______ ____
ROOT
ATOM      1  N   UNL     1      -5.882  12.612  23.181  0.00  0.00    +0.000 N 
ATOM      2  C   UNL     1      -5.932  12.210  21.846  0.00  0.00    +0.000 A 
ATOM      3  N   UNL     1      -6.975  11.453  21.486  0.00  0.00    +0.000 NA
ATOM      4  C   UNL     1      -7.068  11.147  20.179  0.00  0.00    +0.000 A 
ATOM      5  C   UNL     1      -6.153  11.548  19.234  0.00  0.00    +0.000 A 
ATOM      6  C   UNL     1      -5.075  12.257  19.706  0.00  0.00    +0.000 A 
ATOM      7  N   UNL     1      -4.999  12.626  20.985  0.00  0.00    +0.000 NA
ATOM      8  H   UNL     1      -6.744  12.337  23.629  0.00  0.00    +0.000 HD
ENDROOT
BRANCH   1  12
ATOM      9  C   UNL     1      -3.810  15.935  24.730  0.00  0.00    +0.000 A 
ATOM     10  C   UNL     1      -5.076  16.086  24.157  0.00  0.00    +0.000 A 
ATOM     11  C   UNL     1      -5.763  14.966  23.683  0.00  0.00    +0.000 A 
ATOM     12  C   UNL     1      -5.185  13.694  23.738  0.00  0.00    +0.000 A 
ATOM     13  C   UNL     1      -3.928  13.566  24.347  0.00  0.00    +0.000 A 
ATOM     14  C   UNL     1      -3.235  14.673  24.826  0.00  0.00    +0.000 A 
BRANCH   9  16
ATOM     15  N   UNL     1      -2.520  17.995  25.623  0.00  0.00    +0.000 NA
ATOM     16  C   UNL     1      -3.105  17.072  25.223  0.00  0.00    +0.000 C 
ENDBRANCH   9  16
ENDBRANCH   1  12
BRANCH   6  17
ATOM     17  N   UNL     1      -4.023  12.597  18.832  0.00  0.00    +0.000 N 
ATOM     18  H   UNL     1      -3.882  13.604  18.856  0.00  0.00    +0.000 HD
BRANCH  17  19
ATOM     19  C   UNL     1      -2.797  11.892  18.646  0.00  0.00    +0.000 A 
ATOM     20  C   UNL     1      -1.722  11.906  19.571  0.00  0.00    +0.000 A 
ATOM     21 BR   UNL     1      -1.688  12.893  21.205  0.00  0.00    +0.000 Br
ATOM     22  C   UNL     1      -0.607  11.074  19.398  0.00  0.00    +0.000 A 
ATOM     23  C   UNL     1      -0.560  10.189  18.336  0.00  0.00    +0.000 A 
ATOM     24  F   UNL     1       0.474   9.346  18.230  0.00  0.00    +0.000 F 
ATOM     25  C   UNL     1      -1.580  10.147  17.402  0.00  0.00    +0.000 A 
ATOM     26  C   UNL     1      -2.677  11.001  17.549  0.00  0.00    +0.000 A 
ATOM     27 BR   UNL     1      -4.019  10.918  16.198  0.00  0.00    +0.000 Br
ENDBRANCH  17  19
ENDBRANCH   6  17
TORSDOF 4
ENDMDL
MODEL 9
REMARK VINA RESULT:      -6.9      5.336      8.977
REMARK  Name = 
REMARK  4 active torsions:
REMARK  status: ('A' for Active; 'I' for Inactive)
REMARK    1  A    between atoms: C_2  and  C_3
REMARK    2  A    between atoms: C_6  and  N_7
REMARK    3  A    between atoms: C_12  and  N_13
REMARK    4  A    between atoms: N_13  and  C_14
REMARK                            x       y       z     vdW  Elec       q    Type
REMARK                         _______ _______ _______ _____ _____    ______ ____
ROOT
ATOM      1  N   UNL     1       2.087   5.461  20.686  0.00  0.00    +0.000 N 
ATOM      2  C   UNL     1       2.968   4.457  20.284  0.00  0.00    +0.000 A 
ATOM      3  N   UNL     1       2.630   3.201  20.598  0.00  0.00    +0.000 NA
ATOM      4  C   UNL     1       3.433   2.230  20.126  0.00  0.00    +0.000 A 
ATOM      5  C   UNL     1       4.562   2.470  19.378  0.00  0.00    +0.000 A 
ATOM      6  C   UNL     1       4.873   3.791  19.168  0.00  0.00    +0.000 A 
ATOM      7  N   UNL     1       4.055   4.765  19.571  0.00  0.00    +0.000 NA
ATOM      8  H   UNL     1       1.259   5.026  21.063  0.00  0.00    +0.000 HD
ENDROOT
BRANCH   1  12
ATOM      9  C   UNL     1       1.549   9.359  19.185  0.00  0.00    +0.000 A 
ATOM     10  C   UNL     1       1.194   9.043  20.500  0.00  0.00    +0.000 A 
ATOM     11  C   UNL     1       1.415   7.755  20.991  0.00  0.00    +0.000 A 
ATOM     12  C   UNL     1       1.954   6.758  20.171  0.00  0.00    +0.000 A 
ATOM     13  C   UNL     1       2.331   7.110  18.866  0.00  0.00    +0.000 A 
ATOM     14  C   UNL     1       2.119   8.391  18.367  0.00  0.00    +0.000 A 
BRANCH   9  16
ATOM     15  N   UNL     1       1.158  11.744  18.256  0.00  0.00    +0.000 NA
ATOM     16  C   UNL     1       1.332  10.674  18.679  0.00  0.00    +0.000 C 
ENDBRANCH   9  16
ENDBRANCH   1  12
BRANCH   6  17
ATOM     17  N   UNL     1       6.080   4.134  18.526  0.00  0.00    +0.000 N 
ATOM     18  H   UNL     1       6.191   3.557  17.695  0.00  0.00    +0.000 HD
BRANCH  17  19
ATOM     19  C   UNL     1       6.616   5.443  18.341  0.00  0.00    +0.000 A 
ATOM     20  C   UNL     1       7.654   5.997  19.132  0.00  0.00    +0.000 A 
ATOM     21 BR   UNL     1       8.499   5.129  20.607  0.00  0.00    +0.000 Br
ATOM     22  C   UNL     1       8.235   7.230  18.803  0.00  0.00    +0.000 A 
ATOM     23  C   UNL     1       7.828   7.907  17.667  0.00  0.00    +0.000 A 
ATOM     24  F   UNL     1       8.448   9.044  17.324  0.00  0.00    +0.000 F 
ATOM     25  C   UNL     1       6.812   7.412  16.871  0.00  0.00    +0.000 A 
ATOM     26  C   UNL     1       6.203   6.200  17.215  0.00  0.00    +0.000 A 
ATOM     27 BR   UNL     1       4.780   5.605  16.097  0.00  0.00    +0.000 Br
ENDBRANCH  17  19
ENDBRANCH   6  17
TORSDOF 4
ENDMDL
