MODEL 1
REMARK VINA RESULT:      -6.5      0.000      0.000
REMARK  Name = 
REMARK  7 active torsions:
REMARK  status: ('A' for Active; 'I' for Inactive)
REMARK    1  A    between atoms: C_1  and  C_2
REMARK    2  A    between atoms: N_4  and  C_5
REMARK    3  A    between atoms: C_5  and  C_6
REMARK    4  A    between atoms: C_6  and  C_7
REMARK    5  A    between atoms: C_10  and  S_11
REMARK    6  A    between atoms: N_12  and  C_13
REMARK    7  A    between atoms: C_14  and  C_15
REMARK                            x       y       z     vdW  Elec       q    Type
REMARK                         _______ _______ _______ _____ _____    ______ ____
ROOT
ATOM      1  C   UNL     1       5.948   4.798  18.947  0.00  0.00    +0.000 C 
ENDROOT
BRANCH   1   5
ATOM      2  C   UNL     1       1.605   6.257  20.514  0.00  0.00    +0.000 C 
ATOM      3  C   UNL     1       2.689   5.304  20.168  0.00  0.00    +0.000 A 
ATOM      4  N   UNL     1       3.836   5.738  19.631  0.00  0.00    +0.000 NA
ATOM      5  N   UNL     1       4.586   4.620  19.461  0.00  0.00    +0.000 N 
ATOM      6  C   UNL     1       3.936   3.477  19.873  0.00  0.00    +0.000 A 
ATOM      7  C   UNL     1       4.464   2.092  19.818  0.00  0.00    +0.000 C 
ATOM      8  C   UNL     1       2.713   3.911  20.332  0.00  0.00    +0.000 A 
ATOM      9 BR   UNL     1       1.321   2.879  21.046  0.00  0.00    +0.000 Br
ENDBRANCH   1   5
BRANCH   1  10
ATOM     10  C   UNL     1       5.982   5.938  17.933  0.00  0.00    +0.000 C 
BRANCH  10  11
ATOM     11  C   UNL     1       6.493   5.603  16.571  0.00  0.00    +0.000 A 
ATOM     12  N   UNL     1       7.591   6.012  15.970  0.00  0.00    +0.000 NA
ATOM     13  N   UNL     1       7.641   5.419  14.721  0.00  0.00    +0.000 NA
ATOM     14  C   UNL     1       6.575   4.664  14.590  0.00  0.00    +0.000 A 
ATOM     15  N   UNL     1       5.816   4.746  15.724  0.00  0.00    +0.000 N 
ATOM     16  C   UNL     1       4.569   4.097  16.032  0.00  0.00    +0.000 C 
BRANCH  14  17
ATOM     17  S   UNL     1       6.162   3.708  13.217  0.00  0.00    +0.000 S 
ATOM     18  H   UNL     1       5.823   2.590  13.874  0.00  0.00    +0.000 HD
ENDBRANCH  14  17
ENDBRANCH  10  11
ENDBRANCH   1  10
TORSDOF 4
ENDMDL
MODEL 2
REMARK VINA RESULT:      -6.5      1.264      2.229
REMARK  Name = 
REMARK  7 active torsions:
REMARK  status: ('A' for Active; 'I' for Inactive)
REMARK    1  A    between atoms: C_1  and  C_2
REMARK    2  A    between atoms: N_4  and  C_5
REMARK    3  A    between atoms: C_5  and  C_6
REMARK    4  A    between atoms: C_6  and  C_7
REMARK    5  A    between atoms: C_10  and  S_11
REMARK    6  A    between atoms: N_12  and  C_13
REMARK    7  A    between atoms: C_14  and  C_15
REMARK                            x       y       z     vdW  Elec       q    Type
REMARK                         _______ _______ _______ _____ _____    ______ ____
ROOT
ATOM      1  C   UNL     1       6.188   5.900  18.022  0.00  0.00    +0.000 C 
ENDROOT
BRANCH   1   5
ATOM      2  C   UNL     1       4.235   2.115  20.327  0.00  0.00    +0.000 C 
ATOM      3  C   UNL     1       4.280   3.439  19.657  0.00  0.00    +0.000 A 
ATOM      4  N   UNL     1       5.440   3.945  19.220  0.00  0.00    +0.000 NA
ATOM      5  N   UNL     1       5.110   5.138  18.662  0.00  0.00    +0.000 N 
ATOM      6  C   UNL     1       3.761   5.407  18.742  0.00  0.00    +0.000 A 
ATOM      7  C   UNL     1       3.071   6.621  18.241  0.00  0.00    +0.000 C 
ATOM      8  C   UNL     1       3.219   4.315  19.381  0.00  0.00    +0.000 A 
ATOM      9 BR   UNL     1       1.422   4.012  19.817  0.00  0.00    +0.000 Br
ENDBRANCH   1   5
BRANCH   1  10
ATOM     10  C   UNL     1       7.157   4.952  17.322  0.00  0.00    +0.000 C 
BRANCH  10  11
ATOM     11  C   UNL     1       7.086   4.908  15.832  0.00  0.00    +0.000 A 
ATOM     12  N   UNL     1       7.751   5.619  14.945  0.00  0.00    +0.000 NA
ATOM     13  N   UNL     1       7.355   5.210  13.684  0.00  0.00    +0.000 NA
ATOM     14  C   UNL     1       6.459   4.261  13.831  0.00  0.00    +0.000 A 
ATOM     15  N   UNL     1       6.250   4.034  15.163  0.00  0.00    +0.000 N 
ATOM     16  C   UNL     1       5.362   3.096  15.796  0.00  0.00    +0.000 C 
BRANCH  14  17
ATOM     17  S   UNL     1       5.650   3.414  12.567  0.00  0.00    +0.000 S 
ATOM     18  H   UNL     1       4.637   2.930  13.297  0.00  0.00    +0.000 HD
ENDBRANCH  14  17
ENDBRANCH  10  11
ENDBRANCH   1  10
TORSDOF 4
ENDMDL
MODEL 3
REMARK VINA RESULT:      -6.3      3.765      5.967
REMARK  Name = 
REMARK  7 active torsions:
REMARK  status: ('A' for Active; 'I' for Inactive)
REMARK    1  A    between atoms: C_1  and  C_2
REMARK    2  A    between atoms: N_4  and  C_5
REMARK    3  A    between atoms: C_5  and  C_6
REMARK    4  A    between atoms: C_6  and  C_7
REMARK    5  A    between atoms: C_10  and  S_11
REMARK    6  A    between atoms: N_12  and  C_13
REMARK    7  A    between atoms: C_14  and  C_15
REMARK                            x       y       z     vdW  Elec       q    Type
REMARK                         _______ _______ _______ _____ _____    ______ ____
ROOT
ATOM      1  C   UNL     1       4.873   3.750  16.683  0.00  0.00    +0.000 C 
ENDROOT
BRANCH   1   5
ATOM      2  C   UNL     1       8.129   5.604  19.750  0.00  0.00    +0.000 C 
ATOM      3  C   UNL     1       7.223   5.557  18.575  0.00  0.00    +0.000 A 
ATOM      4  N   UNL     1       6.520   4.451  18.298  0.00  0.00    +0.000 NA
ATOM      5  N   UNL     1       5.807   4.763  17.186  0.00  0.00    +0.000 N 
ATOM      6  C   UNL     1       6.047   6.046  16.743  0.00  0.00    +0.000 A 
ATOM      7  C   UNL     1       5.442   6.699  15.557  0.00  0.00    +0.000 C 
ATOM      8  C   UNL     1       6.958   6.564  17.636  0.00  0.00    +0.000 A 
ATOM      9 BR   UNL     1       7.722   8.275  17.636  0.00  0.00    +0.000 Br
ENDBRANCH   1   5
BRANCH   1  10
ATOM     10  C   UNL     1       3.439   4.145  17.022  0.00  0.00    +0.000 C 
BRANCH  10  11
ATOM     11  C   UNL     1       2.754   3.332  18.070  0.00  0.00    +0.000 A 
ATOM     12  N   UNL     1       2.132   2.177  17.955  0.00  0.00    +0.000 NA
ATOM     13  N   UNL     1       1.670   1.813  19.207  0.00  0.00    +0.000 NA
ATOM     14  C   UNL     1       2.020   2.753  20.055  0.00  0.00    +0.000 A 
ATOM     15  N   UNL     1       2.702   3.735  19.391  0.00  0.00    +0.000 N 
ATOM     16  C   UNL     1       3.271   4.952  19.905  0.00  0.00    +0.000 C 
BRANCH  14  17
ATOM     17  S   UNL     1       1.688   2.780  21.746  0.00  0.00    +0.000 S 
ATOM     18  H   UNL     1       2.131   1.549  22.034  0.00  0.00    +0.000 HD
ENDBRANCH  14  17
ENDBRANCH  10  11
ENDBRANCH   1  10
TORSDOF 4
ENDMDL
MODEL 4
REMARK VINA RESULT:      -6.3      0.821      2.094
REMARK  Name = 
REMARK  7 active torsions:
REMARK  status: ('A' for Active; 'I' for Inactive)
REMARK    1  A    between atoms: C_1  and  C_2
REMARK    2  A    between atoms: N_4  and  C_5
REMARK    3  A    between atoms: C_5  and  C_6
REMARK    4  A    between atoms: C_6  and  C_7
REMARK    5  A    between atoms: C_10  and  S_11
REMARK    6  A    between atoms: N_12  and  C_13
REMARK    7  A    between atoms: C_14  and  C_15
REMARK                            x       y       z     vdW  Elec       q    Type
REMARK                         _______ _______ _______ _____ _____    ______ ____
ROOT
ATOM      1  C   UNL     1       5.936   5.472  19.039  0.00  0.00    +0.000 C 
ENDROOT
BRANCH   1   5
ATOM      2  C   UNL     1       3.694   1.180  19.006  0.00  0.00    +0.000 C 
ATOM      3  C   UNL     1       3.847   2.646  19.179  0.00  0.00    +0.000 A 
ATOM      4  N   UNL     1       5.037   3.235  19.009  0.00  0.00    +0.000 NA
ATOM      5  N   UNL     1       4.808   4.554  19.229  0.00  0.00    +0.000 N 
ATOM      6  C   UNL     1       3.493   4.819  19.546  0.00  0.00    +0.000 A 
ATOM      7  C   UNL     1       2.908   6.147  19.852  0.00  0.00    +0.000 C 
ATOM      8  C   UNL     1       2.867   3.594  19.513  0.00  0.00    +0.000 A 
ATOM      9 BR   UNL     1       1.061   3.215  19.842  0.00  0.00    +0.000 Br
ENDBRANCH   1   5
BRANCH   1  10
ATOM     10  C   UNL     1       5.712   6.328  17.796  0.00  0.00    +0.000 C 
BRANCH  10  11
ATOM     11  C   UNL     1       6.358   5.854  16.537  0.00  0.00    +0.000 A 
ATOM     12  N   UNL     1       7.548   6.140  16.052  0.00  0.00    +0.000 NA
ATOM     13  N   UNL     1       7.703   5.450  14.863  0.00  0.00    +0.000 NA
ATOM     14  C   UNL     1       6.606   4.761  14.651  0.00  0.00    +0.000 A 
ATOM     15  N   UNL     1       5.724   4.982  15.672  0.00  0.00    +0.000 N 
ATOM     16  C   UNL     1       4.403   4.445  15.863  0.00  0.00    +0.000 C 
BRANCH  14  17
ATOM     17  S   UNL     1       6.290   3.731  13.305  0.00  0.00    +0.000 S 
ATOM     18  H   UNL     1       6.557   2.564  13.907  0.00  0.00    +0.000 HD
ENDBRANCH  14  17
ENDBRANCH  10  11
ENDBRANCH   1  10
TORSDOF 4
ENDMDL
MODEL 5
REMARK VINA RESULT:      -6.2      3.716      5.860
REMARK  Name = 
REMARK  7 active torsions:
REMARK  status: ('A' for Active; 'I' for Inactive)
REMARK    1  A    between atoms: C_1  and  C_2
REMARK    2  A    between atoms: N_4  and  C_5
REMARK    3  A    between atoms: C_5  and  C_6
REMARK    4  A    between atoms: C_6  and  C_7
REMARK    5  A    between atoms: C_10  and  S_11
REMARK    6  A    between atoms: N_12  and  C_13
REMARK    7  A    between atoms: C_14  and  C_15
REMARK                            x       y       z     vdW  Elec       q    Type
REMARK                         _______ _______ _______ _____ _____    ______ ____
ROOT
ATOM      1  C   UNL     1       4.704   3.742  16.877  0.00  0.00    +0.000 C 
ENDROOT
BRANCH   1   5
ATOM      2  C   UNL     1       8.131   5.579  19.763  0.00  0.00    +0.000 C 
ATOM      3  C   UNL     1       7.177   5.529  18.627  0.00  0.00    +0.000 A 
ATOM      4  N   UNL     1       6.434   4.436  18.406  0.00  0.00    +0.000 NA
ATOM      5  N   UNL     1       5.684   4.741  17.317  0.00  0.00    +0.000 N 
ATOM      6  C   UNL     1       5.939   6.006  16.833  0.00  0.00    +0.000 A 
ATOM      7  C   UNL     1       5.302   6.647  15.656  0.00  0.00    +0.000 C 
ATOM      8  C   UNL     1       6.899   6.520  17.675  0.00  0.00    +0.000 A 
ATOM      9 BR   UNL     1       7.707   8.210  17.602  0.00  0.00    +0.000 Br
ENDBRANCH   1   5
BRANCH   1  10
ATOM     10  C   UNL     1       3.290   4.219  17.195  0.00  0.00    +0.000 C 
BRANCH  10  11
ATOM     11  C   UNL     1       2.921   4.293  18.639  0.00  0.00    +0.000 A 
ATOM     12  N   UNL     1       3.000   5.312  19.469  0.00  0.00    +0.000 NA
ATOM     13  N   UNL     1       2.527   4.899  20.702  0.00  0.00    +0.000 NA
ATOM     14  C   UNL     1       2.171   3.639  20.595  0.00  0.00    +0.000 A 
ATOM     15  N   UNL     1       2.401   3.207  19.319  0.00  0.00    +0.000 N 
ATOM     16  C   UNL     1       2.169   1.909  18.744  0.00  0.00    +0.000 C 
BRANCH  14  17
ATOM     17  S   UNL     1       1.516   2.653  21.848  0.00  0.00    +0.000 S 
ATOM     18  H   UNL     1       1.677   1.468  21.243  0.00  0.00    +0.000 HD
ENDBRANCH  14  17
ENDBRANCH  10  11
ENDBRANCH   1  10
TORSDOF 4
ENDMDL
MODEL 6
REMARK VINA RESULT:      -6.1      2.123      2.648
REMARK  Name = 
REMARK  7 active torsions:
REMARK  status: ('A' for Active; 'I' for Inactive)
REMARK    1  A    between atoms: C_1  and  C_2
REMARK    2  A    between atoms: N_4  and  C_5
REMARK    3  A    between atoms: C_5  and  C_6
REMARK    4  A    between atoms: C_6  and  C_7
REMARK    5  A    between atoms: C_10  and  S_11
REMARK    6  A    between atoms: N_12  and  C_13
REMARK    7  A    between atoms: C_14  and  C_15
REMARK                            x       y       z     vdW  Elec       q    Type
REMARK                         _______ _______ _______ _____ _____    ______ ____
ROOT
ATOM      1  C   UNL     1       3.964   4.022  16.704  0.00  0.00    +0.000 C 
ENDROOT
BRANCH   1   5
ATOM      2  C   UNL     1       1.760   6.049  20.510  0.00  0.00    +0.000 C 
ATOM      3  C   UNL     1       2.299   4.960  19.656  0.00  0.00    +0.000 A 
ATOM      4  N   UNL     1       2.858   5.234  18.471  0.00  0.00    +0.000 NA
ATOM      5  N   UNL     1       3.243   4.028  17.981  0.00  0.00    +0.000 N 
ATOM      6  C   UNL     1       2.933   2.987  18.829  0.00  0.00    +0.000 A 
ATOM      7  C   UNL     1       3.205   1.547  18.597  0.00  0.00    +0.000 C 
ATOM      8  C   UNL     1       2.326   3.581  19.912  0.00  0.00    +0.000 A 
ATOM      9 BR   UNL     1       1.651   2.752  21.452  0.00  0.00    +0.000 Br
ENDBRANCH   1   5
BRANCH   1  10
ATOM     10  C   UNL     1       5.456   3.815  16.945  0.00  0.00    +0.000 C 
BRANCH  10  11
ATOM     11  C   UNL     1       6.326   5.021  16.816  0.00  0.00    +0.000 A 
ATOM     12  N   UNL     1       6.835   5.570  15.733  0.00  0.00    +0.000 NA
ATOM     13  N   UNL     1       7.563   6.682  16.118  0.00  0.00    +0.000 NA
ATOM     14  C   UNL     1       7.481   6.784  17.424  0.00  0.00    +0.000 A 
ATOM     15  N   UNL     1       6.718   5.762  17.915  0.00  0.00    +0.000 N 
ATOM     16  C   UNL     1       6.359   5.469  19.277  0.00  0.00    +0.000 C 
BRANCH  14  17
ATOM     17  S   UNL     1       8.213   8.001  18.402  0.00  0.00    +0.000 S 
ATOM     18  H   UNL     1       7.340   7.961  19.418  0.00  0.00    +0.000 HD
ENDBRANCH  14  17
ENDBRANCH  10  11
ENDBRANCH   1  10
TORSDOF 4
ENDMDL
MODEL 7
REMARK VINA RESULT:      -6.0      2.634      3.564
REMARK  Name = 
REMARK  7 active torsions:
REMARK  status: ('A' for Active; 'I' for Inactive)
REMARK    1  A    between atoms: C_1  and  C_2
REMARK    2  A    between atoms: N_4  and  C_5
REMARK    3  A    between atoms: C_5  and  C_6
REMARK    4  A    between atoms: C_6  and  C_7
REMARK    5  A    between atoms: C_10  and  S_11
REMARK    6  A    between atoms: N_12  and  C_13
REMARK    7  A    between atoms: C_14  and  C_15
REMARK                            x       y       z     vdW  Elec       q    Type
REMARK                         _______ _______ _______ _____ _____    ______ ____
ROOT
ATOM      1  C   UNL     1       3.099   3.593  18.302  0.00  0.00    +0.000 C 
ENDROOT
BRANCH   1   5
ATOM      2  C   UNL     1       2.277   8.332  17.742  0.00  0.00    +0.000 C 
ATOM      3  C   UNL     1       2.347   7.026  18.443  0.00  0.00    +0.000 A 
ATOM      4  N   UNL     1       2.706   5.915  17.787  0.00  0.00    +0.000 NA
ATOM      5  N   UNL     1       2.675   4.933  18.722  0.00  0.00    +0.000 N 
ATOM      6  C   UNL     1       2.294   5.394  19.964  0.00  0.00    +0.000 A 
ATOM      7  C   UNL     1       2.150   4.586  21.200  0.00  0.00    +0.000 C 
ATOM      8  C   UNL     1       2.084   6.743  19.792  0.00  0.00    +0.000 A 
ATOM      9 BR   UNL     1       1.550   7.997  21.078  0.00  0.00    +0.000 Br
ENDBRANCH   1   5
BRANCH   1  10
ATOM     10  C   UNL     1       4.448   3.668  17.594  0.00  0.00    +0.000 C 
BRANCH  10  11
ATOM     11  C   UNL     1       5.504   4.489  18.258  0.00  0.00    +0.000 A 
ATOM     12  N   UNL     1       6.029   4.359  19.458  0.00  0.00    +0.000 NA
ATOM     13  N   UNL     1       6.983   5.348  19.618  0.00  0.00    +0.000 NA
ATOM     14  C   UNL     1       7.017   6.057  18.513  0.00  0.00    +0.000 A 
ATOM     15  N   UNL     1       6.103   5.562  17.625  0.00  0.00    +0.000 N 
ATOM     16  C   UNL     1       5.789   6.017  16.297  0.00  0.00    +0.000 C 
BRANCH  14  17
ATOM     17  S   UNL     1       8.037   7.410  18.198  0.00  0.00    +0.000 S 
ATOM     18  H   UNL     1       8.284   7.149  16.907  0.00  0.00    +0.000 HD
ENDBRANCH  14  17
ENDBRANCH  10  11
ENDBRANCH   1  10
TORSDOF 4
ENDMDL
MODEL 8
REMARK VINA RESULT:      -5.8      2.232      2.743
REMARK  Name = 
REMARK  7 active torsions:
REMARK  status: ('A' for Active; 'I' for Inactive)
REMARK    1  A    between atoms: C_1  and  C_2
REMARK    2  A    between atoms: N_4  and  C_5
REMARK    3  A    between atoms: C_5  and  C_6
REMARK    4  A    between atoms: C_6  and  C_7
REMARK    5  A    between atoms: C_10  and  S_11
REMARK    6  A    between atoms: N_12  and  C_13
REMARK    7  A    between atoms: C_14  and  C_15
REMARK                            x       y       z     vdW  Elec       q    Type
REMARK                         _______ _______ _______ _____ _____    ______ ____
ROOT
ATOM      1  C   UNL     1       4.051   4.190  16.807  0.00  0.00    +0.000 C 
ENDROOT
BRANCH   1   5
ATOM      2  C   UNL     1       1.760   6.014  20.664  0.00  0.00    +0.000 C 
ATOM      3  C   UNL     1       2.343   4.973  19.780  0.00  0.00    +0.000 A 
ATOM      4  N   UNL     1       2.894   5.304  18.605  0.00  0.00    +0.000 NA
ATOM      5  N   UNL     1       3.327   4.129  18.081  0.00  0.00    +0.000 N 
ATOM      6  C   UNL     1       3.056   3.052  18.897  0.00  0.00    +0.000 A 
ATOM      7  C   UNL     1       3.385   1.632  18.623  0.00  0.00    +0.000 C 
ATOM      8  C   UNL     1       2.424   3.590  19.995  0.00  0.00    +0.000 A 
ATOM      9 BR   UNL     1       1.779   2.689  21.507  0.00  0.00    +0.000 Br
ENDBRANCH   1   5
BRANCH   1  10
ATOM     10  C   UNL     1       5.507   3.782  17.010  0.00  0.00    +0.000 C 
BRANCH  10  11
ATOM     11  C   UNL     1       6.402   4.800  17.634  0.00  0.00    +0.000 A 
ATOM     12  N   UNL     1       7.220   4.675  18.658  0.00  0.00    +0.000 NA
ATOM     13  N   UNL     1       7.849   5.892  18.855  0.00  0.00    +0.000 NA
ATOM     14  C   UNL     1       7.401   6.729  17.948  0.00  0.00    +0.000 A 
ATOM     15  N   UNL     1       6.485   6.095  17.155  0.00  0.00    +0.000 N 
ATOM     16  C   UNL     1       5.735   6.612  16.042  0.00  0.00    +0.000 C 
BRANCH  14  17
ATOM     17  S   UNL     1       7.867   8.377  17.758  0.00  0.00    +0.000 S 
ATOM     18  H   UNL     1       8.533   8.242  16.603  0.00  0.00    +0.000 HD
ENDBRANCH  14  17
ENDBRANCH  10  11
ENDBRANCH   1  10
TORSDOF 4
ENDMDL
MODEL 9
REMARK VINA RESULT:      -5.8      3.333      6.067
REMARK  Name = 
REMARK  7 active torsions:
REMARK  status: ('A' for Active; 'I' for Inactive)
REMARK    1  A    between atoms: C_1  and  C_2
REMARK    2  A    between atoms: N_4  and  C_5
REMARK    3  A    between atoms: C_5  and  C_6
REMARK    4  A    between atoms: C_6  and  C_7
REMARK    5  A    between atoms: C_10  and  S_11
REMARK    6  A    between atoms: N_12  and  C_13
REMARK    7  A    between atoms: C_14  and  C_15
REMARK                            x       y       z     vdW  Elec       q    Type
REMARK                         _______ _______ _______ _____ _____    ______ ____
ROOT
ATOM      1  C   UNL     1       7.238   4.854  17.294  0.00  0.00    +0.000 C 
ENDROOT
BRANCH   1   5
ATOM      2  C   UNL     1       7.948   5.567  12.558  0.00  0.00    +0.000 C 
ATOM      3  C   UNL     1       7.335   4.992  13.781  0.00  0.00    +0.000 A 
ATOM      4  N   UNL     1       7.796   5.319  14.995  0.00  0.00    +0.000 NA
ATOM      5  N   UNL     1       7.009   4.633  15.862  0.00  0.00    +0.000 N 
ATOM      6  C   UNL     1       6.057   3.867  15.224  0.00  0.00    +0.000 A 
ATOM      7  C   UNL     1       5.048   2.993  15.870  0.00  0.00    +0.000 C 
ATOM      8  C   UNL     1       6.261   4.096  13.882  0.00  0.00    +0.000 A 
ATOM      9 BR   UNL     1       5.312   3.375  12.435  0.00  0.00    +0.000 Br
ENDBRANCH   1   5
BRANCH   1  10
ATOM     10  C   UNL     1       6.087   5.658  17.891  0.00  0.00    +0.000 C 
BRANCH  10  11
ATOM     11  C   UNL     1       5.106   4.900  18.723  0.00  0.00    +0.000 A 
ATOM     12  N   UNL     1       5.264   3.765  19.371  0.00  0.00    +0.000 NA
ATOM     13  N   UNL     1       4.074   3.468  20.011  0.00  0.00    +0.000 NA
ATOM     14  C   UNL     1       3.219   4.427  19.739  0.00  0.00    +0.000 A 
ATOM     15  N   UNL     1       3.816   5.353  18.929  0.00  0.00    +0.000 N 
ATOM     16  C   UNL     1       3.270   6.564  18.378  0.00  0.00    +0.000 C 
BRANCH  14  17
ATOM     17  S   UNL     1       1.592   4.535  20.295  0.00  0.00    +0.000 S 
ATOM     18  H   UNL     1       1.857   4.623  21.605  0.00  0.00    +0.000 HD
ENDBRANCH  14  17
ENDBRANCH  10  11
ENDBRANCH   1  10
TORSDOF 4
ENDMDL
