MODEL 1
REMARK VINA RESULT:      -6.9      0.000      0.000
REMARK  Name = 
REMARK  10 active torsions:
REMARK  status: ('A' for Active; 'I' for Inactive)
REMARK    1  A    between atoms: C_1  and  C_2
REMARK    2  A    between atoms: C_7  and  N_8
REMARK    3  A    between atoms: N_8  and  C_9
REMARK    4  A    between atoms: C_9  and  C_10
REMARK    5  A    between atoms: C_10  and  N_11
REMARK    6  A    between atoms: N_11  and  C_12
REMARK    7  A    between atoms: C_12  and  C_13
REMARK    8  A    between atoms: C_17  and  C_18
REMARK    9  A    between atoms: C_18  and  C_19
REMARK   10  A    between atoms: C_18  and  C_20
REMARK                            x       y       z     vdW  Elec       q    Type
REMARK                         _______ _______ _______ _____ _____    ______ ____
ROOT
ATOM      1  N   UNL     1       5.176   5.441  16.316  0.00  0.00    +0.000 NA
ATOM      2  H   UNL     1       4.963   6.315  15.830  0.00  0.00    +0.000 HD
ENDROOT
BRANCH   1   3
ATOM      3  C   UNL     1       4.970   5.631  17.766  0.00  0.00    +0.000 C 
BRANCH   3   4
ATOM      4  C   UNL     1       5.318   4.387  18.608  0.00  0.00    +0.000 C 
BRANCH   4   5
ATOM      5  N   UNL     1       4.407   3.274  18.383  0.00  0.00    +0.000 N 
ATOM      6  H   UNL     1       4.155   3.193  17.400  0.00  0.00    +0.000 HD
BRANCH   5  13
ATOM      7  C   UNL     1       1.499   4.227  17.652  0.00  0.00    +0.000 C 
ATOM      8  C   UNL     1       1.966   3.593  18.931  0.00  0.00    +0.000 A 
ATOM      9  C   UNL     1       0.997   3.450  19.934  0.00  0.00    +0.000 A 
ATOM     10  N   UNL     1       1.211   2.930  21.158  0.00  0.00    +0.000 NA
ATOM     11  C   UNL     1       2.470   2.542  21.416  0.00  0.00    +0.000 A 
ATOM     12  C   UNL     1       3.508   2.640  20.503  0.00  0.00    +0.000 A 
ATOM     13  C   UNL     1       3.273   3.147  19.211  0.00  0.00    +0.000 A 
ENDBRANCH   5  13
ENDBRANCH   4   5
ENDBRANCH   3   4
ENDBRANCH   1   3
BRANCH   1  14
ATOM     14  C   UNL     1       6.572   5.083  16.002  0.00  0.00    +0.000 C 
BRANCH  14  15
ATOM     15  C   UNL     1       6.794   4.798  14.534  0.00  0.00    +0.000 A 
ATOM     16  C   UNL     1       7.734   5.507  13.818  0.00  0.00    +0.000 A 
ATOM     17  C   UNL     1       7.844   5.179  12.488  0.00  0.00    +0.000 A 
ATOM     18  N   UNL     1       7.097   4.235  11.885  0.00  0.00    +0.000 NA
ATOM     19  C   UNL     1       6.205   3.589  12.658  0.00  0.00    +0.000 A 
ATOM     20  N   UNL     1       6.023   3.835  13.970  0.00  0.00    +0.000 NA
BRANCH  19  21
ATOM     21  C   UNL     1       5.370   2.509  12.005  0.00  0.00    +0.000 C 
ATOM     22  C   UNL     1       4.210   3.118  11.217  0.00  0.00    +0.000 C 
ATOM     23  C   UNL     1       6.220   1.606  11.112  0.00  0.00    +0.000 C 
ENDBRANCH  19  21
ENDBRANCH  14  15
ENDBRANCH   1  14
TORSDOF 7
ENDMDL
MODEL 2
REMARK VINA RESULT:      -6.8      1.523      1.851
REMARK  Name = 
REMARK  10 active torsions:
REMARK  status: ('A' for Active; 'I' for Inactive)
REMARK    1  A    between atoms: C_1  and  C_2
REMARK    2  A    between atoms: C_7  and  N_8
REMARK    3  A    between atoms: N_8  and  C_9
REMARK    4  A    between atoms: C_9  and  C_10
REMARK    5  A    between atoms: C_10  and  N_11
REMARK    6  A    between atoms: N_11  and  C_12
REMARK    7  A    between atoms: C_12  and  C_13
REMARK    8  A    between atoms: C_17  and  C_18
REMARK    9  A    between atoms: C_18  and  C_19
REMARK   10  A    between atoms: C_18  and  C_20
REMARK                            x       y       z     vdW  Elec       q    Type
REMARK                         _______ _______ _______ _____ _____    ______ ____
ROOT
ATOM      1  N   UNL     1       7.149   6.179  16.455  0.00  0.00    +0.000 NA
ATOM      2  H   UNL     1       8.083   6.171  16.869  0.00  0.00    +0.000 HD
ENDROOT
BRANCH   1   3
ATOM      3  C   UNL     1       6.180   6.668  17.456  0.00  0.00    +0.000 C 
BRANCH   3   4
ATOM      4  C   UNL     1       4.720   6.275  17.149  0.00  0.00    +0.000 C 
BRANCH   4   5
ATOM      5  N   UNL     1       3.927   6.051  18.349  0.00  0.00    +0.000 N 
ATOM      6  H   UNL     1       4.500   6.103  19.189  0.00  0.00    +0.000 HD
BRANCH   5  13
ATOM      7  C   UNL     1       1.649   5.598  20.472  0.00  0.00    +0.000 C 
ATOM      8  C   UNL     1       2.054   4.689  19.347  0.00  0.00    +0.000 A 
ATOM      9  C   UNL     1       1.362   3.473  19.262  0.00  0.00    +0.000 A 
ATOM     10  N   UNL     1       1.584   2.510  18.346  0.00  0.00    +0.000 NA
ATOM     11  C   UNL     1       2.568   2.756  17.467  0.00  0.00    +0.000 A 
ATOM     12  C   UNL     1       3.321   3.920  17.460  0.00  0.00    +0.000 A 
ATOM     13  C   UNL     1       3.060   4.941  18.392  0.00  0.00    +0.000 A 
ENDBRANCH   5  13
ENDBRANCH   4   5
ENDBRANCH   3   4
ENDBRANCH   1   3
BRANCH   1  14
ATOM     14  C   UNL     1       6.840   4.805  16.017  0.00  0.00    +0.000 C 
BRANCH  14  15
ATOM     15  C   UNL     1       6.939   4.624  14.519  0.00  0.00    +0.000 A 
ATOM     16  C   UNL     1       7.791   5.410  13.775  0.00  0.00    +0.000 A 
ATOM     17  C   UNL     1       7.792   5.174  12.421  0.00  0.00    +0.000 A 
ATOM     18  N   UNL     1       7.021   4.247  11.823  0.00  0.00    +0.000 NA
ATOM     19  C   UNL     1       6.221   3.521  12.624  0.00  0.00    +0.000 A 
ATOM     20  N   UNL     1       6.149   3.675  13.960  0.00  0.00    +0.000 NA
BRANCH  19  21
ATOM     21  C   UNL     1       5.362   2.458  11.974  0.00  0.00    +0.000 C 
ATOM     22  C   UNL     1       4.192   3.088  11.217  0.00  0.00    +0.000 C 
ATOM     23  C   UNL     1       6.185   1.558  11.052  0.00  0.00    +0.000 C 
ENDBRANCH  19  21
ENDBRANCH  14  15
ENDBRANCH   1  14
TORSDOF 7
ENDMDL
MODEL 3
REMARK VINA RESULT:      -6.6      2.354      4.478
REMARK  Name = 
REMARK  10 active torsions:
REMARK  status: ('A' for Active; 'I' for Inactive)
REMARK    1  A    between atoms: C_1  and  C_2
REMARK    2  A    between atoms: C_7  and  N_8
REMARK    3  A    between atoms: N_8  and  C_9
REMARK    4  A    between atoms: C_9  and  C_10
REMARK    5  A    between atoms: C_10  and  N_11
REMARK    6  A    between atoms: N_11  and  C_12
REMARK    7  A    between atoms: C_12  and  C_13
REMARK    8  A    between atoms: C_17  and  C_18
REMARK    9  A    between atoms: C_18  and  C_19
REMARK   10  A    between atoms: C_18  and  C_20
REMARK                            x       y       z     vdW  Elec       q    Type
REMARK                         _______ _______ _______ _____ _____    ______ ____
ROOT
ATOM      1  N   UNL     1       4.429   2.274  17.353  0.00  0.00    +0.000 NA
ATOM      2  H   UNL     1       4.231   1.483  16.737  0.00  0.00    +0.000 HD
ENDROOT
BRANCH   1   3
ATOM      3  C   UNL     1       3.620   2.143  18.582  0.00  0.00    +0.000 C 
BRANCH   3   4
ATOM      4  C   UNL     1       2.164   1.708  18.322  0.00  0.00    +0.000 C 
BRANCH   4   5
ATOM      5  N   UNL     1       1.215   2.808  18.415  0.00  0.00    +0.000 N 
ATOM      6  H   UNL     1       0.802   3.019  17.508  0.00  0.00    +0.000 HD
BRANCH   5  13
ATOM      7  C   UNL     1       1.367   3.166  21.537  0.00  0.00    +0.000 C 
ATOM      8  C   UNL     1       1.650   4.191  20.477  0.00  0.00    +0.000 A 
ATOM      9  C   UNL     1       1.979   5.474  20.938  0.00  0.00    +0.000 A 
ATOM     10  N   UNL     1       2.246   6.540  20.158  0.00  0.00    +0.000 NA
ATOM     11  C   UNL     1       2.164   6.330  18.835  0.00  0.00    +0.000 A 
ATOM     12  C   UNL     1       1.843   5.107  18.268  0.00  0.00    +0.000 A 
ATOM     13  C   UNL     1       1.605   3.986  19.084  0.00  0.00    +0.000 A 
ENDBRANCH   5  13
ENDBRANCH   4   5
ENDBRANCH   3   4
ENDBRANCH   1   3
BRANCH   1  14
ATOM     14  C   UNL     1       4.110   3.509  16.614  0.00  0.00    +0.000 C 
BRANCH  14  15
ATOM     15  C   UNL     1       5.340   4.263  16.163  0.00  0.00    +0.000 A 
ATOM     16  C   UNL     1       5.777   4.172  14.859  0.00  0.00    +0.000 A 
ATOM     17  C   UNL     1       6.913   4.884  14.558  0.00  0.00    +0.000 A 
ATOM     18  N   UNL     1       7.586   5.632  15.452  0.00  0.00    +0.000 NA
ATOM     19  C   UNL     1       7.089   5.667  16.702  0.00  0.00    +0.000 A 
ATOM     20  N   UNL     1       5.983   5.008  17.095  0.00  0.00    +0.000 NA
BRANCH  19  21
ATOM     21  C   UNL     1       7.820   6.519  17.718  0.00  0.00    +0.000 C 
ATOM     22  C   UNL     1       7.400   7.985  17.604  0.00  0.00    +0.000 C 
ATOM     23  C   UNL     1       7.609   6.002  19.140  0.00  0.00    +0.000 C 
ENDBRANCH  19  21
ENDBRANCH  14  15
ENDBRANCH   1  14
TORSDOF 7
ENDMDL
MODEL 4
REMARK VINA RESULT:      -6.6      3.332      5.739
REMARK  Name = 
REMARK  10 active torsions:
REMARK  status: ('A' for Active; 'I' for Inactive)
REMARK    1  A    between atoms: C_1  and  C_2
REMARK    2  A    between atoms: C_7  and  N_8
REMARK    3  A    between atoms: N_8  and  C_9
REMARK    4  A    between atoms: C_9  and  C_10
REMARK    5  A    between atoms: C_10  and  N_11
REMARK    6  A    between atoms: N_11  and  C_12
REMARK    7  A    between atoms: C_12  and  C_13
REMARK    8  A    between atoms: C_17  and  C_18
REMARK    9  A    between atoms: C_18  and  C_19
REMARK   10  A    between atoms: C_18  and  C_20
REMARK                            x       y       z     vdW  Elec       q    Type
REMARK                         _______ _______ _______ _____ _____    ______ ____
ROOT
ATOM      1  N   UNL     1       3.473   2.897  20.859  0.00  0.00    +0.000 NA
ATOM      2  H   UNL     1       3.210   2.173  21.530  0.00  0.00    +0.000 HD
ENDROOT
BRANCH   1   3
ATOM      3  C   UNL     1       2.269   3.662  20.476  0.00  0.00    +0.000 C 
BRANCH   3   4
ATOM      4  C   UNL     1       2.271   5.117  20.988  0.00  0.00    +0.000 C 
BRANCH   4   5
ATOM      5  N   UNL     1       2.837   6.057  20.031  0.00  0.00    +0.000 N 
ATOM      6  H   UNL     1       3.826   6.218  20.210  0.00  0.00    +0.000 HD
BRANCH   5  13
ATOM      7  C   UNL     1       3.134   7.828  17.447  0.00  0.00    +0.000 C 
ATOM      8  C   UNL     1       2.295   8.103  18.661  0.00  0.00    +0.000 A 
ATOM      9  C   UNL     1       1.594   9.318  18.659  0.00  0.00    +0.000 A 
ATOM     10  N   UNL     1       0.805   9.767  19.654  0.00  0.00    +0.000 NA
ATOM     11  C   UNL     1       0.717   8.972  20.732  0.00  0.00    +0.000 A 
ATOM     12  C   UNL     1       1.368   7.754  20.847  0.00  0.00    +0.000 A 
ATOM     13  C   UNL     1       2.159   7.269  19.789  0.00  0.00    +0.000 A 
ENDBRANCH   5  13
ENDBRANCH   4   5
ENDBRANCH   3   4
ENDBRANCH   1   3
BRANCH   1  14
ATOM     14  C   UNL     1       4.092   2.230  19.698  0.00  0.00    +0.000 C 
BRANCH  14  15
ATOM     15  C   UNL     1       4.539   3.200  18.628  0.00  0.00    +0.000 A 
ATOM     16  C   UNL     1       3.798   3.361  17.477  0.00  0.00    +0.000 A 
ATOM     17  C   UNL     1       4.302   4.255  16.563  0.00  0.00    +0.000 A 
ATOM     18  N   UNL     1       5.444   4.945  16.742  0.00  0.00    +0.000 NA
ATOM     19  C   UNL     1       6.103   4.730  17.895  0.00  0.00    +0.000 A 
ATOM     20  N   UNL     1       5.691   3.878  18.853  0.00  0.00    +0.000 NA
BRANCH  19  21
ATOM     21  C   UNL     1       7.378   5.512  18.126  0.00  0.00    +0.000 C 
ATOM     22  C   UNL     1       7.357   6.831  17.352  0.00  0.00    +0.000 C 
ATOM     23  C   UNL     1       7.624   5.758  19.614  0.00  0.00    +0.000 C 
ENDBRANCH  19  21
ENDBRANCH  14  15
ENDBRANCH   1  14
TORSDOF 7
ENDMDL
MODEL 5
REMARK VINA RESULT:      -6.5      3.342      5.560
REMARK  Name = 
REMARK  10 active torsions:
REMARK  status: ('A' for Active; 'I' for Inactive)
REMARK    1  A    between atoms: C_1  and  C_2
REMARK    2  A    between atoms: C_7  and  N_8
REMARK    3  A    between atoms: N_8  and  C_9
REMARK    4  A    between atoms: C_9  and  C_10
REMARK    5  A    between atoms: C_10  and  N_11
REMARK    6  A    between atoms: N_11  and  C_12
REMARK    7  A    between atoms: C_12  and  C_13
REMARK    8  A    between atoms: C_17  and  C_18
REMARK    9  A    between atoms: C_18  and  C_19
REMARK   10  A    between atoms: C_18  and  C_20
REMARK                            x       y       z     vdW  Elec       q    Type
REMARK                         _______ _______ _______ _____ _____    ______ ____
ROOT
ATOM      1  N   UNL     1       3.624   3.474  18.610  0.00  0.00    +0.000 NA
ATOM      2  H   UNL     1       3.712   2.561  19.059  0.00  0.00    +0.000 HD
ENDROOT
BRANCH   1   3
ATOM      3  C   UNL     1       2.251   3.982  18.810  0.00  0.00    +0.000 C 
BRANCH   3   4
ATOM      4  C   UNL     1       1.994   5.351  18.150  0.00  0.00    +0.000 C 
BRANCH   4   5
ATOM      5  N   UNL     1       2.865   6.401  18.658  0.00  0.00    +0.000 N 
ATOM      6  H   UNL     1       3.383   6.089  19.478  0.00  0.00    +0.000 HD
BRANCH   5  13
ATOM      7  C   UNL     1       1.262   7.344  21.197  0.00  0.00    +0.000 C 
ATOM      8  C   UNL     1       1.578   8.135  19.961  0.00  0.00    +0.000 A 
ATOM      9  C   UNL     1       1.057   9.436  19.916  0.00  0.00    +0.000 A 
ATOM     10  N   UNL     1       1.203  10.302  18.894  0.00  0.00    +0.000 NA
ATOM     11  C   UNL     1       1.893   9.846  17.837  0.00  0.00    +0.000 A 
ATOM     12  C   UNL     1       2.449   8.578  17.769  0.00  0.00    +0.000 A 
ATOM     13  C   UNL     1       2.329   7.691  18.854  0.00  0.00    +0.000 A 
ENDBRANCH   5  13
ENDBRANCH   4   5
ENDBRANCH   3   4
ENDBRANCH   1   3
BRANCH   1  14
ATOM     14  C   UNL     1       3.944   3.305  17.181  0.00  0.00    +0.000 C 
BRANCH  14  15
ATOM     15  C   UNL     1       5.107   4.158  16.730  0.00  0.00    +0.000 A 
ATOM     16  C   UNL     1       5.640   4.004  15.468  0.00  0.00    +0.000 A 
ATOM     17  C   UNL     1       6.705   4.818  15.166  0.00  0.00    +0.000 A 
ATOM     18  N   UNL     1       7.225   5.719  16.021  0.00  0.00    +0.000 NA
ATOM     19  C   UNL     1       6.643   5.806  17.230  0.00  0.00    +0.000 A 
ATOM     20  N   UNL     1       5.595   5.056  17.621  0.00  0.00    +0.000 NA
BRANCH  19  21
ATOM     21  C   UNL     1       7.199   6.828  18.199  0.00  0.00    +0.000 C 
ATOM     22  C   UNL     1       8.158   6.173  19.192  0.00  0.00    +0.000 C 
ATOM     23  C   UNL     1       7.879   7.984  17.466  0.00  0.00    +0.000 C 
ENDBRANCH  19  21
ENDBRANCH  14  15
ENDBRANCH   1  14
TORSDOF 7
ENDMDL
MODEL 6
REMARK VINA RESULT:      -6.5      3.281      4.514
REMARK  Name = 
REMARK  10 active torsions:
REMARK  status: ('A' for Active; 'I' for Inactive)
REMARK    1  A    between atoms: C_1  and  C_2
REMARK    2  A    between atoms: C_7  and  N_8
REMARK    3  A    between atoms: N_8  and  C_9
REMARK    4  A    between atoms: C_9  and  C_10
REMARK    5  A    between atoms: C_10  and  N_11
REMARK    6  A    between atoms: N_11  and  C_12
REMARK    7  A    between atoms: C_12  and  C_13
REMARK    8  A    between atoms: C_17  and  C_18
REMARK    9  A    between atoms: C_18  and  C_19
REMARK   10  A    between atoms: C_18  and  C_20
REMARK                            x       y       z     vdW  Elec       q    Type
REMARK                         _______ _______ _______ _____ _____    ______ ____
ROOT
ATOM      1  N   UNL     1       3.997   4.766  19.044  0.00  0.00    +0.000 NA
ATOM      2  H   UNL     1       4.864   4.366  19.406  0.00  0.00    +0.000 HD
ENDROOT
BRANCH   1   3
ATOM      3  C   UNL     1       2.858   4.232  19.818  0.00  0.00    +0.000 C 
BRANCH   3   4
ATOM      4  C   UNL     1       1.829   5.305  20.226  0.00  0.00    +0.000 C 
BRANCH   4   5
ATOM      5  N   UNL     1       2.439   6.585  20.553  0.00  0.00    +0.000 N 
ATOM      6  H   UNL     1       2.471   6.735  21.560  0.00  0.00    +0.000 HD
BRANCH   5  13
ATOM      7  C   UNL     1       0.592   8.816  21.783  0.00  0.00    +0.000 C 
ATOM      8  C   UNL     1       1.140   8.740  20.387  0.00  0.00    +0.000 A 
ATOM      9  C   UNL     1       0.744   9.765  19.516  0.00  0.00    +0.000 A 
ATOM     10  N   UNL     1       1.101   9.872  18.222  0.00  0.00    +0.000 NA
ATOM     11  C   UNL     1       1.887   8.892  17.750  0.00  0.00    +0.000 A 
ATOM     12  C   UNL     1       2.337   7.828  18.518  0.00  0.00    +0.000 A 
ATOM     13  C   UNL     1       1.995   7.740  19.879  0.00  0.00    +0.000 A 
ENDBRANCH   5  13
ENDBRANCH   4   5
ENDBRANCH   3   4
ENDBRANCH   1   3
BRANCH   1  14
ATOM     14  C   UNL     1       3.902   4.414  17.615  0.00  0.00    +0.000 C 
BRANCH  14  15
ATOM     15  C   UNL     1       5.131   4.805  16.826  0.00  0.00    +0.000 A 
ATOM     16  C   UNL     1       6.038   5.705  17.344  0.00  0.00    +0.000 A 
ATOM     17  C   UNL     1       7.111   6.002  16.539  0.00  0.00    +0.000 A 
ATOM     18  N   UNL     1       7.298   5.472  15.316  0.00  0.00    +0.000 NA
ATOM     19  C   UNL     1       6.367   4.600  14.889  0.00  0.00    +0.000 A 
ATOM     20  N   UNL     1       5.283   4.242  15.603  0.00  0.00    +0.000 NA
BRANCH  19  21
ATOM     21  C   UNL     1       6.570   3.976  13.525  0.00  0.00    +0.000 C 
ATOM     22  C   UNL     1       5.229   3.673  12.857  0.00  0.00    +0.000 C 
ATOM     23  C   UNL     1       7.438   4.859  12.628  0.00  0.00    +0.000 C 
ENDBRANCH  19  21
ENDBRANCH  14  15
ENDBRANCH   1  14
TORSDOF 7
ENDMDL
MODEL 7
REMARK VINA RESULT:      -6.5      3.535      8.024
REMARK  Name = 
REMARK  10 active torsions:
REMARK  status: ('A' for Active; 'I' for Inactive)
REMARK    1  A    between atoms: C_1  and  C_2
REMARK    2  A    between atoms: C_7  and  N_8
REMARK    3  A    between atoms: N_8  and  C_9
REMARK    4  A    between atoms: C_9  and  C_10
REMARK    5  A    between atoms: C_10  and  N_11
REMARK    6  A    between atoms: N_11  and  C_12
REMARK    7  A    between atoms: C_12  and  C_13
REMARK    8  A    between atoms: C_17  and  C_18
REMARK    9  A    between atoms: C_18  and  C_19
REMARK   10  A    between atoms: C_18  and  C_20
REMARK                            x       y       z     vdW  Elec       q    Type
REMARK                         _______ _______ _______ _____ _____    ______ ____
ROOT
ATOM      1  N   UNL     1       2.079   3.941  19.616  0.00  0.00    +0.000 NA
ATOM      2  H   UNL     1       1.228   3.498  19.969  0.00  0.00    +0.000 HD
ENDROOT
BRANCH   1   3
ATOM      3  C   UNL     1       3.146   2.925  19.516  0.00  0.00    +0.000 C 
BRANCH   3   4
ATOM      4  C   UNL     1       3.591   2.634  18.068  0.00  0.00    +0.000 C 
BRANCH   4   5
ATOM      5  N   UNL     1       3.803   3.842  17.284  0.00  0.00    +0.000 N 
ATOM      6  H   UNL     1       3.162   3.889  16.493  0.00  0.00    +0.000 HD
BRANCH   5  13
ATOM      7  C   UNL     1       5.962   5.189  19.135  0.00  0.00    +0.000 C 
ATOM      8  C   UNL     1       6.095   4.813  17.687  0.00  0.00    +0.000 A 
ATOM      9  C   UNL     1       7.314   5.142  17.078  0.00  0.00    +0.000 A 
ATOM     10  N   UNL     1       7.629   4.915  15.788  0.00  0.00    +0.000 NA
ATOM     11  C   UNL     1       6.670   4.340  15.045  0.00  0.00    +0.000 A 
ATOM     12  C   UNL     1       5.428   3.976  15.540  0.00  0.00    +0.000 A 
ATOM     13  C   UNL     1       5.116   4.178  16.896  0.00  0.00    +0.000 A 
ENDBRANCH   5  13
ENDBRANCH   4   5
ENDBRANCH   3   4
ENDBRANCH   1   3
BRANCH   1  14
ATOM     14  C   UNL     1       2.440   5.026  20.546  0.00  0.00    +0.000 C 
BRANCH  14  15
ATOM     15  C   UNL     1       2.164   6.403  19.985  0.00  0.00    +0.000 A 
ATOM     16  C   UNL     1       2.542   6.722  18.699  0.00  0.00    +0.000 A 
ATOM     17  C   UNL     1       2.258   8.004  18.294  0.00  0.00    +0.000 A 
ATOM     18  N   UNL     1       1.653   8.919  19.075  0.00  0.00    +0.000 NA
ATOM     19  C   UNL     1       1.315   8.522  20.315  0.00  0.00    +0.000 A 
ATOM     20  N   UNL     1       1.548   7.290  20.804  0.00  0.00    +0.000 NA
BRANCH  19  21
ATOM     21  C   UNL     1       0.615   9.530  21.202  0.00  0.00    +0.000 C 
ATOM     22  C   UNL     1      -0.106  10.586  20.365  0.00  0.00    +0.000 C 
ATOM     23  C   UNL     1      -0.351   8.849  22.171  0.00  0.00    +0.000 C 
ENDBRANCH  19  21
ENDBRANCH  14  15
ENDBRANCH   1  14
TORSDOF 7
ENDMDL
MODEL 8
REMARK VINA RESULT:      -6.5      1.072      1.327
REMARK  Name = 
REMARK  10 active torsions:
REMARK  status: ('A' for Active; 'I' for Inactive)
REMARK    1  A    between atoms: C_1  and  C_2
REMARK    2  A    between atoms: C_7  and  N_8
REMARK    3  A    between atoms: N_8  and  C_9
REMARK    4  A    between atoms: C_9  and  C_10
REMARK    5  A    between atoms: C_10  and  N_11
REMARK    6  A    between atoms: N_11  and  C_12
REMARK    7  A    between atoms: C_12  and  C_13
REMARK    8  A    between atoms: C_17  and  C_18
REMARK    9  A    between atoms: C_18  and  C_19
REMARK   10  A    between atoms: C_18  and  C_20
REMARK                            x       y       z     vdW  Elec       q    Type
REMARK                         _______ _______ _______ _____ _____    ______ ____
ROOT
ATOM      1  N   UNL     1       6.101   5.393  16.890  0.00  0.00    +0.000 NA
ATOM      2  H   UNL     1       6.716   4.831  17.481  0.00  0.00    +0.000 HD
ENDROOT
BRANCH   1   3
ATOM      3  C   UNL     1       5.119   6.093  17.742  0.00  0.00    +0.000 C 
BRANCH   3   4
ATOM      4  C   UNL     1       4.923   5.442  19.126  0.00  0.00    +0.000 C 
BRANCH   4   5
ATOM      5  N   UNL     1       3.614   5.713  19.703  0.00  0.00    +0.000 N 
ATOM      6  H   UNL     1       3.685   6.326  20.513  0.00  0.00    +0.000 HD
BRANCH   5  13
ATOM      7  C   UNL     1       1.625   4.442  17.622  0.00  0.00    +0.000 C 
ATOM      8  C   UNL     1       1.820   4.061  19.062  0.00  0.00    +0.000 A 
ATOM      9  C   UNL     1       0.984   3.045  19.546  0.00  0.00    +0.000 A 
ATOM     10  N   UNL     1       0.979   2.571  20.807  0.00  0.00    +0.000 NA
ATOM     11  C   UNL     1       1.846   3.151  21.651  0.00  0.00    +0.000 A 
ATOM     12  C   UNL     1       2.717   4.165  21.285  0.00  0.00    +0.000 A 
ATOM     13  C   UNL     1       2.747   4.631  19.957  0.00  0.00    +0.000 A 
ENDBRANCH   5  13
ENDBRANCH   4   5
ENDBRANCH   3   4
ENDBRANCH   1   3
BRANCH   1  14
ATOM     14  C   UNL     1       5.447   4.485  15.931  0.00  0.00    +0.000 C 
BRANCH  14  15
ATOM     15  C   UNL     1       6.132   4.453  14.583  0.00  0.00    +0.000 A 
ATOM     16  C   UNL     1       7.301   5.152  14.377  0.00  0.00    +0.000 A 
ATOM     17  C   UNL     1       7.833   5.068  13.113  0.00  0.00    +0.000 A 
ATOM     18  N   UNL     1       7.275   4.361  12.112  0.00  0.00    +0.000 NA
ATOM     19  C   UNL     1       6.136   3.706  12.400  0.00  0.00    +0.000 A 
ATOM     20  N   UNL     1       5.538   3.724  13.607  0.00  0.00    +0.000 NA
BRANCH  19  21
ATOM     21  C   UNL     1       5.504   2.888  11.295  0.00  0.00    +0.000 C 
ATOM     22  C   UNL     1       5.894   1.415  11.415  0.00  0.00    +0.000 C 
ATOM     23  C   UNL     1       3.984   3.049  11.276  0.00  0.00    +0.000 C 
ENDBRANCH  19  21
ENDBRANCH  14  15
ENDBRANCH   1  14
TORSDOF 7
ENDMDL
MODEL 9
REMARK VINA RESULT:      -6.5      1.158      1.369
REMARK  Name = 
REMARK  10 active torsions:
REMARK  status: ('A' for Active; 'I' for Inactive)
REMARK    1  A    between atoms: C_1  and  C_2
REMARK    2  A    between atoms: C_7  and  N_8
REMARK    3  A    between atoms: N_8  and  C_9
REMARK    4  A    between atoms: C_9  and  C_10
REMARK    5  A    between atoms: C_10  and  N_11
REMARK    6  A    between atoms: N_11  and  C_12
REMARK    7  A    between atoms: C_12  and  C_13
REMARK    8  A    between atoms: C_17  and  C_18
REMARK    9  A    between atoms: C_18  and  C_19
REMARK   10  A    between atoms: C_18  and  C_20
REMARK                            x       y       z     vdW  Elec       q    Type
REMARK                         _______ _______ _______ _____ _____    ______ ____
ROOT
ATOM      1  N   UNL     1       5.556   3.865  17.582  0.00  0.00    +0.000 NA
ATOM      2  H   UNL     1       5.149   2.932  17.498  0.00  0.00    +0.000 HD
ENDROOT
BRANCH   1   3
ATOM      3  C   UNL     1       5.235   4.414  18.915  0.00  0.00    +0.000 C 
BRANCH   3   4
ATOM      4  C   UNL     1       4.534   5.787  18.868  0.00  0.00    +0.000 C 
BRANCH   4   5
ATOM      5  N   UNL     1       3.390   5.873  19.763  0.00  0.00    +0.000 N 
ATOM      6  H   UNL     1       3.638   6.327  20.640  0.00  0.00    +0.000 HD
BRANCH   5  13
ATOM      7  C   UNL     1       1.528   4.479  17.643  0.00  0.00    +0.000 C 
ATOM      8  C   UNL     1       1.747   4.087  19.076  0.00  0.00    +0.000 A 
ATOM      9  C   UNL     1       0.997   2.995  19.534  0.00  0.00    +0.000 A 
ATOM     10  N   UNL     1       1.025   2.497  20.785  0.00  0.00    +0.000 NA
ATOM     11  C   UNL     1       1.834   3.132  21.647  0.00  0.00    +0.000 A 
ATOM     12  C   UNL     1       2.618   4.223  21.307  0.00  0.00    +0.000 A 
ATOM     13  C   UNL     1       2.617   4.716  19.990  0.00  0.00    +0.000 A 
ENDBRANCH   5  13
ENDBRANCH   4   5
ENDBRANCH   3   4
ENDBRANCH   1   3
BRANCH   1  14
ATOM     14  C   UNL     1       5.001   4.697  16.498  0.00  0.00    +0.000 C 
BRANCH  14  15
ATOM     15  C   UNL     1       5.739   4.531  15.189  0.00  0.00    +0.000 A 
ATOM     16  C   UNL     1       6.923   5.199  14.964  0.00  0.00    +0.000 A 
ATOM     17  C   UNL     1       7.503   4.990  13.736  0.00  0.00    +0.000 A 
ATOM     18  N   UNL     1       6.977   4.194  12.786  0.00  0.00    +0.000 NA
ATOM     19  C   UNL     1       5.820   3.578  13.089  0.00  0.00    +0.000 A 
ATOM     20  N   UNL     1       5.176   3.715  14.264  0.00  0.00    +0.000 NA
BRANCH  19  21
ATOM     21  C   UNL     1       5.224   2.662  12.043  0.00  0.00    +0.000 C 
ATOM     22  C   UNL     1       4.215   3.411  11.172  0.00  0.00    +0.000 C 
ATOM     23  C   UNL     1       6.307   2.010  11.184  0.00  0.00    +0.000 C 
ENDBRANCH  19  21
ENDBRANCH  14  15
ENDBRANCH   1  14
TORSDOF 7
ENDMDL
