MODEL 1
REMARK VINA RESULT:      -6.7      0.000      0.000
REMARK  Name = 
REMARK  14 active torsions:
REMARK  status: ('A' for Active; 'I' for Inactive)
REMARK    1  A    between atoms: C_1  and  O_2
REMARK    2  A    between atoms: O_2  and  C_3
REMARK    3  A    between atoms: C_3  and  C_5
REMARK    4  A    between atoms: C_6  and  C_7
REMARK    5  A    between atoms: N_8  and  C_9
REMARK    6  A    between atoms: C_9  and  C_10
REMARK    7  A    between atoms: C_10  and  C_11
REMARK    8  A    between atoms: C_13  and  O_14
REMARK    9  A    between atoms: O_14  and  C_15
REMARK   10  A    between atoms: C_16  and  O_17
REMARK   11  A    between atoms: O_17  and  C_18
REMARK   12  A    between atoms: C_19  and  O_20
REMARK   13  A    between atoms: O_20  and  C_21
REMARK   14  A    between atoms: C_26  and  C_27
REMARK                            x       y       z     vdW  Elec       q    Type
REMARK                         _______ _______ _______ _____ _____    ______ ____
ROOT
ATOM      1  C   UNL     1      -1.017  11.621  20.052  0.00  0.00    +0.000 C 
ATOM      2  C   UNL     1      -0.467  10.381  20.011  0.00  0.00    +0.000 C 
ATOM      3  C   UNL     1      -0.089   9.660  18.735  0.00  0.00    +0.000 C 
ATOM      4  N   UNL     1      -0.226   9.708  21.232  0.00  0.00    +0.000 N 
ATOM      5  C   UNL     1      -0.267  10.373  22.453  0.00  0.00    +0.000 C 
ATOM      6  O   UNL     1       0.066   9.903  23.537  0.00  0.00    +0.000 OA
ATOM      7  N   UNL     1      -0.677  11.658  22.442  0.00  0.00    +0.000 N 
ATOM      8  C   UNL     1      -1.324  12.322  21.343  0.00  0.00    +0.000 C 
ATOM      9  H   UNL     1      -0.751  12.068  23.359  0.00  0.00    +0.000 HD
ENDROOT
BRANCH   8  10
ATOM     10  C   UNL     1      -0.882  13.763  21.466  0.00  0.00    +0.000 A 
ATOM     11  C   UNL     1      -1.652  14.911  21.539  0.00  0.00    +0.000 A 
ATOM     12  C   UNL     1      -0.862  16.092  21.610  0.00  0.00    +0.000 A 
ATOM     13  C   UNL     1       0.485  15.815  21.577  0.00  0.00    +0.000 A 
ATOM     14  S   UNL     1       0.795  14.139  21.476  0.00  0.00    +0.000 S 
ENDBRANCH   8  10
BRANCH   1  15
ATOM     15  C   UNL     1      -1.467  12.350  18.833  0.00  0.00    +0.000 C 
ATOM     16  O   UNL     1      -0.774  13.050  18.114  0.00  0.00    +0.000 OA
BRANCH  15  18
ATOM     17  C   UNL     1      -3.071  11.366  17.415  0.00  0.00    +0.000 C 
ATOM     18  O   UNL     1      -2.778  12.063  18.626  0.00  0.00    +0.000 OA
ENDBRANCH  15  18
ENDBRANCH   1  15
BRANCH   4  19
ATOM     19  C   UNL     1       0.273   8.314  21.231  0.00  0.00    +0.000 C 
BRANCH  19  20
ATOM     20  C   UNL     1       1.775   8.111  20.951  0.00  0.00    +0.000 C 
BRANCH  20  21
ATOM     21  C   UNL     1       2.012   6.804  20.235  0.00  0.00    +0.000 A 
ATOM     22  C   UNL     1       2.756   6.796  19.054  0.00  0.00    +0.000 A 
ATOM     23  C   UNL     1       2.971   5.607  18.354  0.00  0.00    +0.000 A 
ATOM     24  C   UNL     1       2.390   4.406  18.819  0.00  0.00    +0.000 A 
ATOM     25  C   UNL     1       1.616   4.412  20.001  0.00  0.00    +0.000 A 
ATOM     26  C   UNL     1       1.452   5.614  20.704  0.00  0.00    +0.000 A 
BRANCH  23  27
ATOM     27  O   UNL     1       3.716   5.549  17.199  0.00  0.00    +0.000 OA
ATOM     28  C   UNL     1       4.717   6.554  17.051  0.00  0.00    +0.000 C 
ENDBRANCH  23  27
BRANCH  24  29
ATOM     29  O   UNL     1       2.585   3.311  18.005  0.00  0.00    +0.000 OA
ATOM     30  C   UNL     1       3.635   2.424  18.370  0.00  0.00    +0.000 C 
ENDBRANCH  24  29
BRANCH  25  31
ATOM     31  O   UNL     1       1.018   3.242  20.393  0.00  0.00    +0.000 OA
ATOM     32  C   UNL     1       1.467   2.629  21.595  0.00  0.00    +0.000 C 
ENDBRANCH  25  31
ENDBRANCH  20  21
ENDBRANCH  19  20
ENDBRANCH   4  19
TORSDOF 9
ENDMDL
MODEL 2
REMARK VINA RESULT:      -6.7      2.953      9.093
REMARK  Name = 
REMARK  14 active torsions:
REMARK  status: ('A' for Active; 'I' for Inactive)
REMARK    1  A    between atoms: C_1  and  O_2
REMARK    2  A    between atoms: O_2  and  C_3
REMARK    3  A    between atoms: C_3  and  C_5
REMARK    4  A    between atoms: C_6  and  C_7
REMARK    5  A    between atoms: N_8  and  C_9
REMARK    6  A    between atoms: C_9  and  C_10
REMARK    7  A    between atoms: C_10  and  C_11
REMARK    8  A    between atoms: C_13  and  O_14
REMARK    9  A    between atoms: O_14  and  C_15
REMARK   10  A    between atoms: C_16  and  O_17
REMARK   11  A    between atoms: O_17  and  C_18
REMARK   12  A    between atoms: C_19  and  O_20
REMARK   13  A    between atoms: O_20  and  C_21
REMARK   14  A    between atoms: C_26  and  C_27
REMARK                            x       y       z     vdW  Elec       q    Type
REMARK                         _______ _______ _______ _____ _____    ______ ____
ROOT
ATOM      1  C   UNL     1       3.362   4.346  19.177  0.00  0.00    +0.000 C 
ATOM      2  C   UNL     1       2.550   5.006  20.040  0.00  0.00    +0.000 C 
ATOM      3  C   UNL     1       2.113   4.461  21.384  0.00  0.00    +0.000 C 
ATOM      4  N   UNL     1       2.071   6.286  19.673  0.00  0.00    +0.000 N 
ATOM      5  C   UNL     1       2.622   6.995  18.611  0.00  0.00    +0.000 C 
ATOM      6  O   UNL     1       2.367   8.159  18.317  0.00  0.00    +0.000 OA
ATOM      7  N   UNL     1       3.544   6.359  17.858  0.00  0.00    +0.000 N 
ATOM      8  C   UNL     1       3.815   4.948  17.879  0.00  0.00    +0.000 C 
ATOM      9  H   UNL     1       3.859   6.895  17.065  0.00  0.00    +0.000 HD
ENDROOT
BRANCH   8  10
ATOM     10  C   UNL     1       5.287   4.846  17.549  0.00  0.00    +0.000 A 
ATOM     11  C   UNL     1       5.896   4.347  16.411  0.00  0.00    +0.000 A 
ATOM     12  C   UNL     1       7.316   4.388  16.491  0.00  0.00    +0.000 A 
ATOM     13  C   UNL     1       7.750   4.904  17.690  0.00  0.00    +0.000 A 
ATOM     14  S   UNL     1       6.453   5.351  18.706  0.00  0.00    +0.000 S 
ENDBRANCH   8  10
BRANCH   1  15
ATOM     15  C   UNL     1       3.787   2.932  19.382  0.00  0.00    +0.000 C 
ATOM     16  O   UNL     1       4.607   2.536  20.193  0.00  0.00    +0.000 OA
BRANCH  15  18
ATOM     17  C   UNL     1       1.757   1.804  18.993  0.00  0.00    +0.000 C 
ATOM     18  O   UNL     1       3.066   2.146  18.541  0.00  0.00    +0.000 OA
ENDBRANCH  15  18
ENDBRANCH   1  15
BRANCH   4  19
ATOM     19  C   UNL     1       1.099   6.996  20.535  0.00  0.00    +0.000 C 
BRANCH  19  20
ATOM     20  C   UNL     1       1.593   8.275  21.238  0.00  0.00    +0.000 C 
BRANCH  20  21
ATOM     21  C   UNL     1       0.624   9.411  21.019  0.00  0.00    +0.000 A 
ATOM     22  C   UNL     1       0.252   9.753  19.717  0.00  0.00    +0.000 A 
ATOM     23  C   UNL     1      -0.621  10.816  19.480  0.00  0.00    +0.000 A 
ATOM     24  C   UNL     1      -1.098  11.586  20.565  0.00  0.00    +0.000 A 
ATOM     25  C   UNL     1      -0.706  11.260  21.883  0.00  0.00    +0.000 A 
ATOM     26  C   UNL     1       0.139  10.161  22.093  0.00  0.00    +0.000 A 
BRANCH  23  27
ATOM     27  O   UNL     1      -1.032  11.173  18.216  0.00  0.00    +0.000 OA
ATOM     28  C   UNL     1      -1.856  10.228  17.539  0.00  0.00    +0.000 C 
ENDBRANCH  23  27
BRANCH  24  29
ATOM     29  O   UNL     1      -1.878  12.667  20.214  0.00  0.00    +0.000 OA
ATOM     30  C   UNL     1      -1.236  13.934  20.186  0.00  0.00    +0.000 C 
ENDBRANCH  24  29
BRANCH  25  31
ATOM     31  O   UNL     1      -1.140  12.062  22.908  0.00  0.00    +0.000 OA
ATOM     32  C   UNL     1      -2.451  11.851  23.416  0.00  0.00    +0.000 C 
ENDBRANCH  25  31
ENDBRANCH  20  21
ENDBRANCH  19  20
ENDBRANCH   4  19
TORSDOF 9
ENDMDL
MODEL 3
REMARK VINA RESULT:      -6.6      3.018      9.024
REMARK  Name = 
REMARK  14 active torsions:
REMARK  status: ('A' for Active; 'I' for Inactive)
REMARK    1  A    between atoms: C_1  and  O_2
REMARK    2  A    between atoms: O_2  and  C_3
REMARK    3  A    between atoms: C_3  and  C_5
REMARK    4  A    between atoms: C_6  and  C_7
REMARK    5  A    between atoms: N_8  and  C_9
REMARK    6  A    between atoms: C_9  and  C_10
REMARK    7  A    between atoms: C_10  and  C_11
REMARK    8  A    between atoms: C_13  and  O_14
REMARK    9  A    between atoms: O_14  and  C_15
REMARK   10  A    between atoms: C_16  and  O_17
REMARK   11  A    between atoms: O_17  and  C_18
REMARK   12  A    between atoms: C_19  and  O_20
REMARK   13  A    between atoms: O_20  and  C_21
REMARK   14  A    between atoms: C_26  and  C_27
REMARK                            x       y       z     vdW  Elec       q    Type
REMARK                         _______ _______ _______ _____ _____    ______ ____
ROOT
ATOM      1  C   UNL     1       3.036   4.665  18.829  0.00  0.00    +0.000 C 
ATOM      2  C   UNL     1       2.584   5.391  19.882  0.00  0.00    +0.000 C 
ATOM      3  C   UNL     1       2.299   4.816  21.253  0.00  0.00    +0.000 C 
ATOM      4  N   UNL     1       2.359   6.776  19.700  0.00  0.00    +0.000 N 
ATOM      5  C   UNL     1       2.847   7.456  18.589  0.00  0.00    +0.000 C 
ATOM      6  O   UNL     1       2.821   8.672  18.424  0.00  0.00    +0.000 OA
ATOM      7  N   UNL     1       3.429   6.718  17.622  0.00  0.00    +0.000 N 
ATOM      8  C   UNL     1       3.359   5.287  17.502  0.00  0.00    +0.000 C 
ATOM      9  H   UNL     1       3.703   7.253  16.813  0.00  0.00    +0.000 HD
ENDROOT
BRANCH   8  10
ATOM     10  C   UNL     1       4.674   4.902  16.862  0.00  0.00    +0.000 A 
ATOM     11  C   UNL     1       4.905   4.208  15.686  0.00  0.00    +0.000 A 
ATOM     12  C   UNL     1       6.290   4.007  15.437  0.00  0.00    +0.000 A 
ATOM     13  C   UNL     1       7.077   4.539  16.433  0.00  0.00    +0.000 A 
ATOM     14  S   UNL     1       6.149   5.290  17.653  0.00  0.00    +0.000 S 
ENDBRANCH   8  10
BRANCH   1  15
ATOM     15  C   UNL     1       3.147   3.179  18.856  0.00  0.00    +0.000 C 
ATOM     16  O   UNL     1       3.947   2.527  19.507  0.00  0.00    +0.000 OA
BRANCH  15  18
ATOM     17  C   UNL     1       0.968   2.292  18.740  0.00  0.00    +0.000 C 
ATOM     18  O   UNL     1       2.170   2.665  18.066  0.00  0.00    +0.000 OA
ENDBRANCH  15  18
ENDBRANCH   1  15
BRANCH   4  19
ATOM     19  C   UNL     1       1.766   7.586  20.789  0.00  0.00    +0.000 C 
BRANCH  19  20
ATOM     20  C   UNL     1       0.266   7.919  20.675  0.00  0.00    +0.000 C 
BRANCH  20  21
ATOM     21  C   UNL     1       0.038   9.405  20.803  0.00  0.00    +0.000 A 
ATOM     22  C   UNL     1       0.437  10.251  19.767  0.00  0.00    +0.000 A 
ATOM     23  C   UNL     1       0.263  11.633  19.867  0.00  0.00    +0.000 A 
ATOM     24  C   UNL     1      -0.278  12.187  21.049  0.00  0.00    +0.000 A 
ATOM     25  C   UNL     1      -0.662  11.337  22.111  0.00  0.00    +0.000 A 
ATOM     26  C   UNL     1      -0.514   9.951  21.964  0.00  0.00    +0.000 A 
BRANCH  23  27
ATOM     27  O   UNL     1       0.621  12.501  18.862  0.00  0.00    +0.000 OA
ATOM     28  C   UNL     1       2.004  12.518  18.516  0.00  0.00    +0.000 C 
ENDBRANCH  23  27
BRANCH  24  29
ATOM     29  O   UNL     1      -0.320  13.564  21.081  0.00  0.00    +0.000 OA
ATOM     30  C   UNL     1       0.742  14.219  21.762  0.00  0.00    +0.000 C 
ENDBRANCH  24  29
BRANCH  25  31
ATOM     31  O   UNL     1      -1.130  11.910  23.265  0.00  0.00    +0.000 OA
ATOM     32  C   UNL     1      -2.512  12.236  23.341  0.00  0.00    +0.000 C 
ENDBRANCH  25  31
ENDBRANCH  20  21
ENDBRANCH  19  20
ENDBRANCH   4  19
TORSDOF 9
ENDMDL
MODEL 4
REMARK VINA RESULT:      -6.6      1.056      1.142
REMARK  Name = 
REMARK  14 active torsions:
REMARK  status: ('A' for Active; 'I' for Inactive)
REMARK    1  A    between atoms: C_1  and  O_2
REMARK    2  A    between atoms: O_2  and  C_3
REMARK    3  A    between atoms: C_3  and  C_5
REMARK    4  A    between atoms: C_6  and  C_7
REMARK    5  A    between atoms: N_8  and  C_9
REMARK    6  A    between atoms: C_9  and  C_10
REMARK    7  A    between atoms: C_10  and  C_11
REMARK    8  A    between atoms: C_13  and  O_14
REMARK    9  A    between atoms: O_14  and  C_15
REMARK   10  A    between atoms: C_16  and  O_17
REMARK   11  A    between atoms: O_17  and  C_18
REMARK   12  A    between atoms: C_19  and  O_20
REMARK   13  A    between atoms: O_20  and  C_21
REMARK   14  A    between atoms: C_26  and  C_27
REMARK                            x       y       z     vdW  Elec       q    Type
REMARK                         _______ _______ _______ _____ _____    ______ ____
ROOT
ATOM      1  C   UNL     1      -0.764  11.255  19.898  0.00  0.00    +0.000 C 
ATOM      2  C   UNL     1       0.178  10.279  19.908  0.00  0.00    +0.000 C 
ATOM      3  C   UNL     1       0.935   9.813  18.682  0.00  0.00    +0.000 C 
ATOM      4  N   UNL     1       0.481   9.645  21.136  0.00  0.00    +0.000 N 
ATOM      5  C   UNL     1       0.064  10.173  22.353  0.00  0.00    +0.000 C 
ATOM      6  O   UNL     1       0.401   9.772  23.463  0.00  0.00    +0.000 OA
ATOM      7  N   UNL     1      -0.756  11.244  22.312  0.00  0.00    +0.000 N 
ATOM      8  C   UNL     1      -1.450  11.723  21.148  0.00  0.00    +0.000 C 
ATOM      9  H   UNL     1      -1.079  11.542  23.218  0.00  0.00    +0.000 HD
ENDROOT
BRANCH   8  10
ATOM     10  C   UNL     1      -1.547  13.217  21.361  0.00  0.00    +0.000 A 
ATOM     11  C   UNL     1      -2.660  14.038  21.306  0.00  0.00    +0.000 A 
ATOM     12  C   UNL     1      -2.339  15.406  21.528  0.00  0.00    +0.000 A 
ATOM     13  C   UNL     1      -0.991  15.593  21.734  0.00  0.00    +0.000 A 
ATOM     14  S   UNL     1      -0.122  14.125  21.674  0.00  0.00    +0.000 S 
ENDBRANCH   8  10
BRANCH   1  15
ATOM     15  C   UNL     1      -1.282  11.870  18.643  0.00  0.00    +0.000 C 
ATOM     16  O   UNL     1      -0.805  12.829  18.059  0.00  0.00    +0.000 OA
BRANCH  15  18
ATOM     17  C   UNL     1      -2.585  11.148  16.819  0.00  0.00    +0.000 C 
ATOM     18  O   UNL     1      -2.354  11.148  18.227  0.00  0.00    +0.000 OA
ENDBRANCH  15  18
ENDBRANCH   1  15
BRANCH   4  19
ATOM     19  C   UNL     1       1.424   8.504  21.176  0.00  0.00    +0.000 C 
BRANCH  19  20
ATOM     20  C   UNL     1       0.814   7.091  21.099  0.00  0.00    +0.000 C 
BRANCH  20  21
ATOM     21  C   UNL     1       1.789   6.122  20.477  0.00  0.00    +0.000 A 
ATOM     22  C   UNL     1       2.818   6.609  19.669  0.00  0.00    +0.000 A 
ATOM     23  C   UNL     1       3.720   5.736  19.058  0.00  0.00    +0.000 A 
ATOM     24  C   UNL     1       3.563   4.342  19.219  0.00  0.00    +0.000 A 
ATOM     25  C   UNL     1       2.509   3.841  20.015  0.00  0.00    +0.000 A 
ATOM     26  C   UNL     1       1.644   4.743  20.650  0.00  0.00    +0.000 A 
BRANCH  23  27
ATOM     27  O   UNL     1       4.762   6.174  18.273  0.00  0.00    +0.000 OA
ATOM     28  C   UNL     1       4.407   7.019  17.181  0.00  0.00    +0.000 C 
ENDBRANCH  23  27
BRANCH  24  29
ATOM     29  O   UNL     1       4.448   3.569  18.499  0.00  0.00    +0.000 OA
ATOM     30  C   UNL     1       4.095   3.279  17.153  0.00  0.00    +0.000 C 
ENDBRANCH  24  29
BRANCH  25  31
ATOM     31  O   UNL     1       2.349   2.482  20.103  0.00  0.00    +0.000 OA
ATOM     32  C   UNL     1       1.427   1.856  19.220  0.00  0.00    +0.000 C 
ENDBRANCH  25  31
ENDBRANCH  20  21
ENDBRANCH  19  20
ENDBRANCH   4  19
TORSDOF 9
ENDMDL
MODEL 5
REMARK VINA RESULT:      -6.6      3.056      9.325
REMARK  Name = 
REMARK  14 active torsions:
REMARK  status: ('A' for Active; 'I' for Inactive)
REMARK    1  A    between atoms: C_1  and  O_2
REMARK    2  A    between atoms: O_2  and  C_3
REMARK    3  A    between atoms: C_3  and  C_5
REMARK    4  A    between atoms: C_6  and  C_7
REMARK    5  A    between atoms: N_8  and  C_9
REMARK    6  A    between atoms: C_9  and  C_10
REMARK    7  A    between atoms: C_10  and  C_11
REMARK    8  A    between atoms: C_13  and  O_14
REMARK    9  A    between atoms: O_14  and  C_15
REMARK   10  A    between atoms: C_16  and  O_17
REMARK   11  A    between atoms: O_17  and  C_18
REMARK   12  A    between atoms: C_19  and  O_20
REMARK   13  A    between atoms: O_20  and  C_21
REMARK   14  A    between atoms: C_26  and  C_27
REMARK                            x       y       z     vdW  Elec       q    Type
REMARK                         _______ _______ _______ _____ _____    ______ ____
ROOT
ATOM      1  C   UNL     1       3.016   4.764  18.764  0.00  0.00    +0.000 C 
ATOM      2  C   UNL     1       2.540   5.507  19.794  0.00  0.00    +0.000 C 
ATOM      3  C   UNL     1       2.196   4.949  21.159  0.00  0.00    +0.000 C 
ATOM      4  N   UNL     1       2.344   6.894  19.592  0.00  0.00    +0.000 N 
ATOM      5  C   UNL     1       2.883   7.556  18.494  0.00  0.00    +0.000 C 
ATOM      6  O   UNL     1       2.884   8.770  18.318  0.00  0.00    +0.000 OA
ATOM      7  N   UNL     1       3.487   6.799  17.554  0.00  0.00    +0.000 N 
ATOM      8  C   UNL     1       3.397   5.369  17.444  0.00  0.00    +0.000 C 
ATOM      9  H   UNL     1       3.799   7.322  16.751  0.00  0.00    +0.000 HD
ENDROOT
BRANCH   8  10
ATOM     10  C   UNL     1       4.727   4.956  16.855  0.00  0.00    +0.000 A 
ATOM     11  C   UNL     1       4.992   4.310  15.659  0.00  0.00    +0.000 A 
ATOM     12  C   UNL     1       6.379   4.059  15.473  0.00  0.00    +0.000 A 
ATOM     13  C   UNL     1       7.132   4.506  16.534  0.00  0.00    +0.000 A 
ATOM     14  S   UNL     1       6.173   5.239  17.741  0.00  0.00    +0.000 S 
ENDBRANCH   8  10
BRANCH   1  15
ATOM     15  C   UNL     1       3.101   3.276  18.807  0.00  0.00    +0.000 C 
ATOM     16  O   UNL     1       3.922   2.618  19.425  0.00  0.00    +0.000 OA
BRANCH  15  18
ATOM     17  C   UNL     1       0.997   2.219  18.835  0.00  0.00    +0.000 C 
ATOM     18  O   UNL     1       2.074   2.771  18.078  0.00  0.00    +0.000 OA
ENDBRANCH  15  18
ENDBRANCH   1  15
BRANCH   4  19
ATOM     19  C   UNL     1       1.727   7.724  20.653  0.00  0.00    +0.000 C 
BRANCH  19  20
ATOM     20  C   UNL     1       0.299   8.239  20.393  0.00  0.00    +0.000 C 
BRANCH  20  21
ATOM     21  C   UNL     1       0.215   9.725  20.641  0.00  0.00    +0.000 A 
ATOM     22  C   UNL     1      -0.374  10.191  21.817  0.00  0.00    +0.000 A 
ATOM     23  C   UNL     1      -0.491  11.560  22.064  0.00  0.00    +0.000 A 
ATOM     24  C   UNL     1      -0.051  12.487  21.092  0.00  0.00    +0.000 A 
ATOM     25  C   UNL     1       0.525  12.022  19.888  0.00  0.00    +0.000 A 
ATOM     26  C   UNL     1       0.666  10.641  19.688  0.00  0.00    +0.000 A 
BRANCH  23  27
ATOM     27  O   UNL     1      -1.044  12.063  23.219  0.00  0.00    +0.000 OA
ATOM     28  C   UNL     1      -2.463  11.974  23.321  0.00  0.00    +0.000 C 
ENDBRANCH  23  27
BRANCH  24  29
ATOM     29  O   UNL     1      -0.297  13.809  21.394  0.00  0.00    +0.000 OA
ATOM     30  C   UNL     1       0.810  14.576  21.848  0.00  0.00    +0.000 C 
ENDBRANCH  24  29
BRANCH  25  31
ATOM     31  O   UNL     1       0.888  12.945  18.942  0.00  0.00    +0.000 OA
ATOM     32  C   UNL     1       2.251  12.992  18.538  0.00  0.00    +0.000 C 
ENDBRANCH  25  31
ENDBRANCH  20  21
ENDBRANCH  19  20
ENDBRANCH   4  19
TORSDOF 9
ENDMDL
MODEL 6
REMARK VINA RESULT:      -6.6      0.985      2.471
REMARK  Name = 
REMARK  14 active torsions:
REMARK  status: ('A' for Active; 'I' for Inactive)
REMARK    1  A    between atoms: C_1  and  O_2
REMARK    2  A    between atoms: O_2  and  C_3
REMARK    3  A    between atoms: C_3  and  C_5
REMARK    4  A    between atoms: C_6  and  C_7
REMARK    5  A    between atoms: N_8  and  C_9
REMARK    6  A    between atoms: C_9  and  C_10
REMARK    7  A    between atoms: C_10  and  C_11
REMARK    8  A    between atoms: C_13  and  O_14
REMARK    9  A    between atoms: O_14  and  C_15
REMARK   10  A    between atoms: C_16  and  O_17
REMARK   11  A    between atoms: O_17  and  C_18
REMARK   12  A    between atoms: C_19  and  O_20
REMARK   13  A    between atoms: O_20  and  C_21
REMARK   14  A    between atoms: C_26  and  C_27
REMARK                            x       y       z     vdW  Elec       q    Type
REMARK                         _______ _______ _______ _____ _____    ______ ____
ROOT
ATOM      1  C   UNL     1      -0.755  11.600  19.810  0.00  0.00    +0.000 C 
ATOM      2  C   UNL     1       0.225  10.663  19.783  0.00  0.00    +0.000 C 
ATOM      3  C   UNL     1       1.027  10.304  18.549  0.00  0.00    +0.000 C 
ATOM      4  N   UNL     1       0.527   9.966  20.978  0.00  0.00    +0.000 N 
ATOM      5  C   UNL     1       0.062  10.402  22.214  0.00  0.00    +0.000 C 
ATOM      6  O   UNL     1       0.391   9.946  23.305  0.00  0.00    +0.000 OA
ATOM      7  N   UNL     1      -0.799  11.440  22.218  0.00  0.00    +0.000 N 
ATOM      8  C   UNL     1      -1.486  11.963  21.069  0.00  0.00    +0.000 C 
ATOM      9  H   UNL     1      -1.154  11.669  23.133  0.00  0.00    +0.000 HD
ENDROOT
BRANCH   8  10
ATOM     10  C   UNL     1      -1.648  13.437  21.371  0.00  0.00    +0.000 A 
ATOM     11  C   UNL     1      -2.791  14.217  21.333  0.00  0.00    +0.000 A 
ATOM     12  C   UNL     1      -2.530  15.579  21.649  0.00  0.00    +0.000 A 
ATOM     13  C   UNL     1      -1.197  15.803  21.905  0.00  0.00    +0.000 A 
ATOM     14  S   UNL     1      -0.269  14.376  21.781  0.00  0.00    +0.000 S 
ENDBRANCH   8  10
BRANCH   1  15
ATOM     15  C   UNL     1      -1.270  12.271  18.583  0.00  0.00    +0.000 C 
ATOM     16  O   UNL     1      -0.735  13.190  17.985  0.00  0.00    +0.000 OA
BRANCH  15  18
ATOM     17  C   UNL     1      -2.339  10.880  17.012  0.00  0.00    +0.000 C 
ATOM     18  O   UNL     1      -2.419  11.651  18.210  0.00  0.00    +0.000 OA
ENDBRANCH  15  18
ENDBRANCH   1  15
BRANCH   4  19
ATOM     19  C   UNL     1       1.514   8.863  20.970  0.00  0.00    +0.000 C 
BRANCH  19  20
ATOM     20  C   UNL     1       0.957   7.428  21.043  0.00  0.00    +0.000 C 
BRANCH  20  21
ATOM     21  C   UNL     1       1.839   6.474  20.275  0.00  0.00    +0.000 A 
ATOM     22  C   UNL     1       2.056   5.188  20.775  0.00  0.00    +0.000 A 
ATOM     23  C   UNL     1       2.888   4.292  20.103  0.00  0.00    +0.000 A 
ATOM     24  C   UNL     1       3.557   4.703  18.928  0.00  0.00    +0.000 A 
ATOM     25  C   UNL     1       3.360   6.011  18.429  0.00  0.00    +0.000 A 
ATOM     26  C   UNL     1       2.486   6.875  19.104  0.00  0.00    +0.000 A 
BRANCH  23  27
ATOM     27  O   UNL     1       3.112   3.009  20.547  0.00  0.00    +0.000 OA
ATOM     28  C   UNL     1       2.289   2.570  21.625  0.00  0.00    +0.000 C 
ENDBRANCH  23  27
BRANCH  24  29
ATOM     29  O   UNL     1       4.425   3.774  18.395  0.00  0.00    +0.000 OA
ATOM     30  C   UNL     1       4.005   3.115  17.209  0.00  0.00    +0.000 C 
ENDBRANCH  24  29
BRANCH  25  31
ATOM     31  O   UNL     1       4.068   6.397  17.321  0.00  0.00    +0.000 OA
ATOM     32  C   UNL     1       5.394   6.879  17.505  0.00  0.00    +0.000 C 
ENDBRANCH  25  31
ENDBRANCH  20  21
ENDBRANCH  19  20
ENDBRANCH   4  19
TORSDOF 9
ENDMDL
MODEL 7
REMARK VINA RESULT:      -6.5      1.225      1.361
REMARK  Name = 
REMARK  14 active torsions:
REMARK  status: ('A' for Active; 'I' for Inactive)
REMARK    1  A    between atoms: C_1  and  O_2
REMARK    2  A    between atoms: O_2  and  C_3
REMARK    3  A    between atoms: C_3  and  C_5
REMARK    4  A    between atoms: C_6  and  C_7
REMARK    5  A    between atoms: N_8  and  C_9
REMARK    6  A    between atoms: C_9  and  C_10
REMARK    7  A    between atoms: C_10  and  C_11
REMARK    8  A    between atoms: C_13  and  O_14
REMARK    9  A    between atoms: O_14  and  C_15
REMARK   10  A    between atoms: C_16  and  O_17
REMARK   11  A    between atoms: O_17  and  C_18
REMARK   12  A    between atoms: C_19  and  O_20
REMARK   13  A    between atoms: O_20  and  C_21
REMARK   14  A    between atoms: C_26  and  C_27
REMARK                            x       y       z     vdW  Elec       q    Type
REMARK                         _______ _______ _______ _____ _____    ______ ____
ROOT
ATOM      1  C   UNL     1      -0.968  11.114  19.524  0.00  0.00    +0.000 C 
ATOM      2  C   UNL     1       0.049  10.217  19.490  0.00  0.00    +0.000 C 
ATOM      3  C   UNL     1       0.705   9.720  18.219  0.00  0.00    +0.000 C 
ATOM      4  N   UNL     1       0.537   9.702  20.715  0.00  0.00    +0.000 N 
ATOM      5  C   UNL     1       0.211  10.288  21.934  0.00  0.00    +0.000 C 
ATOM      6  O   UNL     1       0.700   9.997  23.022  0.00  0.00    +0.000 OA
ATOM      7  N   UNL     1      -0.697  11.286  21.916  0.00  0.00    +0.000 N 
ATOM      8  C   UNL     1      -1.551  11.621  20.810  0.00  0.00    +0.000 C 
ATOM      9  H   UNL     1      -0.943  11.626  22.832  0.00  0.00    +0.000 HD
ENDROOT
BRANCH   8  10
ATOM     10  C   UNL     1      -1.751  13.115  20.934  0.00  0.00    +0.000 A 
ATOM     11  C   UNL     1      -0.805  14.126  20.951  0.00  0.00    +0.000 A 
ATOM     12  C   UNL     1      -1.388  15.412  21.122  0.00  0.00    +0.000 A 
ATOM     13  C   UNL     1      -2.757  15.347  21.242  0.00  0.00    +0.000 A 
ATOM     14  S   UNL     1      -3.337  13.746  21.135  0.00  0.00    +0.000 S 
ENDBRANCH   8  10
BRANCH   1  15
ATOM     15  C   UNL     1      -1.670  11.591  18.298  0.00  0.00    +0.000 C 
ATOM     16  O   UNL     1      -1.317  12.509  17.576  0.00  0.00    +0.000 OA
BRANCH  15  18
ATOM     17  C   UNL     1      -3.983  11.479  17.872  0.00  0.00    +0.000 C 
ATOM     18  O   UNL     1      -2.750  10.795  18.090  0.00  0.00    +0.000 OA
ENDBRANCH  15  18
ENDBRANCH   1  15
BRANCH   4  19
ATOM     19  C   UNL     1       1.572   8.643  20.722  0.00  0.00    +0.000 C 
BRANCH  19  20
ATOM     20  C   UNL     1       1.120   7.228  21.132  0.00  0.00    +0.000 C 
BRANCH  20  21
ATOM     21  C   UNL     1       1.933   6.180  20.413  0.00  0.00    +0.000 A 
ATOM     22  C   UNL     1       2.533   6.495  19.193  0.00  0.00    +0.000 A 
ATOM     23  C   UNL     1       3.270   5.539  18.492  0.00  0.00    +0.000 A 
ATOM     24  C   UNL     1       3.370   4.224  18.997  0.00  0.00    +0.000 A 
ATOM     25  C   UNL     1       2.745   3.891  20.219  0.00  0.00    +0.000 A 
ATOM     26  C   UNL     1       2.047   4.884  20.922  0.00  0.00    +0.000 A 
BRANCH  23  27
ATOM     27  O   UNL     1       3.897   5.813  17.298  0.00  0.00    +0.000 OA
ATOM     28  C   UNL     1       5.066   6.625  17.380  0.00  0.00    +0.000 C 
ENDBRANCH  23  27
BRANCH  24  29
ATOM     29  O   UNL     1       4.040   3.336  18.182  0.00  0.00    +0.000 OA
ATOM     30  C   UNL     1       3.253   2.342  17.539  0.00  0.00    +0.000 C 
ENDBRANCH  24  29
BRANCH  25  31
ATOM     31  O   UNL     1       2.813   2.592  20.652  0.00  0.00    +0.000 OA
ATOM     32  C   UNL     1       1.996   2.207  21.751  0.00  0.00    +0.000 C 
ENDBRANCH  25  31
ENDBRANCH  20  21
ENDBRANCH  19  20
ENDBRANCH   4  19
TORSDOF 9
ENDMDL
MODEL 8
REMARK VINA RESULT:      -6.5      2.900      9.068
REMARK  Name = 
REMARK  14 active torsions:
REMARK  status: ('A' for Active; 'I' for Inactive)
REMARK    1  A    between atoms: C_1  and  O_2
REMARK    2  A    between atoms: O_2  and  C_3
REMARK    3  A    between atoms: C_3  and  C_5
REMARK    4  A    between atoms: C_6  and  C_7
REMARK    5  A    between atoms: N_8  and  C_9
REMARK    6  A    between atoms: C_9  and  C_10
REMARK    7  A    between atoms: C_10  and  C_11
REMARK    8  A    between atoms: C_13  and  O_14
REMARK    9  A    between atoms: O_14  and  C_15
REMARK   10  A    between atoms: C_16  and  O_17
REMARK   11  A    between atoms: O_17  and  C_18
REMARK   12  A    between atoms: C_19  and  O_20
REMARK   13  A    between atoms: O_20  and  C_21
REMARK   14  A    between atoms: C_26  and  C_27
REMARK                            x       y       z     vdW  Elec       q    Type
REMARK                         _______ _______ _______ _____ _____    ______ ____
ROOT
ATOM      1  C   UNL     1       2.940   5.031  18.814  0.00  0.00    +0.000 C 
ATOM      2  C   UNL     1       2.433   5.827  19.789  0.00  0.00    +0.000 C 
ATOM      3  C   UNL     1       2.049   5.342  21.171  0.00  0.00    +0.000 C 
ATOM      4  N   UNL     1       2.243   7.201  19.508  0.00  0.00    +0.000 N 
ATOM      5  C   UNL     1       2.813   7.804  18.392  0.00  0.00    +0.000 C 
ATOM      6  O   UNL     1       2.819   9.008  18.152  0.00  0.00    +0.000 OA
ATOM      7  N   UNL     1       3.446   7.000  17.513  0.00  0.00    +0.000 N 
ATOM      8  C   UNL     1       3.359   5.566  17.476  0.00  0.00    +0.000 C 
ATOM      9  H   UNL     1       3.780   7.480  16.692  0.00  0.00    +0.000 HD
ENDROOT
BRANCH   8  10
ATOM     10  C   UNL     1       4.706   5.124  16.949  0.00  0.00    +0.000 A 
ATOM     11  C   UNL     1       5.003   4.368  15.828  0.00  0.00    +0.000 A 
ATOM     12  C   UNL     1       6.397   4.129  15.687  0.00  0.00    +0.000 A 
ATOM     13  C   UNL     1       7.125   4.697  16.707  0.00  0.00    +0.000 A 
ATOM     14  S   UNL     1       6.132   5.527  17.821  0.00  0.00    +0.000 S 
ENDBRANCH   8  10
BRANCH   1  15
ATOM     15  C   UNL     1       3.024   3.548  18.939  0.00  0.00    +0.000 C 
ATOM     16  O   UNL     1       3.844   2.925  19.594  0.00  0.00    +0.000 OA
BRANCH  15  18
ATOM     17  C   UNL     1       1.054   2.259  19.007  0.00  0.00    +0.000 C 
ATOM     18  O   UNL     1       1.997   3.003  18.237  0.00  0.00    +0.000 OA
ENDBRANCH  15  18
ENDBRANCH   1  15
BRANCH   4  19
ATOM     19  C   UNL     1       1.594   8.084  20.504  0.00  0.00    +0.000 C 
BRANCH  19  20
ATOM     20  C   UNL     1       0.082   8.328  20.341  0.00  0.00    +0.000 C 
BRANCH  20  21
ATOM     21  C   UNL     1      -0.205   9.798  20.159  0.00  0.00    +0.000 A 
ATOM     22  C   UNL     1      -0.844  10.233  18.996  0.00  0.00    +0.000 A 
ATOM     23  C   UNL     1      -1.100  11.589  18.786  0.00  0.00    +0.000 A 
ATOM     24  C   UNL     1      -0.666  12.538  19.738  0.00  0.00    +0.000 A 
ATOM     25  C   UNL     1       0.002  12.107  20.906  0.00  0.00    +0.000 A 
ATOM     26  C   UNL     1       0.208  10.736  21.108  0.00  0.00    +0.000 A 
BRANCH  23  27
ATOM     27  O   UNL     1      -1.747  12.058  17.666  0.00  0.00    +0.000 OA
ATOM     28  C   UNL     1      -2.332  11.069  16.824  0.00  0.00    +0.000 C 
ENDBRANCH  23  27
BRANCH  24  29
ATOM     29  O   UNL     1      -0.886  13.854  19.390  0.00  0.00    +0.000 OA
ATOM     30  C   UNL     1       0.227  14.572  18.875  0.00  0.00    +0.000 C 
ENDBRANCH  24  29
BRANCH  25  31
ATOM     31  O   UNL     1       0.461  13.058  21.781  0.00  0.00    +0.000 OA
ATOM     32  C   UNL     1      -0.468  13.642  22.686  0.00  0.00    +0.000 C 
ENDBRANCH  25  31
ENDBRANCH  20  21
ENDBRANCH  19  20
ENDBRANCH   4  19
TORSDOF 9
ENDMDL
MODEL 9
REMARK VINA RESULT:      -6.5      2.923      9.170
REMARK  Name = 
REMARK  14 active torsions:
REMARK  status: ('A' for Active; 'I' for Inactive)
REMARK    1  A    between atoms: C_1  and  O_2
REMARK    2  A    between atoms: O_2  and  C_3
REMARK    3  A    between atoms: C_3  and  C_5
REMARK    4  A    between atoms: C_6  and  C_7
REMARK    5  A    between atoms: N_8  and  C_9
REMARK    6  A    between atoms: C_9  and  C_10
REMARK    7  A    between atoms: C_10  and  C_11
REMARK    8  A    between atoms: C_13  and  O_14
REMARK    9  A    between atoms: O_14  and  C_15
REMARK   10  A    between atoms: C_16  and  O_17
REMARK   11  A    between atoms: O_17  and  C_18
REMARK   12  A    between atoms: C_19  and  O_20
REMARK   13  A    between atoms: O_20  and  C_21
REMARK   14  A    between atoms: C_26  and  C_27
REMARK                            x       y       z     vdW  Elec       q    Type
REMARK                         _______ _______ _______ _____ _____    ______ ____
ROOT
ATOM      1  C   UNL     1       2.996   4.967  18.791  0.00  0.00    +0.000 C 
ATOM      2  C   UNL     1       2.513   5.715  19.815  0.00  0.00    +0.000 C 
ATOM      3  C   UNL     1       2.211   5.173  21.197  0.00  0.00    +0.000 C 
ATOM      4  N   UNL     1       2.271   7.091  19.591  0.00  0.00    +0.000 N 
ATOM      5  C   UNL     1       2.769   7.747  18.470  0.00  0.00    +0.000 C 
ATOM      6  O   UNL     1       2.729   8.957  18.271  0.00  0.00    +0.000 OA
ATOM      7  N   UNL     1       3.381   6.991  17.535  0.00  0.00    +0.000 N 
ATOM      8  C   UNL     1       3.334   5.557  17.454  0.00  0.00    +0.000 C 
ATOM      9  H   UNL     1       3.662   7.508  16.716  0.00  0.00    +0.000 HD
ENDROOT
BRANCH   8  10
ATOM     10  C   UNL     1       4.667   5.174  16.849  0.00  0.00    +0.000 A 
ATOM     11  C   UNL     1       4.938   4.295  15.815  0.00  0.00    +0.000 A 
ATOM     12  C   UNL     1       6.331   4.172  15.557  0.00  0.00    +0.000 A 
ATOM     13  C   UNL     1       7.084   4.949  16.408  0.00  0.00    +0.000 A 
ATOM     14  S   UNL     1       6.115   5.832  17.501  0.00  0.00    +0.000 S 
ENDBRANCH   8  10
BRANCH   1  15
ATOM     15  C   UNL     1       3.129   3.484  18.862  0.00  0.00    +0.000 C 
ATOM     16  O   UNL     1       2.303   2.667  18.489  0.00  0.00    +0.000 OA
BRANCH  15  18
ATOM     17  C   UNL     1       4.383   2.142  20.336  0.00  0.00    +0.000 C 
ATOM     18  O   UNL     1       4.354   3.191  19.369  0.00  0.00    +0.000 OA
ENDBRANCH  15  18
ENDBRANCH   1  15
BRANCH   4  19
ATOM     19  C   UNL     1       1.646   7.921  20.645  0.00  0.00    +0.000 C 
BRANCH  19  20
ATOM     20  C   UNL     1       0.164   8.297  20.452  0.00  0.00    +0.000 C 
BRANCH  20  21
ATOM     21  C   UNL     1       0.017   9.778  20.207  0.00  0.00    +0.000 A 
ATOM     22  C   UNL     1      -0.838  10.224  19.197  0.00  0.00    +0.000 A 
ATOM     23  C   UNL     1      -0.976  11.587  18.929  0.00  0.00    +0.000 A 
ATOM     24  C   UNL     1      -0.206  12.525  19.653  0.00  0.00    +0.000 A 
ATOM     25  C   UNL     1       0.679  12.079  20.660  0.00  0.00    +0.000 A 
ATOM     26  C   UNL     1       0.765  10.707  20.935  0.00  0.00    +0.000 A 
BRANCH  23  27
ATOM     27  O   UNL     1      -1.824  12.072  17.959  0.00  0.00    +0.000 OA
ATOM     28  C   UNL     1      -2.300  11.117  17.014  0.00  0.00    +0.000 C 
ENDBRANCH  23  27
BRANCH  24  29
ATOM     29  O   UNL     1      -0.349  13.834  19.246  0.00  0.00    +0.000 OA
ATOM     30  C   UNL     1      -1.103  14.688  20.095  0.00  0.00    +0.000 C 
ENDBRANCH  24  29
BRANCH  25  31
ATOM     31  O   UNL     1       1.454  13.009  21.303  0.00  0.00    +0.000 OA
ATOM     32  C   UNL     1       2.627  13.475  20.648  0.00  0.00    +0.000 C 
ENDBRANCH  25  31
ENDBRANCH  20  21
ENDBRANCH  19  20
ENDBRANCH   4  19
TORSDOF 9
ENDMDL
