MODEL 1
REMARK VINA RESULT:      -7.6      0.000      0.000
REMARK  Name = 
REMARK  4 active torsions:
REMARK  status: ('A' for Active; 'I' for Inactive)
REMARK    1  A    between atoms: N_5  and  C_6
REMARK    2  A    between atoms: C_6  and  C_7
REMARK    3  A    between atoms: C_7  and  C_9
REMARK    4  A    between atoms: C_12  and  C_13
REMARK                            x       y       z     vdW  Elec       q    Type
REMARK                         _______ _______ _______ _____ _____    ______ ____
ROOT
ATOM      1  C   UNL     1       2.491   5.066  18.767  0.00  0.00    +0.000 A 
ATOM      2  C   UNL     1       1.991   5.009  20.067  0.00  0.00    +0.000 A 
ATOM      3  C   UNL     1       1.541   6.173  20.704  0.00  0.00    +0.000 A 
ATOM      4  C   UNL     1       1.598   7.432  20.078  0.00  0.00    +0.000 A 
ATOM      5  C   UNL     1       2.143   7.474  18.784  0.00  0.00    +0.000 A 
ATOM      6  C   UNL     1       2.570   6.310  18.131  0.00  0.00    +0.000 A 
ENDROOT
BRANCH   4   7
ATOM      7  C   UNL     1       1.079   8.646  20.748  0.00  0.00    +0.000 A 
ATOM      8  C   UNL     1       0.668   8.625  22.094  0.00  0.00    +0.000 A 
ATOM      9  C   UNL     1       0.126   9.756  22.710  0.00  0.00    +0.000 A 
ATOM     10  C   UNL     1       0.002  10.944  22.002  0.00  0.00    +0.000 A 
ATOM     11  C   UNL     1       0.417  11.000  20.675  0.00  0.00    +0.000 A 
ATOM     12  C   UNL     1       0.943   9.863  20.056  0.00  0.00    +0.000 A 
ENDBRANCH   4   7
BRANCH   1  13
ATOM     13  C   UNL     1       2.917   3.852  18.008  0.00  0.00    +0.000 C 
ATOM     14  O   UNL     1       2.099   3.292  17.273  0.00  0.00    +0.000 OA
BRANCH  13  15
ATOM     15  C   UNL     1       4.338   3.318  18.155  0.00  0.00    +0.000 C 
BRANCH  15  20
ATOM     16  N   UNL     1       7.848   5.516  14.388  0.00  0.00    +0.000 NA
ATOM     17  C   UNL     1       7.018   5.062  15.268  0.00  0.00    +0.000 A 
ATOM     18  C   UNL     1       7.107   5.395  16.714  0.00  0.00    +0.000 A 
ATOM     19  C   UNL     1       6.234   4.814  17.546  0.00  0.00    +0.000 A 
ATOM     20  N   UNL     1       5.243   3.917  17.155  0.00  0.00    +0.000 N 
ATOM     21  C   UNL     1       5.108   3.663  15.796  0.00  0.00    +0.000 A 
ATOM     22  C   UNL     1       5.910   4.170  14.850  0.00  0.00    +0.000 A 
ATOM     23  H   UNL     1       8.557   6.108  14.831  0.00  0.00    +0.000 HD
ENDBRANCH  15  20
ENDBRANCH  13  15
ENDBRANCH   1  13
TORSDOF 4
ENDMDL
MODEL 2
REMARK VINA RESULT:      -7.6      0.497      1.146
REMARK  Name = 
REMARK  4 active torsions:
REMARK  status: ('A' for Active; 'I' for Inactive)
REMARK    1  A    between atoms: N_5  and  C_6
REMARK    2  A    between atoms: C_6  and  C_7
REMARK    3  A    between atoms: C_7  and  C_9
REMARK    4  A    between atoms: C_12  and  C_13
REMARK                            x       y       z     vdW  Elec       q    Type
REMARK                         _______ _______ _______ _____ _____    ______ ____
ROOT
ATOM      1  C   UNL     1       2.527   5.216  19.272  0.00  0.00    +0.000 A 
ATOM      2  C   UNL     1       1.820   5.229  20.473  0.00  0.00    +0.000 A 
ATOM      3  C   UNL     1       1.314   6.432  20.983  0.00  0.00    +0.000 A 
ATOM      4  C   UNL     1       1.519   7.661  20.328  0.00  0.00    +0.000 A 
ATOM      5  C   UNL     1       2.269   7.631  19.140  0.00  0.00    +0.000 A 
ATOM      6  C   UNL     1       2.754   6.428  18.611  0.00  0.00    +0.000 A 
ENDROOT
BRANCH   4   7
ATOM      7  C   UNL     1       0.941   8.917  20.858  0.00  0.00    +0.000 A 
ATOM      8  C   UNL     1       0.499   9.020  22.190  0.00  0.00    +0.000 A 
ATOM      9  C   UNL     1      -0.097  10.188  22.674  0.00  0.00    +0.000 A 
ATOM     10  C   UNL     1      -0.246  11.290  21.844  0.00  0.00    +0.000 A 
ATOM     11  C   UNL     1       0.199  11.225  20.527  0.00  0.00    +0.000 A 
ATOM     12  C   UNL     1       0.779  10.050  20.040  0.00  0.00    +0.000 A 
ENDBRANCH   4   7
BRANCH   1  13
ATOM     13  C   UNL     1       3.027   3.958  18.638  0.00  0.00    +0.000 C 
ATOM     14  O   UNL     1       2.245   3.274  17.973  0.00  0.00    +0.000 OA
BRANCH  13  15
ATOM     15  C   UNL     1       4.480   3.533  18.828  0.00  0.00    +0.000 C 
BRANCH  15  20
ATOM     16  N   UNL     1       7.645   5.488  14.643  0.00  0.00    +0.000 NA
ATOM     17  C   UNL     1       6.926   4.983  15.591  0.00  0.00    +0.000 A 
ATOM     18  C   UNL     1       5.674   4.222  15.341  0.00  0.00    +0.000 A 
ATOM     19  C   UNL     1       4.973   3.801  16.401  0.00  0.00    +0.000 A 
ATOM     20  N   UNL     1       5.332   4.026  17.727  0.00  0.00    +0.000 N 
ATOM     21  C   UNL     1       6.540   4.670  17.965  0.00  0.00    +0.000 A 
ATOM     22  C   UNL     1       7.343   5.148  17.005  0.00  0.00    +0.000 A 
ATOM     23  H   UNL     1       7.223   5.298  13.729  0.00  0.00    +0.000 HD
ENDBRANCH  15  20
ENDBRANCH  13  15
ENDBRANCH   1  13
TORSDOF 4
ENDMDL
MODEL 3
REMARK VINA RESULT:      -7.6      1.788      2.516
REMARK  Name = 
REMARK  4 active torsions:
REMARK  status: ('A' for Active; 'I' for Inactive)
REMARK    1  A    between atoms: N_5  and  C_6
REMARK    2  A    between atoms: C_6  and  C_7
REMARK    3  A    between atoms: C_7  and  C_9
REMARK    4  A    between atoms: C_12  and  C_13
REMARK                            x       y       z     vdW  Elec       q    Type
REMARK                         _______ _______ _______ _____ _____    ______ ____
ROOT
ATOM      1  C   UNL     1       2.507   6.812  19.155  0.00  0.00    +0.000 A 
ATOM      2  C   UNL     1       1.910   7.448  20.242  0.00  0.00    +0.000 A 
ATOM      3  C   UNL     1       1.352   8.725  20.096  0.00  0.00    +0.000 A 
ATOM      4  C   UNL     1       1.394   9.418  18.872  0.00  0.00    +0.000 A 
ATOM      5  C   UNL     1       2.035   8.776  17.799  0.00  0.00    +0.000 A 
ATOM      6  C   UNL     1       2.571   7.488  17.932  0.00  0.00    +0.000 A 
ENDROOT
BRANCH   4   7
ATOM      7  C   UNL     1       0.762  10.748  18.723  0.00  0.00    +0.000 A 
ATOM      8  C   UNL     1      -0.624  10.886  18.520  0.00  0.00    +0.000 A 
ATOM      9  C   UNL     1      -1.214  12.138  18.322  0.00  0.00    +0.000 A 
ATOM     10  C   UNL     1      -0.434  13.287  18.347  0.00  0.00    +0.000 A 
ATOM     11  C   UNL     1       0.936  13.183  18.564  0.00  0.00    +0.000 A 
ATOM     12  C   UNL     1       1.526  11.929  18.743  0.00  0.00    +0.000 A 
ENDBRANCH   4   7
BRANCH   1  13
ATOM     13  C   UNL     1       3.053   5.422  19.227  0.00  0.00    +0.000 C 
ATOM     14  O   UNL     1       2.280   4.470  19.093  0.00  0.00    +0.000 OA
BRANCH  13  15
ATOM     15  C   UNL     1       4.541   5.199  19.474  0.00  0.00    +0.000 C 
BRANCH  15  20
ATOM     16  N   UNL     1       7.515   5.243  14.730  0.00  0.00    +0.000 NA
ATOM     17  C   UNL     1       6.813   5.288  15.814  0.00  0.00    +0.000 A 
ATOM     18  C   UNL     1       7.151   6.169  16.963  0.00  0.00    +0.000 A 
ATOM     19  C   UNL     1       6.393   6.084  18.063  0.00  0.00    +0.000 A 
ATOM     20  N   UNL     1       5.306   5.228  18.211  0.00  0.00    +0.000 N 
ATOM     21  C   UNL     1       4.940   4.459  17.113  0.00  0.00    +0.000 A 
ATOM     22  C   UNL     1       5.606   4.438  15.951  0.00  0.00    +0.000 A 
ATOM     23  H   UNL     1       8.317   5.878  14.792  0.00  0.00    +0.000 HD
ENDBRANCH  15  20
ENDBRANCH  13  15
ENDBRANCH   1  13
TORSDOF 4
ENDMDL
MODEL 4
REMARK VINA RESULT:      -7.6      0.645      1.199
REMARK  Name = 
REMARK  4 active torsions:
REMARK  status: ('A' for Active; 'I' for Inactive)
REMARK    1  A    between atoms: N_5  and  C_6
REMARK    2  A    between atoms: C_6  and  C_7
REMARK    3  A    between atoms: C_7  and  C_9
REMARK    4  A    between atoms: C_12  and  C_13
REMARK                            x       y       z     vdW  Elec       q    Type
REMARK                         _______ _______ _______ _____ _____    ______ ____
ROOT
ATOM      1  C   UNL     1       2.677   5.058  19.404  0.00  0.00    +0.000 A 
ATOM      2  C   UNL     1       2.913   6.266  18.749  0.00  0.00    +0.000 A 
ATOM      3  C   UNL     1       2.351   7.455  19.234  0.00  0.00    +0.000 A 
ATOM      4  C   UNL     1       1.517   7.474  20.367  0.00  0.00    +0.000 A 
ATOM      5  C   UNL     1       1.258   6.240  20.988  0.00  0.00    +0.000 A 
ATOM      6  C   UNL     1       1.839   5.052  20.524  0.00  0.00    +0.000 A 
ENDROOT
BRANCH   4   7
ATOM      7  C   UNL     1       0.965   8.744  20.892  0.00  0.00    +0.000 A 
ATOM      8  C   UNL     1       0.548   8.868  22.230  0.00  0.00    +0.000 A 
ATOM      9  C   UNL     1      -0.024  10.049  22.712  0.00  0.00    +0.000 A 
ATOM     10  C   UNL     1      -0.172  11.144  21.872  0.00  0.00    +0.000 A 
ATOM     11  C   UNL     1       0.249  11.058  20.549  0.00  0.00    +0.000 A 
ATOM     12  C   UNL     1       0.804   9.870  20.065  0.00  0.00    +0.000 A 
ENDBRANCH   4   7
BRANCH   1  13
ATOM     13  C   UNL     1       3.306   3.770  18.981  0.00  0.00    +0.000 C 
ATOM     14  O   UNL     1       2.585   2.870  18.544  0.00  0.00    +0.000 OA
BRANCH  13  15
ATOM     15  C   UNL     1       4.815   3.582  19.103  0.00  0.00    +0.000 C 
BRANCH  15  20
ATOM     16  N   UNL     1       7.563   5.487  14.612  0.00  0.00    +0.000 NA
ATOM     17  C   UNL     1       6.914   5.101  15.660  0.00  0.00    +0.000 A 
ATOM     18  C   UNL     1       7.309   5.478  17.043  0.00  0.00    +0.000 A 
ATOM     19  C   UNL     1       6.603   4.967  18.059  0.00  0.00    +0.000 A 
ATOM     20  N   UNL     1       5.519   4.104  17.915  0.00  0.00    +0.000 N 
ATOM     21  C   UNL     1       5.099   3.811  16.623  0.00  0.00    +0.000 A 
ATOM     22  C   UNL     1       5.710   4.248  15.514  0.00  0.00    +0.000 A 
ATOM     23  H   UNL     1       8.370   6.059  14.877  0.00  0.00    +0.000 HD
ENDBRANCH  15  20
ENDBRANCH  13  15
ENDBRANCH   1  13
TORSDOF 4
ENDMDL
MODEL 5
REMARK VINA RESULT:      -7.6      0.306      1.067
REMARK  Name = 
REMARK  4 active torsions:
REMARK  status: ('A' for Active; 'I' for Inactive)
REMARK    1  A    between atoms: N_5  and  C_6
REMARK    2  A    between atoms: C_6  and  C_7
REMARK    3  A    between atoms: C_7  and  C_9
REMARK    4  A    between atoms: C_12  and  C_13
REMARK                            x       y       z     vdW  Elec       q    Type
REMARK                         _______ _______ _______ _____ _____    ______ ____
ROOT
ATOM      1  C   UNL     1       2.405   5.167  18.942  0.00  0.00    +0.000 A 
ATOM      2  C   UNL     1       1.848   5.174  20.219  0.00  0.00    +0.000 A 
ATOM      3  C   UNL     1       1.388   6.371  20.784  0.00  0.00    +0.000 A 
ATOM      4  C   UNL     1       1.494   7.600  20.108  0.00  0.00    +0.000 A 
ATOM      5  C   UNL     1       2.096   7.578  18.838  0.00  0.00    +0.000 A 
ATOM      6  C   UNL     1       2.532   6.380  18.257  0.00  0.00    +0.000 A 
ENDROOT
BRANCH   4   7
ATOM      7  C   UNL     1       0.964   8.849  20.700  0.00  0.00    +0.000 A 
ATOM      8  C   UNL     1       0.942  10.056  19.976  0.00  0.00    +0.000 A 
ATOM      9  C   UNL     1       0.494  11.248  20.553  0.00  0.00    +0.000 A 
ATOM     10  C   UNL     1       0.036  11.257  21.864  0.00  0.00    +0.000 A 
ATOM     11  C   UNL     1       0.029  10.076  22.599  0.00  0.00    +0.000 A 
ATOM     12  C   UNL     1       0.493   8.890  22.025  0.00  0.00    +0.000 A 
ENDBRANCH   4   7
BRANCH   1  13
ATOM     13  C   UNL     1       2.845   3.915  18.255  0.00  0.00    +0.000 C 
ATOM     14  O   UNL     1       2.035   3.305  17.552  0.00  0.00    +0.000 OA
BRANCH  13  15
ATOM     15  C   UNL     1       4.271   3.404  18.438  0.00  0.00    +0.000 C 
BRANCH  15  20
ATOM     16  N   UNL     1       7.791   5.523  14.634  0.00  0.00    +0.000 NA
ATOM     17  C   UNL     1       6.971   5.087  15.533  0.00  0.00    +0.000 A 
ATOM     18  C   UNL     1       7.260   5.144  16.990  0.00  0.00    +0.000 A 
ATOM     19  C   UNL     1       6.367   4.603  17.828  0.00  0.00    +0.000 A 
ATOM     20  N   UNL     1       5.183   3.986  17.434  0.00  0.00    +0.000 N 
ATOM     21  C   UNL     1       4.873   3.999  16.079  0.00  0.00    +0.000 A 
ATOM     22  C   UNL     1       5.670   4.503  15.127  0.00  0.00    +0.000 A 
ATOM     23  H   UNL     1       8.644   5.887  15.070  0.00  0.00    +0.000 HD
ENDBRANCH  15  20
ENDBRANCH  13  15
ENDBRANCH   1  13
TORSDOF 4
ENDMDL
MODEL 6
REMARK VINA RESULT:      -7.5      0.695      1.598
REMARK  Name = 
REMARK  4 active torsions:
REMARK  status: ('A' for Active; 'I' for Inactive)
REMARK    1  A    between atoms: N_5  and  C_6
REMARK    2  A    between atoms: C_6  and  C_7
REMARK    3  A    between atoms: C_7  and  C_9
REMARK    4  A    between atoms: C_12  and  C_13
REMARK                            x       y       z     vdW  Elec       q    Type
REMARK                         _______ _______ _______ _____ _____    ______ ____
ROOT
ATOM      1  C   UNL     1       2.658   5.108  19.451  0.00  0.00    +0.000 A 
ATOM      2  C   UNL     1       2.843   6.293  18.741  0.00  0.00    +0.000 A 
ATOM      3  C   UNL     1       2.265   7.487  19.194  0.00  0.00    +0.000 A 
ATOM      4  C   UNL     1       1.464   7.533  20.349  0.00  0.00    +0.000 A 
ATOM      5  C   UNL     1       1.257   6.320  21.028  0.00  0.00    +0.000 A 
ATOM      6  C   UNL     1       1.854   5.128  20.596  0.00  0.00    +0.000 A 
ENDROOT
BRANCH   4   7
ATOM      7  C   UNL     1       0.896   8.809  20.838  0.00  0.00    +0.000 A 
ATOM      8  C   UNL     1       0.825   9.947  20.013  0.00  0.00    +0.000 A 
ATOM      9  C   UNL     1       0.340  11.168  20.491  0.00  0.00    +0.000 A 
ATOM     10  C   UNL     1      -0.108  11.275  21.801  0.00  0.00    +0.000 A 
ATOM     11  C   UNL     1      -0.067  10.162  22.635  0.00  0.00    +0.000 A 
ATOM     12  C   UNL     1       0.435   8.947  22.160  0.00  0.00    +0.000 A 
ENDBRANCH   4   7
BRANCH   1  13
ATOM     13  C   UNL     1       3.307   3.820  19.062  0.00  0.00    +0.000 C 
ATOM     14  O   UNL     1       2.600   2.895  18.653  0.00  0.00    +0.000 OA
BRANCH  13  15
ATOM     15  C   UNL     1       4.819   3.659  19.185  0.00  0.00    +0.000 C 
BRANCH  15  20
ATOM     16  N   UNL     1       7.515   5.404  14.598  0.00  0.00    +0.000 NA
ATOM     17  C   UNL     1       6.880   5.056  15.669  0.00  0.00    +0.000 A 
ATOM     18  C   UNL     1       7.332   5.426  17.036  0.00  0.00    +0.000 A 
ATOM     19  C   UNL     1       6.634   4.955  18.076  0.00  0.00    +0.000 A 
ATOM     20  N   UNL     1       5.510   4.140  17.973  0.00  0.00    +0.000 N 
ATOM     21  C   UNL     1       5.040   3.855  16.696  0.00  0.00    +0.000 A 
ATOM     22  C   UNL     1       5.636   4.256  15.565  0.00  0.00    +0.000 A 
ATOM     23  H   UNL     1       8.353   5.943  14.834  0.00  0.00    +0.000 HD
ENDBRANCH  15  20
ENDBRANCH  13  15
ENDBRANCH   1  13
TORSDOF 4
ENDMDL
MODEL 7
REMARK VINA RESULT:      -7.5      2.711      4.238
REMARK  Name = 
REMARK  4 active torsions:
REMARK  status: ('A' for Active; 'I' for Inactive)
REMARK    1  A    between atoms: N_5  and  C_6
REMARK    2  A    between atoms: C_6  and  C_7
REMARK    3  A    between atoms: C_7  and  C_9
REMARK    4  A    between atoms: C_12  and  C_13
REMARK                            x       y       z     vdW  Elec       q    Type
REMARK                         _______ _______ _______ _____ _____    ______ ____
ROOT
ATOM      1  C   UNL     1       2.795   7.127  18.489  0.00  0.00    +0.000 A 
ATOM      2  C   UNL     1       2.465   7.076  19.842  0.00  0.00    +0.000 A 
ATOM      3  C   UNL     1       1.634   8.055  20.405  0.00  0.00    +0.000 A 
ATOM      4  C   UNL     1       1.129   9.126  19.646  0.00  0.00    +0.000 A 
ATOM      5  C   UNL     1       1.507   9.182  18.294  0.00  0.00    +0.000 A 
ATOM      6  C   UNL     1       2.315   8.192  17.719  0.00  0.00    +0.000 A 
ENDROOT
BRANCH   4   7
ATOM      7  C   UNL     1       0.218  10.128  20.245  0.00  0.00    +0.000 A 
ATOM      8  C   UNL     1       0.090  10.265  21.640  0.00  0.00    +0.000 A 
ATOM      9  C   UNL     1      -0.811  11.172  22.206  0.00  0.00    +0.000 A 
ATOM     10  C   UNL     1      -1.590  11.980  21.390  0.00  0.00    +0.000 A 
ATOM     11  C   UNL     1      -1.472  11.881  20.007  0.00  0.00    +0.000 A 
ATOM     12  C   UNL     1      -0.583  10.961  19.444  0.00  0.00    +0.000 A 
ENDBRANCH   4   7
BRANCH   1  13
ATOM     13  C   UNL     1       3.615   6.075  17.814  0.00  0.00    +0.000 C 
ATOM     14  O   UNL     1       4.775   6.340  17.490  0.00  0.00    +0.000 OA
BRANCH  13  15
ATOM     15  C   UNL     1       3.010   4.705  17.525  0.00  0.00    +0.000 C 
BRANCH  15  20
ATOM     16  N   UNL     1       1.447   2.232  22.299  0.00  0.00    +0.000 NA
ATOM     17  C   UNL     1       1.829   2.752  21.179  0.00  0.00    +0.000 A 
ATOM     18  C   UNL     1       3.258   2.883  20.792  0.00  0.00    +0.000 A 
ATOM     19  C   UNL     1       3.542   3.499  19.638  0.00  0.00    +0.000 A 
ATOM     20  N   UNL     1       2.593   4.029  18.769  0.00  0.00    +0.000 N 
ATOM     21  C   UNL     1       1.253   3.841  19.090  0.00  0.00    +0.000 A 
ATOM     22  C   UNL     1       0.822   3.247  20.210  0.00  0.00    +0.000 A 
ATOM     23  H   UNL     1       2.255   1.948  22.860  0.00  0.00    +0.000 HD
ENDBRANCH  15  20
ENDBRANCH  13  15
ENDBRANCH   1  13
TORSDOF 4
ENDMDL
MODEL 8
REMARK VINA RESULT:      -7.5      0.954      1.235
REMARK  Name = 
REMARK  4 active torsions:
REMARK  status: ('A' for Active; 'I' for Inactive)
REMARK    1  A    between atoms: N_5  and  C_6
REMARK    2  A    between atoms: C_6  and  C_7
REMARK    3  A    between atoms: C_7  and  C_9
REMARK    4  A    between atoms: C_12  and  C_13
REMARK                            x       y       z     vdW  Elec       q    Type
REMARK                         _______ _______ _______ _____ _____    ______ ____
ROOT
ATOM      1  C   UNL     1       2.569   5.648  19.249  0.00  0.00    +0.000 A 
ATOM      2  C   UNL     1       2.012   6.036  20.467  0.00  0.00    +0.000 A 
ATOM      3  C   UNL     1       1.536   7.342  20.642  0.00  0.00    +0.000 A 
ATOM      4  C   UNL     1       1.623   8.307  19.622  0.00  0.00    +0.000 A 
ATOM      5  C   UNL     1       2.224   7.907  18.417  0.00  0.00    +0.000 A 
ATOM      6  C   UNL     1       2.679   6.596  18.226  0.00  0.00    +0.000 A 
ENDROOT
BRANCH   4   7
ATOM      7  C   UNL     1       1.075   9.670  19.808  0.00  0.00    +0.000 A 
ATOM      8  C   UNL     1       0.504  10.074  21.029  0.00  0.00    +0.000 A 
ATOM      9  C   UNL     1      -0.063  11.342  21.188  0.00  0.00    +0.000 A 
ATOM     10  C   UNL     1      -0.052  12.247  20.135  0.00  0.00    +0.000 A 
ATOM     11  C   UNL     1       0.524  11.883  18.922  0.00  0.00    +0.000 A 
ATOM     12  C   UNL     1       1.074  10.608  18.760  0.00  0.00    +0.000 A 
ENDBRANCH   4   7
BRANCH   1  13
ATOM     13  C   UNL     1       3.027   4.251  18.975  0.00  0.00    +0.000 C 
ATOM     14  O   UNL     1       2.197   3.411  18.618  0.00  0.00    +0.000 OA
BRANCH  13  15
ATOM     15  C   UNL     1       4.497   3.882  19.148  0.00  0.00    +0.000 C 
BRANCH  15  20
ATOM     16  N   UNL     1       7.595   5.328  14.714  0.00  0.00    +0.000 NA
ATOM     17  C   UNL     1       6.863   5.049  15.742  0.00  0.00    +0.000 A 
ATOM     18  C   UNL     1       7.139   5.583  17.102  0.00  0.00    +0.000 A 
ATOM     19  C   UNL     1       6.354   5.174  18.107  0.00  0.00    +0.000 A 
ATOM     20  N   UNL     1       5.294   4.282  17.972  0.00  0.00    +0.000 N 
ATOM     21  C   UNL     1       4.985   3.842  16.690  0.00  0.00    +0.000 A 
ATOM     22  C   UNL     1       5.683   4.164  15.593  0.00  0.00    +0.000 A 
ATOM     23  H   UNL     1       8.372   5.940  14.979  0.00  0.00    +0.000 HD
ENDBRANCH  15  20
ENDBRANCH  13  15
ENDBRANCH   1  13
TORSDOF 4
ENDMDL
MODEL 9
REMARK VINA RESULT:      -7.4      0.972      2.133
REMARK  Name = 
REMARK  4 active torsions:
REMARK  status: ('A' for Active; 'I' for Inactive)
REMARK    1  A    between atoms: N_5  and  C_6
REMARK    2  A    between atoms: C_6  and  C_7
REMARK    3  A    between atoms: C_7  and  C_9
REMARK    4  A    between atoms: C_12  and  C_13
REMARK                            x       y       z     vdW  Elec       q    Type
REMARK                         _______ _______ _______ _____ _____    ______ ____
ROOT
ATOM      1  C   UNL     1       2.608   5.388  19.178  0.00  0.00    +0.000 A 
ATOM      2  C   UNL     1       2.711   6.315  18.142  0.00  0.00    +0.000 A 
ATOM      3  C   UNL     1       2.267   7.632  18.324  0.00  0.00    +0.000 A 
ATOM      4  C   UNL     1       1.683   8.059  19.530  0.00  0.00    +0.000 A 
ATOM      5  C   UNL     1       1.551   7.099  20.548  0.00  0.00    +0.000 A 
ATOM      6  C   UNL     1       2.018   5.788  20.382  0.00  0.00    +0.000 A 
ENDROOT
BRANCH   4   7
ATOM      7  C   UNL     1       1.259   9.464  19.722  0.00  0.00    +0.000 A 
ATOM      8  C   UNL     1       1.308  10.398  18.669  0.00  0.00    +0.000 A 
ATOM      9  C   UNL     1       0.960  11.738  18.863  0.00  0.00    +0.000 A 
ATOM     10  C   UNL     1       0.531  12.172  20.110  0.00  0.00    +0.000 A 
ATOM     11  C   UNL     1       0.454  11.269  21.165  0.00  0.00    +0.000 A 
ATOM     12  C   UNL     1       0.819   9.933  20.973  0.00  0.00    +0.000 A 
ENDBRANCH   4   7
BRANCH   1  13
ATOM     13  C   UNL     1       3.129   3.992  19.073  0.00  0.00    +0.000 C 
ATOM     14  O   UNL     1       2.337   3.076  18.839  0.00  0.00    +0.000 OA
BRANCH  13  15
ATOM     15  C   UNL     1       4.617   3.716  19.264  0.00  0.00    +0.000 C 
BRANCH  15  20
ATOM     16  N   UNL     1       7.498   5.311  14.735  0.00  0.00    +0.000 NA
ATOM     17  C   UNL     1       6.845   4.888  15.767  0.00  0.00    +0.000 A 
ATOM     18  C   UNL     1       5.597   4.087  15.664  0.00  0.00    +0.000 A 
ATOM     19  C   UNL     1       4.966   3.759  16.798  0.00  0.00    +0.000 A 
ATOM     20  N   UNL     1       5.395   4.115  18.074  0.00  0.00    +0.000 N 
ATOM     21  C   UNL     1       6.601   4.797  18.179  0.00  0.00    +0.000 A 
ATOM     22  C   UNL     1       7.337   5.193  17.132  0.00  0.00    +0.000 A 
ATOM     23  H   UNL     1       7.029   5.028  13.870  0.00  0.00    +0.000 HD
ENDBRANCH  15  20
ENDBRANCH  13  15
ENDBRANCH   1  13
TORSDOF 4
ENDMDL
