MODEL 1
REMARK VINA RESULT:      -8.9      0.000      0.000
REMARK  Name = 
REMARK  5 active torsions:
REMARK  status: ('A' for Active; 'I' for Inactive)
REMARK    1  A    between atoms: C_1  and  O_2
REMARK    2  A    between atoms: O_2  and  C_3
REMARK    3  A    between atoms: C_7  and  C_8
REMARK    4  A    between atoms: N_14  and  N_15
REMARK    5  A    between atoms: N_15  and  C_16
REMARK                            x       y       z     vdW  Elec       q    Type
REMARK                         _______ _______ _______ _____ _____    ______ ____
ROOT
ATOM      1  C   UNL     1       7.007   4.581  16.262  0.00  0.00    +0.000 C 
ATOM      2  N   UNL     1       8.035   4.204  16.977  0.00  0.00    +0.000 NA
ATOM      3  N   UNL     1       7.751   4.484  18.305  0.00  0.00    +0.000 N 
ATOM      4  C   UNL     1       6.541   5.097  18.522  0.00  0.00    +0.000 C 
ATOM      5  O   UNL     1       6.044   5.569  19.525  0.00  0.00    +0.000 OA
ATOM      6  C   UNL     1       5.929   5.081  17.158  0.00  0.00    +0.000 C 
ATOM      7  N   UNL     1       4.715   5.344  16.793  0.00  0.00    +0.000 NA
ATOM      8  H   UNL     1       8.454   4.341  19.021  0.00  0.00    +0.000 HD
ENDROOT
BRANCH   1  13
ATOM      9  C   UNL     1       6.098   3.546  12.786  0.00  0.00    +0.000 A 
ATOM     10  C   UNL     1       6.920   4.391  12.035  0.00  0.00    +0.000 A 
ATOM     11  C   UNL     1       7.764   5.312  12.661  0.00  0.00    +0.000 A 
ATOM     12  C   UNL     1       7.777   5.401  14.049  0.00  0.00    +0.000 A 
ATOM     13  C   UNL     1       6.952   4.567  14.804  0.00  0.00    +0.000 A 
ATOM     14  C   UNL     1       6.119   3.632  14.176  0.00  0.00    +0.000 A 
BRANCH   9  16
ATOM     15  C   UNL     1       4.228   3.203  11.359  0.00  0.00    +0.000 C 
ATOM     16  O   UNL     1       5.348   2.667  12.055  0.00  0.00    +0.000 OA
ENDBRANCH   9  16
ENDBRANCH   1  13
BRANCH   7  17
ATOM     17  N   UNL     1       3.870   5.738  17.773  0.00  0.00    +0.000 N 
ATOM     18  H   UNL     1       3.727   6.727  17.999  0.00  0.00    +0.000 HD
BRANCH  17  19
ATOM     19  C   UNL     1       2.986   4.819  18.358  0.00  0.00    +0.000 A 
ATOM     20  C   UNL     1       2.013   4.209  17.555  0.00  0.00    +0.000 A 
ATOM     21  C   UNL     1       1.087   3.313  18.097  0.00  0.00    +0.000 A 
ATOM     22  C   UNL     1       1.113   3.031  19.459  0.00  0.00    +0.000 A 
ATOM     23  C   UNL     1       2.069   3.640  20.270  0.00  0.00    +0.000 A 
ATOM     24 CL   UNL     1       2.093   3.300  21.958  0.00  0.00    +0.000 Cl
ATOM     25  C   UNL     1       3.001   4.524  19.727  0.00  0.00    +0.000 A 
ENDBRANCH  17  19
ENDBRANCH   7  17
TORSDOF 4
ENDMDL
MODEL 2
REMARK VINA RESULT:      -8.5      1.078      1.403
REMARK  Name = 
REMARK  5 active torsions:
REMARK  status: ('A' for Active; 'I' for Inactive)
REMARK    1  A    between atoms: C_1  and  O_2
REMARK    2  A    between atoms: O_2  and  C_3
REMARK    3  A    between atoms: C_7  and  C_8
REMARK    4  A    between atoms: N_14  and  N_15
REMARK    5  A    between atoms: N_15  and  C_16
REMARK                            x       y       z     vdW  Elec       q    Type
REMARK                         _______ _______ _______ _____ _____    ______ ____
ROOT
ATOM      1  C   UNL     1       7.024   4.659  16.093  0.00  0.00    +0.000 C 
ATOM      2  N   UNL     1       7.952   4.100  16.825  0.00  0.00    +0.000 NA
ATOM      3  N   UNL     1       7.735   4.476  18.142  0.00  0.00    +0.000 N 
ATOM      4  C   UNL     1       6.679   5.334  18.333  0.00  0.00    +0.000 C 
ATOM      5  O   UNL     1       6.294   5.932  19.317  0.00  0.00    +0.000 OA
ATOM      6  C   UNL     1       6.075   5.401  16.967  0.00  0.00    +0.000 C 
ATOM      7  N   UNL     1       4.942   5.899  16.587  0.00  0.00    +0.000 NA
ATOM      8  H   UNL     1       8.394   4.214  18.865  0.00  0.00    +0.000 HD
ENDROOT
BRANCH   1  13
ATOM      9  C   UNL     1       6.097   3.544  12.646  0.00  0.00    +0.000 A 
ATOM     10  C   UNL     1       6.923   4.365  11.872  0.00  0.00    +0.000 A 
ATOM     11  C   UNL     1       7.774   5.295  12.473  0.00  0.00    +0.000 A 
ATOM     12  C   UNL     1       7.793   5.418  13.858  0.00  0.00    +0.000 A 
ATOM     13  C   UNL     1       6.964   4.608  14.636  0.00  0.00    +0.000 A 
ATOM     14  C   UNL     1       6.122   3.665  14.034  0.00  0.00    +0.000 A 
BRANCH   9  16
ATOM     15  C   UNL     1       4.169   3.163  11.309  0.00  0.00    +0.000 C 
ATOM     16  O   UNL     1       5.338   2.652  11.939  0.00  0.00    +0.000 OA
ENDBRANCH   9  16
ENDBRANCH   1  13
BRANCH   7  17
ATOM     17  N   UNL     1       4.199   6.492  17.550  0.00  0.00    +0.000 N 
ATOM     18  H   UNL     1       4.157   7.511  17.650  0.00  0.00    +0.000 HD
BRANCH  17  19
ATOM     19  C   UNL     1       3.277   5.742  18.296  0.00  0.00    +0.000 A 
ATOM     20  C   UNL     1       2.797   6.265  19.504  0.00  0.00    +0.000 A 
ATOM     21  C   UNL     1       1.904   5.542  20.300  0.00  0.00    +0.000 A 
ATOM     22  C   UNL     1       1.496   4.272  19.903  0.00  0.00    +0.000 A 
ATOM     23  C   UNL     1       1.976   3.736  18.710  0.00  0.00    +0.000 A 
ATOM     24 CL   UNL     1       1.481   2.160  18.226  0.00  0.00    +0.000 Cl
ATOM     25  C   UNL     1       2.857   4.463  17.909  0.00  0.00    +0.000 A 
ENDBRANCH  17  19
ENDBRANCH   7  17
TORSDOF 4
ENDMDL
MODEL 3
REMARK VINA RESULT:      -8.3      3.480      4.517
REMARK  Name = 
REMARK  5 active torsions:
REMARK  status: ('A' for Active; 'I' for Inactive)
REMARK    1  A    between atoms: C_1  and  O_2
REMARK    2  A    between atoms: O_2  and  C_3
REMARK    3  A    between atoms: C_7  and  C_8
REMARK    4  A    between atoms: N_14  and  N_15
REMARK    5  A    between atoms: N_15  and  C_16
REMARK                            x       y       z     vdW  Elec       q    Type
REMARK                         _______ _______ _______ _____ _____    ______ ____
ROOT
ATOM      1  C   UNL     1       4.133   3.794  18.632  0.00  0.00    +0.000 C 
ATOM      2  N   UNL     1       3.793   2.571  18.945  0.00  0.00    +0.000 NA
ATOM      3  N   UNL     1       2.938   2.636  20.035  0.00  0.00    +0.000 N 
ATOM      4  C   UNL     1       2.709   3.902  20.517  0.00  0.00    +0.000 C 
ATOM      5  O   UNL     1       2.118   4.295  21.502  0.00  0.00    +0.000 OA
ATOM      6  C   UNL     1       3.415   4.755  19.513  0.00  0.00    +0.000 C 
ATOM      7  N   UNL     1       3.373   6.038  19.342  0.00  0.00    +0.000 NA
ATOM      8  H   UNL     1       2.618   1.787  20.487  0.00  0.00    +0.000 HD
ENDROOT
BRANCH   1  13
ATOM      9  C   UNL     1       5.655   4.396  15.271  0.00  0.00    +0.000 A 
ATOM     10  C   UNL     1       6.976   4.684  15.626  0.00  0.00    +0.000 A 
ATOM     11  C   UNL     1       7.371   4.697  16.966  0.00  0.00    +0.000 A 
ATOM     12  C   UNL     1       6.437   4.434  17.962  0.00  0.00    +0.000 A 
ATOM     13  C   UNL     1       5.114   4.155  17.614  0.00  0.00    +0.000 A 
ATOM     14  C   UNL     1       4.723   4.126  16.269  0.00  0.00    +0.000 A 
BRANCH   9  16
ATOM     15  C   UNL     1       6.239   3.543  13.130  0.00  0.00    +0.000 C 
ATOM     16  O   UNL     1       5.407   4.380  13.926  0.00  0.00    +0.000 OA
ENDBRANCH   9  16
ENDBRANCH   1  13
BRANCH   7  17
ATOM     17  N   UNL     1       2.619   6.732  20.224  0.00  0.00    +0.000 N 
ATOM     18  H   UNL     1       2.684   6.573  21.234  0.00  0.00    +0.000 HD
BRANCH  17  19
ATOM     19  C   UNL     1       1.891   7.856  19.804  0.00  0.00    +0.000 A 
ATOM     20  C   UNL     1       2.014   8.286  18.476  0.00  0.00    +0.000 A 
ATOM     21  C   UNL     1       1.337   9.420  18.019  0.00  0.00    +0.000 A 
ATOM     22  C   UNL     1       0.541  10.151  18.895  0.00  0.00    +0.000 A 
ATOM     23  C   UNL     1       0.419   9.739  20.221  0.00  0.00    +0.000 A 
ATOM     24 CL   UNL     1      -0.556  10.651  21.308  0.00  0.00    +0.000 Cl
ATOM     25  C   UNL     1       1.084   8.601  20.674  0.00  0.00    +0.000 A 
ENDBRANCH  17  19
ENDBRANCH   7  17
TORSDOF 4
ENDMDL
MODEL 4
REMARK VINA RESULT:      -8.2      3.568      4.981
REMARK  Name = 
REMARK  5 active torsions:
REMARK  status: ('A' for Active; 'I' for Inactive)
REMARK    1  A    between atoms: C_1  and  O_2
REMARK    2  A    between atoms: O_2  and  C_3
REMARK    3  A    between atoms: C_7  and  C_8
REMARK    4  A    between atoms: N_14  and  N_15
REMARK    5  A    between atoms: N_15  and  C_16
REMARK                            x       y       z     vdW  Elec       q    Type
REMARK                         _______ _______ _______ _____ _____    ______ ____
ROOT
ATOM      1  C   UNL     1       4.152   3.815  18.452  0.00  0.00    +0.000 C 
ATOM      2  N   UNL     1       3.907   2.579  18.801  0.00  0.00    +0.000 NA
ATOM      3  N   UNL     1       3.115   2.610  19.938  0.00  0.00    +0.000 N 
ATOM      4  C   UNL     1       2.836   3.867  20.417  0.00  0.00    +0.000 C 
ATOM      5  O   UNL     1       2.281   4.240  21.430  0.00  0.00    +0.000 OA
ATOM      6  C   UNL     1       3.428   4.746  19.361  0.00  0.00    +0.000 C 
ATOM      7  N   UNL     1       3.296   6.020  19.176  0.00  0.00    +0.000 NA
ATOM      8  H   UNL     1       2.876   1.751  20.421  0.00  0.00    +0.000 HD
ENDROOT
BRANCH   1  13
ATOM      9  C   UNL     1       6.856   5.633  16.617  0.00  0.00    +0.000 A 
ATOM     10  C   UNL     1       6.679   5.134  15.324  0.00  0.00    +0.000 A 
ATOM     11  C   UNL     1       5.685   4.192  15.049  0.00  0.00    +0.000 A 
ATOM     12  C   UNL     1       4.869   3.731  16.077  0.00  0.00    +0.000 A 
ATOM     13  C   UNL     1       5.047   4.218  17.373  0.00  0.00    +0.000 A 
ATOM     14  C   UNL     1       6.033   5.176  17.644  0.00  0.00    +0.000 A 
BRANCH   9  16
ATOM     15  C   UNL     1       7.513   7.742  17.495  0.00  0.00    +0.000 C 
ATOM     16  O   UNL     1       7.838   6.576  16.746  0.00  0.00    +0.000 OA
ENDBRANCH   9  16
ENDBRANCH   1  13
BRANCH   7  17
ATOM     17  N   UNL     1       2.553   6.682  20.092  0.00  0.00    +0.000 N 
ATOM     18  H   UNL     1       2.583   6.442  21.088  0.00  0.00    +0.000 HD
BRANCH  17  19
ATOM     19  C   UNL     1       1.893   7.870  19.745  0.00  0.00    +0.000 A 
ATOM     20  C   UNL     1       2.036   8.370  18.443  0.00  0.00    +0.000 A 
ATOM     21  C   UNL     1       1.427   9.568  18.059  0.00  0.00    +0.000 A 
ATOM     22  C   UNL     1       0.680  10.292  18.983  0.00  0.00    +0.000 A 
ATOM     23  C   UNL     1       0.540   9.811  20.283  0.00  0.00    +0.000 A 
ATOM     24 CL   UNL     1      -0.374  10.713  21.430  0.00  0.00    +0.000 Cl
ATOM     25  C   UNL     1       1.137   8.609  20.664  0.00  0.00    +0.000 A 
ENDBRANCH  17  19
ENDBRANCH   7  17
TORSDOF 4
ENDMDL
MODEL 5
REMARK VINA RESULT:      -8.2      1.738      2.379
REMARK  Name = 
REMARK  5 active torsions:
REMARK  status: ('A' for Active; 'I' for Inactive)
REMARK    1  A    between atoms: C_1  and  O_2
REMARK    2  A    between atoms: O_2  and  C_3
REMARK    3  A    between atoms: C_7  and  C_8
REMARK    4  A    between atoms: N_14  and  N_15
REMARK    5  A    between atoms: N_15  and  C_16
REMARK                            x       y       z     vdW  Elec       q    Type
REMARK                         _______ _______ _______ _____ _____    ______ ____
ROOT
ATOM      1  C   UNL     1       6.443   4.450  14.318  0.00  0.00    +0.000 C 
ATOM      2  N   UNL     1       7.386   5.347  14.188  0.00  0.00    +0.000 NA
ATOM      3  N   UNL     1       7.628   5.890  15.440  0.00  0.00    +0.000 N 
ATOM      4  C   UNL     1       6.826   5.407  16.446  0.00  0.00    +0.000 C 
ATOM      5  O   UNL     1       6.700   5.740  17.607  0.00  0.00    +0.000 OA
ATOM      6  C   UNL     1       6.068   4.321  15.753  0.00  0.00    +0.000 C 
ATOM      7  N   UNL     1       5.314   3.392  16.248  0.00  0.00    +0.000 NA
ATOM      8  H   UNL     1       8.272   6.665  15.547  0.00  0.00    +0.000 HD
ENDROOT
BRANCH   1  13
ATOM      9  C   UNL     1       5.964   1.993  11.540  0.00  0.00    +0.000 A 
ATOM     10  C   UNL     1       4.740   2.419  11.019  0.00  0.00    +0.000 A 
ATOM     11  C   UNL     1       4.059   3.502  11.581  0.00  0.00    +0.000 A 
ATOM     12  C   UNL     1       4.597   4.156  12.683  0.00  0.00    +0.000 A 
ATOM     13  C   UNL     1       5.815   3.729  13.215  0.00  0.00    +0.000 A 
ATOM     14  C   UNL     1       6.505   2.654  12.640  0.00  0.00    +0.000 A 
BRANCH   9  16
ATOM     15  C   UNL     1       6.176  -0.362  11.297  0.00  0.00    +0.000 C 
ATOM     16  O   UNL     1       6.545   0.947  10.878  0.00  0.00    +0.000 OA
ENDBRANCH   9  16
ENDBRANCH   1  13
BRANCH   7  17
ATOM     17  N   UNL     1       5.137   3.420  17.589  0.00  0.00    +0.000 N 
ATOM     18  H   UNL     1       5.917   3.585  18.234  0.00  0.00    +0.000 HD
BRANCH  17  19
ATOM     19  C   UNL     1       3.845   3.457  18.132  0.00  0.00    +0.000 A 
ATOM     20  C   UNL     1       2.795   3.961  17.353  0.00  0.00    +0.000 A 
ATOM     21  C   UNL     1       1.496   4.050  17.861  0.00  0.00    +0.000 A 
ATOM     22  C   UNL     1       1.236   3.652  19.169  0.00  0.00    +0.000 A 
ATOM     23  C   UNL     1       2.274   3.160  19.958  0.00  0.00    +0.000 A 
ATOM     24 CL   UNL     1       1.955   2.680  21.580  0.00  0.00    +0.000 Cl
ATOM     25  C   UNL     1       3.568   3.059  19.447  0.00  0.00    +0.000 A 
ENDBRANCH  17  19
ENDBRANCH   7  17
TORSDOF 4
ENDMDL
MODEL 6
REMARK VINA RESULT:      -8.0      3.652      5.262
REMARK  Name = 
REMARK  5 active torsions:
REMARK  status: ('A' for Active; 'I' for Inactive)
REMARK    1  A    between atoms: C_1  and  O_2
REMARK    2  A    between atoms: O_2  and  C_3
REMARK    3  A    between atoms: C_7  and  C_8
REMARK    4  A    between atoms: N_14  and  N_15
REMARK    5  A    between atoms: N_15  and  C_16
REMARK                            x       y       z     vdW  Elec       q    Type
REMARK                         _______ _______ _______ _____ _____    ______ ____
ROOT
ATOM      1  C   UNL     1       3.178   4.236  17.683  0.00  0.00    +0.000 C 
ATOM      2  N   UNL     1       2.388   3.255  17.332  0.00  0.00    +0.000 NA
ATOM      3  N   UNL     1       1.361   3.187  18.261  0.00  0.00    +0.000 N 
ATOM      4  C   UNL     1       1.449   4.092  19.290  0.00  0.00    +0.000 C 
ATOM      5  O   UNL     1       0.796   4.225  20.306  0.00  0.00    +0.000 OA
ATOM      6  C   UNL     1       2.622   4.924  18.880  0.00  0.00    +0.000 C 
ATOM      7  N   UNL     1       3.048   6.048  19.363  0.00  0.00    +0.000 NA
ATOM      8  H   UNL     1       0.678   2.439  18.217  0.00  0.00    +0.000 HD
ENDROOT
BRANCH   1  13
ATOM      9  C   UNL     1       6.143   6.216  16.555  0.00  0.00    +0.000 A 
ATOM     10  C   UNL     1       6.764   5.298  15.703  0.00  0.00    +0.000 A 
ATOM     11  C   UNL     1       6.225   4.025  15.505  0.00  0.00    +0.000 A 
ATOM     12  C   UNL     1       5.063   3.657  16.175  0.00  0.00    +0.000 A 
ATOM     13  C   UNL     1       4.443   4.566  17.034  0.00  0.00    +0.000 A 
ATOM     14  C   UNL     1       4.975   5.848  17.219  0.00  0.00    +0.000 A 
BRANCH   9  16
ATOM     15  C   UNL     1       7.704   7.615  17.676  0.00  0.00    +0.000 C 
ATOM     16  O   UNL     1       6.751   7.439  16.634  0.00  0.00    +0.000 OA
ENDBRANCH   9  16
ENDBRANCH   1  13
BRANCH   7  17
ATOM     17  N   UNL     1       2.370   6.534  20.427  0.00  0.00    +0.000 N 
ATOM     18  H   UNL     1       2.454   6.116  21.359  0.00  0.00    +0.000 HD
BRANCH  17  19
ATOM     19  C   UNL     1       1.712   7.770  20.343  0.00  0.00    +0.000 A 
ATOM     20  C   UNL     1       1.769   8.489  19.141  0.00  0.00    +0.000 A 
ATOM     21  C   UNL     1       1.158   9.740  19.018  0.00  0.00    +0.000 A 
ATOM     22  C   UNL     1       0.497  10.297  20.109  0.00  0.00    +0.000 A 
ATOM     23  C   UNL     1       0.444   9.598  21.313  0.00  0.00    +0.000 A 
ATOM     24 CL   UNL     1      -0.363  10.293  22.665  0.00  0.00    +0.000 Cl
ATOM     25  C   UNL     1       1.042   8.343  21.432  0.00  0.00    +0.000 A 
ENDBRANCH  17  19
ENDBRANCH   7  17
TORSDOF 4
ENDMDL
MODEL 7
REMARK VINA RESULT:      -8.0      3.013      7.083
REMARK  Name = 
REMARK  5 active torsions:
REMARK  status: ('A' for Active; 'I' for Inactive)
REMARK    1  A    between atoms: C_1  and  O_2
REMARK    2  A    between atoms: O_2  and  C_3
REMARK    3  A    between atoms: C_7  and  C_8
REMARK    4  A    between atoms: N_14  and  N_15
REMARK    5  A    between atoms: N_15  and  C_16
REMARK                            x       y       z     vdW  Elec       q    Type
REMARK                         _______ _______ _______ _____ _____    ______ ____
ROOT
ATOM      1  C   UNL     1       3.569   5.525  17.668  0.00  0.00    +0.000 C 
ATOM      2  N   UNL     1       3.205   6.766  17.862  0.00  0.00    +0.000 NA
ATOM      3  N   UNL     1       4.251   7.581  17.457  0.00  0.00    +0.000 N 
ATOM      4  C   UNL     1       5.368   6.915  17.016  0.00  0.00    +0.000 C 
ATOM      5  O   UNL     1       6.473   7.312  16.704  0.00  0.00    +0.000 OA
ATOM      6  C   UNL     1       4.912   5.491  17.026  0.00  0.00    +0.000 C 
ATOM      7  N   UNL     1       5.475   4.439  16.523  0.00  0.00    +0.000 NA
ATOM      8  H   UNL     1       4.204   8.584  17.599  0.00  0.00    +0.000 HD
ENDROOT
BRANCH   1  13
ATOM      9  C   UNL     1       1.493   3.235  19.772  0.00  0.00    +0.000 A 
ATOM     10  C   UNL     1       1.450   2.098  18.960  0.00  0.00    +0.000 A 
ATOM     11  C   UNL     1       2.086   2.080  17.717  0.00  0.00    +0.000 A 
ATOM     12  C   UNL     1       2.760   3.211  17.272  0.00  0.00    +0.000 A 
ATOM     13  C   UNL     1       2.800   4.354  18.073  0.00  0.00    +0.000 A 
ATOM     14  C   UNL     1       2.175   4.365  19.327  0.00  0.00    +0.000 A 
BRANCH   9  16
ATOM     15  C   UNL     1       1.631   2.581  22.053  0.00  0.00    +0.000 C 
ATOM     16  O   UNL     1       0.862   3.112  20.979  0.00  0.00    +0.000 OA
ENDBRANCH   9  16
ENDBRANCH   1  13
BRANCH   7  17
ATOM     17  N   UNL     1       6.677   4.630  15.935  0.00  0.00    +0.000 N 
ATOM     18  H   UNL     1       7.539   4.714  16.483  0.00  0.00    +0.000 HD
BRANCH  17  19
ATOM     19  C   UNL     1       6.818   4.486  14.547  0.00  0.00    +0.000 A 
ATOM     20  C   UNL     1       7.711   5.323  13.865  0.00  0.00    +0.000 A 
ATOM     21  C   UNL     1       7.861   5.242  12.478  0.00  0.00    +0.000 A 
ATOM     22  C   UNL     1       7.102   4.330  11.752  0.00  0.00    +0.000 A 
ATOM     23  C   UNL     1       6.202   3.499  12.417  0.00  0.00    +0.000 A 
ATOM     24 CL   UNL     1       5.253   2.380  11.517  0.00  0.00    +0.000 Cl
ATOM     25  C   UNL     1       6.061   3.571  13.803  0.00  0.00    +0.000 A 
ENDBRANCH  17  19
ENDBRANCH   7  17
TORSDOF 4
ENDMDL
MODEL 8
REMARK VINA RESULT:      -7.9      3.714      4.989
REMARK  Name = 
REMARK  5 active torsions:
REMARK  status: ('A' for Active; 'I' for Inactive)
REMARK    1  A    between atoms: C_1  and  O_2
REMARK    2  A    between atoms: O_2  and  C_3
REMARK    3  A    between atoms: C_7  and  C_8
REMARK    4  A    between atoms: N_14  and  N_15
REMARK    5  A    between atoms: N_15  and  C_16
REMARK                            x       y       z     vdW  Elec       q    Type
REMARK                         _______ _______ _______ _____ _____    ______ ____
ROOT
ATOM      1  C   UNL     1       4.405   4.150  19.184  0.00  0.00    +0.000 C 
ATOM      2  N   UNL     1       4.304   2.851  19.299  0.00  0.00    +0.000 NA
ATOM      3  N   UNL     1       3.249   2.584  20.157  0.00  0.00    +0.000 N 
ATOM      4  C   UNL     1       2.632   3.694  20.681  0.00  0.00    +0.000 C 
ATOM      5  O   UNL     1       1.772   3.814  21.529  0.00  0.00    +0.000 OA
ATOM      6  C   UNL     1       3.312   4.807  19.950  0.00  0.00    +0.000 C 
ATOM      7  N   UNL     1       3.006   6.064  19.888  0.00  0.00    +0.000 NA
ATOM      8  H   UNL     1       3.051   1.632  20.445  0.00  0.00    +0.000 HD
ENDROOT
BRANCH   1  13
ATOM      9  C   UNL     1       6.514   5.372  16.349  0.00  0.00    +0.000 A 
ATOM     10  C   UNL     1       7.538   6.023  17.042  0.00  0.00    +0.000 A 
ATOM     11  C   UNL     1       7.536   6.077  18.438  0.00  0.00    +0.000 A 
ATOM     12  C   UNL     1       6.495   5.490  19.149  0.00  0.00    +0.000 A 
ATOM     13  C   UNL     1       5.465   4.846  18.461  0.00  0.00    +0.000 A 
ATOM     14  C   UNL     1       5.476   4.778  17.062  0.00  0.00    +0.000 A 
BRANCH   9  16
ATOM     15  C   UNL     1       5.909   4.374  14.278  0.00  0.00    +0.000 C 
ATOM     16  O   UNL     1       6.652   5.359  14.988  0.00  0.00    +0.000 OA
ENDBRANCH   9  16
ENDBRANCH   1  13
BRANCH   7  17
ATOM     17  N   UNL     1       1.941   6.455  20.624  0.00  0.00    +0.000 N 
ATOM     18  H   UNL     1       1.579   5.886  21.396  0.00  0.00    +0.000 HD
BRANCH  17  19
ATOM     19  C   UNL     1       1.440   7.760  20.508  0.00  0.00    +0.000 A 
ATOM     20  C   UNL     1       1.656   8.467  19.317  0.00  0.00    +0.000 A 
ATOM     21  C   UNL     1       1.208   9.782  19.166  0.00  0.00    +0.000 A 
ATOM     22  C   UNL     1       0.551  10.414  20.217  0.00  0.00    +0.000 A 
ATOM     23  C   UNL     1       0.340   9.726  21.410  0.00  0.00    +0.000 A 
ATOM     24 CL   UNL     1      -0.461  10.513  22.715  0.00  0.00    +0.000 Cl
ATOM     25  C   UNL     1       0.776   8.410  21.557  0.00  0.00    +0.000 A 
ENDBRANCH  17  19
ENDBRANCH   7  17
TORSDOF 4
ENDMDL
MODEL 9
REMARK VINA RESULT:      -7.9      5.499      9.062
REMARK  Name = 
REMARK  5 active torsions:
REMARK  status: ('A' for Active; 'I' for Inactive)
REMARK    1  A    between atoms: C_1  and  O_2
REMARK    2  A    between atoms: O_2  and  C_3
REMARK    3  A    between atoms: C_7  and  C_8
REMARK    4  A    between atoms: N_14  and  N_15
REMARK    5  A    between atoms: N_15  and  C_16
REMARK                            x       y       z     vdW  Elec       q    Type
REMARK                         _______ _______ _______ _____ _____    ______ ____
ROOT
ATOM      1  C   UNL     1       0.943   9.444  19.578  0.00  0.00    +0.000 C 
ATOM      2  N   UNL     1       0.868  10.120  18.461  0.00  0.00    +0.000 NA
ATOM      3  N   UNL     1       1.752   9.547  17.560  0.00  0.00    +0.000 N 
ATOM      4  C   UNL     1       2.482   8.493  18.054  0.00  0.00    +0.000 C 
ATOM      5  O   UNL     1       3.400   7.856  17.581  0.00  0.00    +0.000 OA
ATOM      6  C   UNL     1       1.879   8.299  19.409  0.00  0.00    +0.000 C 
ATOM      7  N   UNL     1       2.031   7.326  20.250  0.00  0.00    +0.000 NA
ATOM      8  H   UNL     1       1.907   9.972  16.653  0.00  0.00    +0.000 HD
ENDROOT
BRANCH   1  13
ATOM      9  C   UNL     1      -1.215  11.306  21.998  0.00  0.00    +0.000 A 
ATOM     10  C   UNL     1      -0.956  10.603  23.178  0.00  0.00    +0.000 A 
ATOM     11  C   UNL     1      -0.086   9.510  23.185  0.00  0.00    +0.000 A 
ATOM     12  C   UNL     1       0.519   9.104  22.001  0.00  0.00    +0.000 A 
ATOM     13  C   UNL     1       0.257   9.796  20.817  0.00  0.00    +0.000 A 
ATOM     14  C   UNL     1      -0.602  10.902  20.814  0.00  0.00    +0.000 A 
BRANCH   9  16
ATOM     15  C   UNL     1      -2.992  12.326  23.203  0.00  0.00    +0.000 C 
ATOM     16  O   UNL     1      -2.055  12.377  22.133  0.00  0.00    +0.000 OA
ENDBRANCH   9  16
ENDBRANCH   1  13
BRANCH   7  17
ATOM     17  N   UNL     1       2.895   6.352  19.885  0.00  0.00    +0.000 N 
ATOM     18  H   UNL     1       3.904   6.521  19.820  0.00  0.00    +0.000 HD
BRANCH  17  19
ATOM     19  C   UNL     1       2.467   5.018  19.808  0.00  0.00    +0.000 A 
ATOM     20  C   UNL     1       1.352   4.619  20.556  0.00  0.00    +0.000 A 
ATOM     21  C   UNL     1       0.908   3.294  20.541  0.00  0.00    +0.000 A 
ATOM     22  C   UNL     1       1.591   2.345  19.787  0.00  0.00    +0.000 A 
ATOM     23  C   UNL     1       2.709   2.727  19.048  0.00  0.00    +0.000 A 
ATOM     24 CL   UNL     1       3.562   1.549  18.126  0.00  0.00    +0.000 Cl
ATOM     25  C   UNL     1       3.144   4.052  19.053  0.00  0.00    +0.000 A 
ENDBRANCH  17  19
ENDBRANCH   7  17
TORSDOF 4
ENDMDL
