MODEL 1
REMARK VINA RESULT:      -6.7      0.000      0.000
REMARK  Name = 
REMARK  8 active torsions:
REMARK  status: ('A' for Active; 'I' for Inactive)
REMARK    1  A    between atoms: C_1  and  C_2
REMARK    2  A    between atoms: C_2  and  O_3
REMARK    3  A    between atoms: O_3  and  C_4
REMARK    4  A    between atoms: C_13  and  C_14
REMARK    5  A    between atoms: N_16  and  CA_17
REMARK    6  A    between atoms: CA_21  and  C_22
REMARK    7  A    between atoms: C_25  and  C_26
REMARK    8  A    between atoms: C_25  and  C_27
REMARK                            x       y       z     vdW  Elec       q    Type
REMARK                         _______ _______ _______ _____ _____    ______ ____
ROOT
ATOM      1  C   UNL     1       0.671  10.288  19.187  0.00  0.00    +0.000 C 
ATOM      2  O   UNL     1       1.550  10.891  18.581  0.00  0.00    +0.000 OA
ATOM      3  N   UNL     1       0.944   9.060  19.736  0.00  0.00    +0.000 N 
ATOM      4  H   UNL     1       0.166   8.553  20.150  0.00  0.00    +0.000 HD
ENDROOT
BRANCH   1  14
ATOM      5  C   UNL     1      -1.071  11.525  20.600  0.00  0.00    +0.000 A 
ATOM      6  C   UNL     1      -2.284  12.212  20.684  0.00  0.00    +0.000 A 
ATOM      7  C   UNL     1      -3.199  12.161  19.641  0.00  0.00    +0.000 A 
ATOM      8  C   UNL     1      -2.934  11.420  18.487  0.00  0.00    +0.000 A 
ATOM      9  C   UNL     1      -3.923  11.355  17.492  0.00  0.00    +0.000 A 
ATOM     10  C   UNL     1      -3.724  10.622  16.330  0.00  0.00    +0.000 A 
ATOM     11  C   UNL     1      -2.532   9.940  16.159  0.00  0.00    +0.000 A 
ATOM     12  C   UNL     1      -1.537   9.999  17.142  0.00  0.00    +0.000 A 
ATOM     13  C   UNL     1      -1.690  10.750  18.338  0.00  0.00    +0.000 A 
ATOM     14  C   UNL     1      -0.722  10.853  19.397  0.00  0.00    +0.000 A 
BRANCH   5  15
ATOM     15  O   UNL     1      -0.200  11.500  21.668  0.00  0.00    +0.000 OA
BRANCH  15  17
ATOM     16  C   UNL     1      -0.342   9.453  23.067  0.00  0.00    +0.000 C 
ATOM     17  C   UNL     1      -0.673  10.931  22.904  0.00  0.00    +0.000 C 
ENDBRANCH  15  17
ENDBRANCH   5  15
ENDBRANCH   1  14
BRANCH   3  18
ATOM     18  CA  UNL     1       2.235   8.332  19.539  0.00  0.00    +0.000 C 
ATOM     19  C   UNL     1       2.226   7.553  18.209  0.00  0.00    +0.000 C 
ATOM     20  O   UNL     1       1.577   7.692  17.188  0.00  0.00    +0.000 OA
ATOM     21  N   UNL     1       2.748   6.437  18.796  0.00  0.00    +0.000 N 
ATOM     22  CA  UNL     1       2.206   5.109  18.439  0.00  0.00    +0.000 C 
ATOM     23  C   UNL     1       1.734   4.430  19.731  0.00  0.00    +0.000 C 
ATOM     24  C   UNL     1       0.582   3.444  19.511  0.00  0.00    +0.000 C 
ATOM     25  C   UNL     1       2.853   3.753  20.531  0.00  0.00    +0.000 C 
ATOM     26  S   UNL     1       1.058   5.888  20.690  0.00  0.00    +0.000 S 
ATOM     27  C   UNL     1       2.489   6.935  20.166  0.00  0.00    +0.000 C 
BRANCH  22  28
ATOM     28  C   UNL     1       3.075   4.194  17.560  0.00  0.00    +0.000 C 
ATOM     29  O   UNL     1       2.474   3.279  16.942  0.00  0.00    +0.000 OA
ATOM     30  OXT UNL     1       4.302   4.503  17.593  0.00  0.00    +0.000 OA
ENDBRANCH  22  28
ENDBRANCH   3  18
TORSDOF 5
ENDMDL
MODEL 2
REMARK VINA RESULT:      -6.5      5.096      8.838
REMARK  Name = 
REMARK  8 active torsions:
REMARK  status: ('A' for Active; 'I' for Inactive)
REMARK    1  A    between atoms: C_1  and  C_2
REMARK    2  A    between atoms: C_2  and  O_3
REMARK    3  A    between atoms: O_3  and  C_4
REMARK    4  A    between atoms: C_13  and  C_14
REMARK    5  A    between atoms: N_16  and  CA_17
REMARK    6  A    between atoms: CA_21  and  C_22
REMARK    7  A    between atoms: C_25  and  C_26
REMARK    8  A    between atoms: C_25  and  C_27
REMARK                            x       y       z     vdW  Elec       q    Type
REMARK                         _______ _______ _______ _____ _____    ______ ____
ROOT
ATOM      1  C   UNL     1      -0.887  13.196  21.583  0.00  0.00    +0.000 C 
ATOM      2  O   UNL     1      -0.492  13.657  22.648  0.00  0.00    +0.000 OA
ATOM      3  N   UNL     1      -2.189  13.394  21.197  0.00  0.00    +0.000 N 
ATOM      4  H   UNL     1      -2.500  12.919  20.353  0.00  0.00    +0.000 HD
ENDROOT
BRANCH   1  14
ATOM      5  C   UNL     1      -0.096  11.023  20.479  0.00  0.00    +0.000 A 
ATOM      6  C   UNL     1       0.598  10.378  19.453  0.00  0.00    +0.000 A 
ATOM      7  C   UNL     1       1.479  11.084  18.643  0.00  0.00    +0.000 A 
ATOM      8  C   UNL     1       1.695  12.450  18.836  0.00  0.00    +0.000 A 
ATOM      9  C   UNL     1       2.643  13.098  18.027  0.00  0.00    +0.000 A 
ATOM     10  C   UNL     1       2.914  14.451  18.181  0.00  0.00    +0.000 A 
ATOM     11  C   UNL     1       2.240  15.166  19.157  0.00  0.00    +0.000 A 
ATOM     12  C   UNL     1       1.291  14.533  19.967  0.00  0.00    +0.000 A 
ATOM     13  C   UNL     1       0.969  13.156  19.833  0.00  0.00    +0.000 A 
ATOM     14  C   UNL     1       0.016  12.432  20.631  0.00  0.00    +0.000 A 
BRANCH   5  15
ATOM     15  O   UNL     1      -0.902  10.311  21.340  0.00  0.00    +0.000 OA
BRANCH  15  17
ATOM     16  C   UNL     1       0.074   9.453  23.457  0.00  0.00    +0.000 C 
ATOM     17  C   UNL     1      -0.323   9.175  22.013  0.00  0.00    +0.000 C 
ENDBRANCH  15  17
ENDBRANCH   5  15
ENDBRANCH   1  14
BRANCH   3  18
ATOM     18  CA  UNL     1      -3.221  14.044  22.062  0.00  0.00    +0.000 C 
ATOM     19  C   UNL     1      -3.857  13.018  23.021  0.00  0.00    +0.000 C 
ATOM     20  O   UNL     1      -3.465  11.944  23.441  0.00  0.00    +0.000 OA
ATOM     21  N   UNL     1      -5.116  13.474  22.760  0.00  0.00    +0.000 N 
ATOM     22  CA  UNL     1      -6.214  12.503  22.571  0.00  0.00    +0.000 C 
ATOM     23  C   UNL     1      -6.843  12.764  21.197  0.00  0.00    +0.000 C 
ATOM     24  C   UNL     1      -7.460  11.513  20.564  0.00  0.00    +0.000 C 
ATOM     25  C   UNL     1      -7.861  13.912  21.179  0.00  0.00    +0.000 C 
ATOM     26  S   UNL     1      -5.341  13.231  20.184  0.00  0.00    +0.000 S 
ATOM     27  C   UNL     1      -4.681  14.251  21.578  0.00  0.00    +0.000 C 
BRANCH  22  28
ATOM     28  C   UNL     1      -7.255  12.371  23.695  0.00  0.00    +0.000 C 
ATOM     29  O   UNL     1      -7.782  11.239  23.839  0.00  0.00    +0.000 OA
ATOM     30  OXT UNL     1      -7.438  13.454  24.324  0.00  0.00    +0.000 OA
ENDBRANCH  22  28
ENDBRANCH   3  18
TORSDOF 5
ENDMDL
MODEL 3
REMARK VINA RESULT:      -6.3      4.191      8.381
REMARK  Name = 
REMARK  8 active torsions:
REMARK  status: ('A' for Active; 'I' for Inactive)
REMARK    1  A    between atoms: C_1  and  C_2
REMARK    2  A    between atoms: C_2  and  O_3
REMARK    3  A    between atoms: O_3  and  C_4
REMARK    4  A    between atoms: C_13  and  C_14
REMARK    5  A    between atoms: N_16  and  CA_17
REMARK    6  A    between atoms: CA_21  and  C_22
REMARK    7  A    between atoms: C_25  and  C_26
REMARK    8  A    between atoms: C_25  and  C_27
REMARK                            x       y       z     vdW  Elec       q    Type
REMARK                         _______ _______ _______ _____ _____    ______ ____
ROOT
ATOM      1  C   UNL     1       0.564  11.251  19.159  0.00  0.00    +0.000 C 
ATOM      2  O   UNL     1      -0.421  11.299  18.431  0.00  0.00    +0.000 OA
ATOM      3  N   UNL     1       1.369  12.355  19.290  0.00  0.00    +0.000 N 
ATOM      4  H   UNL     1       2.223  12.246  19.829  0.00  0.00    +0.000 HD
ENDROOT
BRANCH   1  14
ATOM      5  C   UNL     1       0.572   9.906  21.341  0.00  0.00    +0.000 A 
ATOM      6  C   UNL     1       0.735   8.687  22.002  0.00  0.00    +0.000 A 
ATOM      7  C   UNL     1       1.340   7.612  21.363  0.00  0.00    +0.000 A 
ATOM      8  C   UNL     1       1.804   7.724  20.050  0.00  0.00    +0.000 A 
ATOM      9  C   UNL     1       2.462   6.623  19.478  0.00  0.00    +0.000 A 
ATOM     10  C   UNL     1       2.959   6.679  18.183  0.00  0.00    +0.000 A 
ATOM     11  C   UNL     1       2.805   7.844  17.451  0.00  0.00    +0.000 A 
ATOM     12  C   UNL     1       2.147   8.946  18.009  0.00  0.00    +0.000 A 
ATOM     13  C   UNL     1       1.608   8.929  19.323  0.00  0.00    +0.000 A 
ATOM     14  C   UNL     1       0.930  10.020  19.969  0.00  0.00    +0.000 A 
BRANCH   5  15
ATOM     15  O   UNL     1       0.053  11.000  21.998  0.00  0.00    +0.000 OA
BRANCH  15  17
ATOM     16  C   UNL     1      -2.041  11.814  23.058  0.00  0.00    +0.000 C 
ATOM     17  C   UNL     1      -0.942  10.760  23.013  0.00  0.00    +0.000 C 
ENDBRANCH  15  17
ENDBRANCH   5  15
ENDBRANCH   1  14
BRANCH   3  18
ATOM     18  CA  UNL     1       1.194  13.607  18.492  0.00  0.00    +0.000 C 
ATOM     19  C   UNL     1       2.229  14.671  18.908  0.00  0.00    +0.000 C 
ATOM     20  O   UNL     1       3.314  14.582  19.455  0.00  0.00    +0.000 OA
ATOM     21  N   UNL     1       1.285  15.655  18.943  0.00  0.00    +0.000 N 
ATOM     22  CA  UNL     1       1.297  16.633  20.051  0.00  0.00    +0.000 C 
ATOM     23  C   UNL     1      -0.073  16.583  20.739  0.00  0.00    +0.000 C 
ATOM     24  C   UNL     1      -0.020  16.957  22.224  0.00  0.00    +0.000 C 
ATOM     25  C   UNL     1      -1.160  17.403  20.034  0.00  0.00    +0.000 C 
ATOM     26  S   UNL     1      -0.478  14.760  20.627  0.00  0.00    +0.000 S 
ATOM     27  C   UNL     1       0.160  14.693  18.893  0.00  0.00    +0.000 C 
BRANCH  22  28
ATOM     28  C   UNL     1       1.763  18.064  19.738  0.00  0.00    +0.000 C 
ATOM     29  O   UNL     1       1.545  18.480  18.572  0.00  0.00    +0.000 OA
ATOM     30  OXT UNL     1       2.316  18.627  20.727  0.00  0.00    +0.000 OA
ENDBRANCH  22  28
ENDBRANCH   3  18
TORSDOF 5
ENDMDL
MODEL 4
REMARK VINA RESULT:      -6.2      5.073      7.569
REMARK  Name = 
REMARK  8 active torsions:
REMARK  status: ('A' for Active; 'I' for Inactive)
REMARK    1  A    between atoms: C_1  and  C_2
REMARK    2  A    between atoms: C_2  and  O_3
REMARK    3  A    between atoms: O_3  and  C_4
REMARK    4  A    between atoms: C_13  and  C_14
REMARK    5  A    between atoms: N_16  and  CA_17
REMARK    6  A    between atoms: CA_21  and  C_22
REMARK    7  A    between atoms: C_25  and  C_26
REMARK    8  A    between atoms: C_25  and  C_27
REMARK                            x       y       z     vdW  Elec       q    Type
REMARK                         _______ _______ _______ _____ _____    ______ ____
ROOT
ATOM      1  C   UNL     1      -1.258  11.401  18.892  0.00  0.00    +0.000 C 
ATOM      2  O   UNL     1      -0.855  10.266  19.115  0.00  0.00    +0.000 OA
ATOM      3  N   UNL     1      -0.365  12.443  18.844  0.00  0.00    +0.000 N 
ATOM      4  H   UNL     1      -0.749  13.379  18.748  0.00  0.00    +0.000 HD
ENDROOT
BRANCH   1  14
ATOM      5  C   UNL     1      -3.304  11.483  17.352  0.00  0.00    +0.000 A 
ATOM      6  C   UNL     1      -4.687  11.588  17.195  0.00  0.00    +0.000 A 
ATOM      7  C   UNL     1      -5.487  12.023  18.243  0.00  0.00    +0.000 A 
ATOM      8  C   UNL     1      -4.931  12.369  19.476  0.00  0.00    +0.000 A 
ATOM      9  C   UNL     1      -5.782  12.860  20.480  0.00  0.00    +0.000 A 
ATOM     10  C   UNL     1      -5.286  13.236  21.721  0.00  0.00    +0.000 A 
ATOM     11  C   UNL     1      -3.927  13.128  21.965  0.00  0.00    +0.000 A 
ATOM     12  C   UNL     1      -3.069  12.637  20.974  0.00  0.00    +0.000 A 
ATOM     13  C   UNL     1      -3.534  12.225  19.696  0.00  0.00    +0.000 A 
ATOM     14  C   UNL     1      -2.718  11.720  18.626  0.00  0.00    +0.000 A 
BRANCH   5  15
ATOM     15  O   UNL     1      -2.498  11.138  16.289  0.00  0.00    +0.000 OA
BRANCH  15  17
ATOM     16  C   UNL     1      -3.088   9.995  14.164  0.00  0.00    +0.000 C 
ATOM     17  C   UNL     1      -2.748   9.873  15.644  0.00  0.00    +0.000 C 
ENDBRANCH  15  17
ENDBRANCH   5  15
ENDBRANCH   1  14
BRANCH   3  18
ATOM     18  CA  UNL     1       1.087  12.306  19.174  0.00  0.00    +0.000 C 
ATOM     19  C   UNL     1       1.333  12.552  20.676  0.00  0.00    +0.000 C 
ATOM     20  O   UNL     1       0.598  12.480  21.644  0.00  0.00    +0.000 OA
ATOM     21  N   UNL     1       2.409  13.352  20.423  0.00  0.00    +0.000 N 
ATOM     22  CA  UNL     1       2.584  14.598  21.198  0.00  0.00    +0.000 C 
ATOM     23  C   UNL     1       2.665  15.764  20.205  0.00  0.00    +0.000 C 
ATOM     24  C   UNL     1       2.159  17.089  20.783  0.00  0.00    +0.000 C 
ATOM     25  C   UNL     1       4.051  15.963  19.581  0.00  0.00    +0.000 C 
ATOM     26  S   UNL     1       1.449  15.217  18.892  0.00  0.00    +0.000 S 
ATOM     27  C   UNL     1       2.082  13.482  18.985  0.00  0.00    +0.000 C 
BRANCH  22  28
ATOM     28  C   UNL     1       3.697  14.633  22.258  0.00  0.00    +0.000 C 
ATOM     29  O   UNL     1       3.646  15.572  23.092  0.00  0.00    +0.000 OA
ATOM     30  OXT UNL     1       4.527  13.686  22.129  0.00  0.00    +0.000 OA
ENDBRANCH  22  28
ENDBRANCH   3  18
TORSDOF 5
ENDMDL
MODEL 5
REMARK VINA RESULT:      -6.2      7.651      8.745
REMARK  Name = 
REMARK  8 active torsions:
REMARK  status: ('A' for Active; 'I' for Inactive)
REMARK    1  A    between atoms: C_1  and  C_2
REMARK    2  A    between atoms: C_2  and  O_3
REMARK    3  A    between atoms: O_3  and  C_4
REMARK    4  A    between atoms: C_13  and  C_14
REMARK    5  A    between atoms: N_16  and  CA_17
REMARK    6  A    between atoms: CA_21  and  C_22
REMARK    7  A    between atoms: C_25  and  C_26
REMARK    8  A    between atoms: C_25  and  C_27
REMARK                            x       y       z     vdW  Elec       q    Type
REMARK                         _______ _______ _______ _____ _____    ______ ____
ROOT
ATOM      1  C   UNL     1       4.674  16.171  18.551  0.00  0.00    +0.000 C 
ATOM      2  O   UNL     1       5.159  17.296  18.583  0.00  0.00    +0.000 OA
ATOM      3  N   UNL     1       5.474  15.094  18.260  0.00  0.00    +0.000 N 
ATOM      4  H   UNL     1       5.018  14.192  18.153  0.00  0.00    +0.000 HD
ENDROOT
BRANCH   1  14
ATOM      5  C   UNL     1       2.834  14.948  19.847  0.00  0.00    +0.000 A 
ATOM      6  C   UNL     1       1.499  14.864  20.251  0.00  0.00    +0.000 A 
ATOM      7  C   UNL     1       0.521  15.623  19.622  0.00  0.00    +0.000 A 
ATOM      8  C   UNL     1       0.844  16.483  18.570  0.00  0.00    +0.000 A 
ATOM      9  C   UNL     1      -0.196  17.180  17.932  0.00  0.00    +0.000 A 
ATOM     10  C   UNL     1       0.060  18.037  16.870  0.00  0.00    +0.000 A 
ATOM     11  C   UNL     1       1.365  18.198  16.433  0.00  0.00    +0.000 A 
ATOM     12  C   UNL     1       2.410  17.513  17.064  0.00  0.00    +0.000 A 
ATOM     13  C   UNL     1       2.197  16.639  18.164  0.00  0.00    +0.000 A 
ATOM     14  C   UNL     1       3.214  15.894  18.856  0.00  0.00    +0.000 A 
BRANCH   5  15
ATOM     15  O   UNL     1       3.792  14.132  20.407  0.00  0.00    +0.000 OA
BRANCH  15  17
ATOM     16  C   UNL     1       4.505  15.626  22.259  0.00  0.00    +0.000 C 
ATOM     17  C   UNL     1       4.023  14.248  21.825  0.00  0.00    +0.000 C 
ENDBRANCH  15  17
ENDBRANCH   5  15
ENDBRANCH   1  14
BRANCH   3  18
ATOM     18  CA  UNL     1       6.907  15.212  17.850  0.00  0.00    +0.000 C 
ATOM     19  C   UNL     1       7.477  13.837  17.449  0.00  0.00    +0.000 C 
ATOM     20  O   UNL     1       6.940  12.810  17.076  0.00  0.00    +0.000 OA
ATOM     21  N   UNL     1       8.621  14.043  18.165  0.00  0.00    +0.000 N 
ATOM     22  CA  UNL     1       9.180  12.939  18.973  0.00  0.00    +0.000 C 
ATOM     23  C   UNL     1       9.296  13.427  20.422  0.00  0.00    +0.000 C 
ATOM     24  C   UNL     1       9.178  12.300  21.453  0.00  0.00    +0.000 C 
ATOM     25  C   UNL     1      10.550  14.263  20.705  0.00  0.00    +0.000 C 
ATOM     26  S   UNL     1       7.770  14.499  20.575  0.00  0.00    +0.000 S 
ATOM     27  C   UNL     1       8.058  15.204  18.891  0.00  0.00    +0.000 C 
BRANCH  22  28
ATOM     28  C   UNL     1      10.459  12.254  18.464  0.00  0.00    +0.000 C 
ATOM     29  O   UNL     1      10.734  11.137  18.970  0.00  0.00    +0.000 OA
ATOM     30  OXT UNL     1      11.066  12.938  17.589  0.00  0.00    +0.000 OA
ENDBRANCH  22  28
ENDBRANCH   3  18
TORSDOF 5
ENDMDL
MODEL 6
REMARK VINA RESULT:      -6.2      5.188      9.025
REMARK  Name = 
REMARK  8 active torsions:
REMARK  status: ('A' for Active; 'I' for Inactive)
REMARK    1  A    between atoms: C_1  and  C_2
REMARK    2  A    between atoms: C_2  and  O_3
REMARK    3  A    between atoms: O_3  and  C_4
REMARK    4  A    between atoms: C_13  and  C_14
REMARK    5  A    between atoms: N_16  and  CA_17
REMARK    6  A    between atoms: CA_21  and  C_22
REMARK    7  A    between atoms: C_25  and  C_26
REMARK    8  A    between atoms: C_25  and  C_27
REMARK                            x       y       z     vdW  Elec       q    Type
REMARK                         _______ _______ _______ _____ _____    ______ ____
ROOT
ATOM      1  C   UNL     1      -1.008  13.027  21.519  0.00  0.00    +0.000 C 
ATOM      2  O   UNL     1      -0.584  13.367  22.618  0.00  0.00    +0.000 OA
ATOM      3  N   UNL     1      -2.282  13.373  21.144  0.00  0.00    +0.000 N 
ATOM      4  H   UNL     1      -2.626  12.996  20.266  0.00  0.00    +0.000 HD
ENDROOT
BRANCH   1  14
ATOM      5  C   UNL     1       0.356  12.891  19.354  0.00  0.00    +0.000 A 
ATOM      6  C   UNL     1       1.290  12.221  18.561  0.00  0.00    +0.000 A 
ATOM      7  C   UNL     1       1.634  10.904  18.835  0.00  0.00    +0.000 A 
ATOM      8  C   UNL     1       1.055  10.216  19.903  0.00  0.00    +0.000 A 
ATOM      9  C   UNL     1       1.396   8.867  20.095  0.00  0.00    +0.000 A 
ATOM     10  C   UNL     1       0.841   8.126  21.129  0.00  0.00    +0.000 A 
ATOM     11  C   UNL     1      -0.068   8.732  21.980  0.00  0.00    +0.000 A 
ATOM     12  C   UNL     1      -0.413  10.077  21.802  0.00  0.00    +0.000 A 
ATOM     13  C   UNL     1       0.141  10.877  20.768  0.00  0.00    +0.000 A 
ATOM     14  C   UNL     1      -0.168  12.258  20.515  0.00  0.00    +0.000 A 
BRANCH   5  15
ATOM     15  O   UNL     1      -0.054  14.167  19.034  0.00  0.00    +0.000 OA
BRANCH  15  17
ATOM     16  C   UNL     1       1.172  15.940  20.268  0.00  0.00    +0.000 C 
ATOM     17  C   UNL     1       0.954  15.194  18.958  0.00  0.00    +0.000 C 
ENDBRANCH  15  17
ENDBRANCH   5  15
ENDBRANCH   1  14
BRANCH   3  18
ATOM     18  CA  UNL     1      -3.259  14.048  22.053  0.00  0.00    +0.000 C 
ATOM     19  C   UNL     1      -3.932  13.025  22.990  0.00  0.00    +0.000 C 
ATOM     20  O   UNL     1      -3.592  11.917  23.365  0.00  0.00    +0.000 OA
ATOM     21  N   UNL     1      -5.169  13.558  22.771  0.00  0.00    +0.000 N 
ATOM     22  CA  UNL     1      -6.323  12.656  22.573  0.00  0.00    +0.000 C 
ATOM     23  C   UNL     1      -6.963  13.000  21.222  0.00  0.00    +0.000 C 
ATOM     24  C   UNL     1      -7.660  11.808  20.560  0.00  0.00    +0.000 C 
ATOM     25  C   UNL     1      -7.916  14.202  21.265  0.00  0.00    +0.000 C 
ATOM     26  S   UNL     1      -5.457  13.420  20.194  0.00  0.00    +0.000 S 
ATOM     27  C   UNL     1      -4.714  14.352  21.607  0.00  0.00    +0.000 C 
BRANCH  22  28
ATOM     28  C   UNL     1      -7.348  12.542  23.713  0.00  0.00    +0.000 C 
ATOM     29  O   UNL     1      -7.858  11.408  23.895  0.00  0.00    +0.000 OA
ATOM     30  OXT UNL     1      -7.536  13.639  24.315  0.00  0.00    +0.000 OA
ENDBRANCH  22  28
ENDBRANCH   3  18
TORSDOF 5
ENDMDL
MODEL 7
REMARK VINA RESULT:      -6.1      4.451      8.036
REMARK  Name = 
REMARK  8 active torsions:
REMARK  status: ('A' for Active; 'I' for Inactive)
REMARK    1  A    between atoms: C_1  and  C_2
REMARK    2  A    between atoms: C_2  and  O_3
REMARK    3  A    between atoms: O_3  and  C_4
REMARK    4  A    between atoms: C_13  and  C_14
REMARK    5  A    between atoms: N_16  and  CA_17
REMARK    6  A    between atoms: CA_21  and  C_22
REMARK    7  A    between atoms: C_25  and  C_26
REMARK    8  A    between atoms: C_25  and  C_27
REMARK                            x       y       z     vdW  Elec       q    Type
REMARK                         _______ _______ _______ _____ _____    ______ ____
ROOT
ATOM      1  C   UNL     1       0.562  11.180  19.408  0.00  0.00    +0.000 C 
ATOM      2  O   UNL     1      -0.255  11.209  18.495  0.00  0.00    +0.000 OA
ATOM      3  N   UNL     1       1.173  12.341  19.810  0.00  0.00    +0.000 N 
ATOM      4  H   UNL     1       1.909  12.261  20.507  0.00  0.00    +0.000 HD
ENDROOT
BRANCH   1  14
ATOM      5  C   UNL     1       0.563   9.736  21.525  0.00  0.00    +0.000 A 
ATOM      6  C   UNL     1       0.713   8.485  22.127  0.00  0.00    +0.000 A 
ATOM      7  C   UNL     1       1.300   7.434  21.437  0.00  0.00    +0.000 A 
ATOM      8  C   UNL     1       1.758   7.600  20.127  0.00  0.00    +0.000 A 
ATOM      9  C   UNL     1       2.399   6.518  19.500  0.00  0.00    +0.000 A 
ATOM     10  C   UNL     1       2.889   6.627  18.206  0.00  0.00    +0.000 A 
ATOM     11  C   UNL     1       2.747   7.827  17.530  0.00  0.00    +0.000 A 
ATOM     12  C   UNL     1       2.107   8.911  18.143  0.00  0.00    +0.000 A 
ATOM     13  C   UNL     1       1.575   8.840  19.458  0.00  0.00    +0.000 A 
ATOM     14  C   UNL     1       0.915   9.908  20.158  0.00  0.00    +0.000 A 
BRANCH   5  15
ATOM     15  O   UNL     1       0.062  10.805  22.235  0.00  0.00    +0.000 OA
BRANCH  15  17
ATOM     16  C   UNL     1      -2.068  11.682  23.164  0.00  0.00    +0.000 C 
ATOM     17  C   UNL     1      -1.042  10.557  23.128  0.00  0.00    +0.000 C 
ENDBRANCH  15  17
ENDBRANCH   5  15
ENDBRANCH   1  14
BRANCH   3  18
ATOM     18  CA  UNL     1       1.000  13.654  19.115  0.00  0.00    +0.000 C 
ATOM     19  C   UNL     1       2.277  14.036  18.341  0.00  0.00    +0.000 C 
ATOM     20  O   UNL     1       3.200  13.367  17.911  0.00  0.00    +0.000 OA
ATOM     21  N   UNL     1       2.237  15.319  18.802  0.00  0.00    +0.000 N 
ATOM     22  CA  UNL     1       3.490  15.973  19.237  0.00  0.00    +0.000 C 
ATOM     23  C   UNL     1       3.302  16.435  20.687  0.00  0.00    +0.000 C 
ATOM     24  C   UNL     1       4.609  16.478  21.484  0.00  0.00    +0.000 C 
ATOM     25  C   UNL     1       2.561  17.770  20.831  0.00  0.00    +0.000 C 
ATOM     26  S   UNL     1       2.256  15.049  21.385  0.00  0.00    +0.000 S 
ATOM     27  C   UNL     1       1.235  15.003  19.845  0.00  0.00    +0.000 C 
BRANCH  22  28
ATOM     28  C   UNL     1       4.081  17.064  18.329  0.00  0.00    +0.000 C 
ATOM     29  O   UNL     1       3.341  17.480  17.401  0.00  0.00    +0.000 OA
ATOM     30  OXT UNL     1       5.260  17.388  18.655  0.00  0.00    +0.000 OA
ENDBRANCH  22  28
ENDBRANCH   3  18
TORSDOF 5
ENDMDL
MODEL 8
REMARK VINA RESULT:      -6.0      5.059      7.313
REMARK  Name = 
REMARK  8 active torsions:
REMARK  status: ('A' for Active; 'I' for Inactive)
REMARK    1  A    between atoms: C_1  and  C_2
REMARK    2  A    between atoms: C_2  and  O_3
REMARK    3  A    between atoms: O_3  and  C_4
REMARK    4  A    between atoms: C_13  and  C_14
REMARK    5  A    between atoms: N_16  and  CA_17
REMARK    6  A    between atoms: CA_21  and  C_22
REMARK    7  A    between atoms: C_25  and  C_26
REMARK    8  A    between atoms: C_25  and  C_27
REMARK                            x       y       z     vdW  Elec       q    Type
REMARK                         _______ _______ _______ _____ _____    ______ ____
ROOT
ATOM      1  C   UNL     1      -0.618  11.967  20.239  0.00  0.00    +0.000 C 
ATOM      2  O   UNL     1       0.030  10.927  20.264  0.00  0.00    +0.000 OA
ATOM      3  N   UNL     1       0.006  13.164  20.490  0.00  0.00    +0.000 N 
ATOM      4  H   UNL     1      -0.583  13.991  20.550  0.00  0.00    +0.000 HD
ENDROOT
BRANCH   1  14
ATOM      5  C   UNL     1      -3.035  12.630  20.774  0.00  0.00    +0.000 A 
ATOM      6  C   UNL     1      -4.349  12.836  20.346  0.00  0.00    +0.000 A 
ATOM      7  C   UNL     1      -4.778  12.345  19.120  0.00  0.00    +0.000 A 
ATOM      8  C   UNL     1      -3.912  11.632  18.288  0.00  0.00    +0.000 A 
ATOM      9  C   UNL     1      -4.419  11.107  17.088  0.00  0.00    +0.000 A 
ATOM     10  C   UNL     1      -3.612  10.376  16.227  0.00  0.00    +0.000 A 
ATOM     11  C   UNL     1      -2.287  10.159  16.566  0.00  0.00    +0.000 A 
ATOM     12  C   UNL     1      -1.769  10.680  17.757  0.00  0.00    +0.000 A 
ATOM     13  C   UNL     1      -2.553  11.448  18.660  0.00  0.00    +0.000 A 
ATOM     14  C   UNL     1      -2.098  12.008  19.904  0.00  0.00    +0.000 A 
BRANCH   5  15
ATOM     15  O   UNL     1      -2.630  13.038  22.026  0.00  0.00    +0.000 OA
BRANCH  15  17
ATOM     16  C   UNL     1      -3.773  12.824  24.220  0.00  0.00    +0.000 C 
ATOM     17  C   UNL     1      -2.922  12.170  23.139  0.00  0.00    +0.000 C 
ENDBRANCH  15  17
ENDBRANCH   5  15
ENDBRANCH   1  14
BRANCH   3  18
ATOM     18  CA  UNL     1       1.432  13.280  20.923  0.00  0.00    +0.000 C 
ATOM     19  C   UNL     1       1.770  14.734  21.309  0.00  0.00    +0.000 C 
ATOM     20  O   UNL     1       1.071  15.668  21.657  0.00  0.00    +0.000 OA
ATOM     21  N   UNL     1       2.944  14.702  20.613  0.00  0.00    +0.000 N 
ATOM     22  CA  UNL     1       3.334  15.870  19.795  0.00  0.00    +0.000 C 
ATOM     23  C   UNL     1       3.550  15.385  18.355  0.00  0.00    +0.000 C 
ATOM     24  C   UNL     1       3.272  16.465  17.305  0.00  0.00    +0.000 C 
ATOM     25  C   UNL     1       4.926  14.756  18.104  0.00  0.00    +0.000 C 
ATOM     26  S   UNL     1       2.216  14.083  18.198  0.00  0.00    +0.000 S 
ATOM     27  C   UNL     1       2.585  13.456  19.898  0.00  0.00    +0.000 C 
BRANCH  22  28
ATOM     28  C   UNL     1       4.480  16.755  20.311  0.00  0.00    +0.000 C 
ATOM     29  O   UNL     1       4.541  17.920  19.842  0.00  0.00    +0.000 OA
ATOM     30  OXT UNL     1       5.217  16.164  21.152  0.00  0.00    +0.000 OA
ENDBRANCH  22  28
ENDBRANCH   3  18
TORSDOF 5
ENDMDL
MODEL 9
REMARK VINA RESULT:      -6.0      7.868     11.223
REMARK  Name = 
REMARK  8 active torsions:
REMARK  status: ('A' for Active; 'I' for Inactive)
REMARK    1  A    between atoms: C_1  and  C_2
REMARK    2  A    between atoms: C_2  and  O_3
REMARK    3  A    between atoms: O_3  and  C_4
REMARK    4  A    between atoms: C_13  and  C_14
REMARK    5  A    between atoms: N_16  and  CA_17
REMARK    6  A    between atoms: CA_21  and  C_22
REMARK    7  A    between atoms: C_25  and  C_26
REMARK    8  A    between atoms: C_25  and  C_27
REMARK                            x       y       z     vdW  Elec       q    Type
REMARK                         _______ _______ _______ _____ _____    ______ ____
ROOT
ATOM      1  C   UNL     1       7.141  14.905  18.586  0.00  0.00    +0.000 C 
ATOM      2  O   UNL     1       7.499  15.435  17.540  0.00  0.00    +0.000 OA
ATOM      3  N   UNL     1       5.807  14.667  18.806  0.00  0.00    +0.000 N 
ATOM      4  H   UNL     1       5.544  14.310  19.720  0.00  0.00    +0.000 HD
ENDROOT
BRANCH   1  14
ATOM      5  C   UNL     1       8.064  14.991  20.975  0.00  0.00    +0.000 A 
ATOM      6  C   UNL     1       8.832  14.414  21.989  0.00  0.00    +0.000 A 
ATOM      7  C   UNL     1       9.725  13.390  21.704  0.00  0.00    +0.000 A 
ATOM      8  C   UNL     1       9.882  12.915  20.400  0.00  0.00    +0.000 A 
ATOM      9  C   UNL     1      10.845  11.919  20.163  0.00  0.00    +0.000 A 
ATOM     10  C   UNL     1      11.059  11.418  18.886  0.00  0.00    +0.000 A 
ATOM     11  C   UNL     1      10.311  11.917  17.832  0.00  0.00    +0.000 A 
ATOM     12  C   UNL     1       9.346  12.906  18.057  0.00  0.00    +0.000 A 
ATOM     13  C   UNL     1       9.082  13.436  19.348  0.00  0.00    +0.000 A 
ATOM     14  C   UNL     1       8.117  14.456  19.658  0.00  0.00    +0.000 A 
BRANCH   5  15
ATOM     15  O   UNL     1       7.243  16.065  21.237  0.00  0.00    +0.000 OA
BRANCH  15  17
ATOM     16  C   UNL     1       8.044  18.158  20.166  0.00  0.00    +0.000 C 
ATOM     17  C   UNL     1       7.866  17.349  21.444  0.00  0.00    +0.000 C 
ENDBRANCH  15  17
ENDBRANCH   5  15
ENDBRANCH   1  14
BRANCH   3  18
ATOM     18  CA  UNL     1       4.720  15.131  17.890  0.00  0.00    +0.000 C 
ATOM     19  C   UNL     1       4.171  16.499  18.341  0.00  0.00    +0.000 C 
ATOM     20  O   UNL     1       4.651  17.384  19.026  0.00  0.00    +0.000 OA
ATOM     21  N   UNL     1       2.878  16.094  18.175  0.00  0.00    +0.000 N 
ATOM     22  CA  UNL     1       1.868  16.460  19.190  0.00  0.00    +0.000 C 
ATOM     23  C   UNL     1       1.224  15.165  19.702  0.00  0.00    +0.000 C 
ATOM     24  C   UNL     1       0.720  15.268  21.145  0.00  0.00    +0.000 C 
ATOM     25  C   UNL     1       0.112  14.616  18.800  0.00  0.00    +0.000 C 
ATOM     26  S   UNL     1       2.685  13.996  19.694  0.00  0.00    +0.000 S 
ATOM     27  C   UNL     1       3.250  14.665  18.065  0.00  0.00    +0.000 C 
BRANCH  22  28
ATOM     28  C   UNL     1       0.837  17.539  18.819  0.00  0.00    +0.000 C 
ATOM     29  O   UNL     1       0.230  18.084  19.775  0.00  0.00    +0.000 OA
ATOM     30  OXT UNL     1       0.746  17.721  17.570  0.00  0.00    +0.000 OA
ENDBRANCH  22  28
ENDBRANCH   3  18
TORSDOF 5
ENDMDL
