MODEL 1
REMARK VINA RESULT:      -7.2      0.000      0.000
REMARK  Name = 
REMARK  3 active torsions:
REMARK  status: ('A' for Active; 'I' for Inactive)
REMARK    1  A    between atoms: C_4  and  C_5
REMARK    2  A    between atoms: C_5  and  C_6
REMARK    3  A    between atoms: C_5  and  N_12
REMARK                            x       y       z     vdW  Elec       q    Type
REMARK                         _______ _______ _______ _____ _____    ______ ____
ROOT
ATOM      1  C   UNL     1       3.132   5.102  17.760  0.00  0.00    +0.000 C 
ENDROOT
BRANCH   1   5
ATOM      2  C   UNL     1       1.591   8.656  19.726  0.00  0.00    +0.000 A 
ATOM      3  C   UNL     1       1.749   7.468  20.434  0.00  0.00    +0.000 A 
ATOM      4  C   UNL     1       2.275   6.339  19.800  0.00  0.00    +0.000 A 
ATOM      5  C   UNL     1       2.657   6.386  18.446  0.00  0.00    +0.000 A 
ATOM      6  C   UNL     1       2.501   7.598  17.753  0.00  0.00    +0.000 A 
ATOM      7  C   UNL     1       1.972   8.723  18.389  0.00  0.00    +0.000 A 
ENDBRANCH   1   5
BRANCH   1   8
ATOM      8  C   UNL     1       4.659   4.992  17.701  0.00  0.00    +0.000 A 
ATOM      9  C   UNL     1       5.471   5.474  18.744  0.00  0.00    +0.000 A 
ATOM     10  C   UNL     1       6.862   5.400  18.667  0.00  0.00    +0.000 A 
ATOM     11  C   UNL     1       7.466   4.846  17.543  0.00  0.00    +0.000 A 
ATOM     12  C   UNL     1       6.679   4.363  16.498  0.00  0.00    +0.000 A 
ATOM     13  C   UNL     1       5.286   4.435  16.575  0.00  0.00    +0.000 A 
ENDBRANCH   1   8
BRANCH   1  14
ATOM     14  N   UNL     1       2.474   3.883  18.289  0.00  0.00    +0.000 N 
ATOM     15  N   UNL     1       1.196   3.574  17.932  0.00  0.00    +0.000 NA
ATOM     16  C   UNL     1       0.975   2.465  18.642  0.00  0.00    +0.000 A 
ATOM     17  C   UNL     1       2.112   2.137  19.387  0.00  0.00    +0.000 A 
ATOM     18  N   UNL     1       3.070   3.042  19.181  0.00  0.00    +0.000 NA
ENDBRANCH   1  14
TORSDOF 3
ENDMDL
MODEL 2
REMARK VINA RESULT:      -7.1      0.047      1.138
REMARK  Name = 
REMARK  3 active torsions:
REMARK  status: ('A' for Active; 'I' for Inactive)
REMARK    1  A    between atoms: C_4  and  C_5
REMARK    2  A    between atoms: C_5  and  C_6
REMARK    3  A    between atoms: C_5  and  N_12
REMARK                            x       y       z     vdW  Elec       q    Type
REMARK                         _______ _______ _______ _____ _____    ______ ____
ROOT
ATOM      1  C   UNL     1       3.124   5.141  17.769  0.00  0.00    +0.000 C 
ENDROOT
BRANCH   1   5
ATOM      2  C   UNL     1       1.564   8.664  19.775  0.00  0.00    +0.000 A 
ATOM      3  C   UNL     1       1.735   7.471  20.472  0.00  0.00    +0.000 A 
ATOM      4  C   UNL     1       2.267   6.353  19.825  0.00  0.00    +0.000 A 
ATOM      5  C   UNL     1       2.642   6.414  18.470  0.00  0.00    +0.000 A 
ATOM      6  C   UNL     1       2.472   7.632  17.788  0.00  0.00    +0.000 A 
ATOM      7  C   UNL     1       1.937   8.746  18.437  0.00  0.00    +0.000 A 
ENDBRANCH   1   5
BRANCH   1   8
ATOM      8  C   UNL     1       4.651   5.048  17.693  0.00  0.00    +0.000 A 
ATOM      9  C   UNL     1       5.298   4.479  16.581  0.00  0.00    +0.000 A 
ATOM     10  C   UNL     1       6.688   4.369  16.535  0.00  0.00    +0.000 A 
ATOM     11  C   UNL     1       7.456   4.821  17.603  0.00  0.00    +0.000 A 
ATOM     12  C   UNL     1       6.834   5.388  18.715  0.00  0.00    +0.000 A 
ATOM     13  C   UNL     1       5.442   5.501  18.761  0.00  0.00    +0.000 A 
ENDBRANCH   1   8
BRANCH   1  14
ATOM     14  N   UNL     1       2.485   3.911  18.297  0.00  0.00    +0.000 N 
ATOM     15  N   UNL     1       1.215   3.578  17.935  0.00  0.00    +0.000 NA
ATOM     16  C   UNL     1       1.011   2.466  18.646  0.00  0.00    +0.000 A 
ATOM     17  C   UNL     1       2.150   2.160  19.397  0.00  0.00    +0.000 A 
ATOM     18  N   UNL     1       3.092   3.083  19.195  0.00  0.00    +0.000 NA
ENDBRANCH   1  14
TORSDOF 3
ENDMDL
MODEL 3
REMARK VINA RESULT:      -7.1      0.191      1.151
REMARK  Name = 
REMARK  3 active torsions:
REMARK  status: ('A' for Active; 'I' for Inactive)
REMARK    1  A    between atoms: C_4  and  C_5
REMARK    2  A    between atoms: C_5  and  C_6
REMARK    3  A    between atoms: C_5  and  N_12
REMARK                            x       y       z     vdW  Elec       q    Type
REMARK                         _______ _______ _______ _____ _____    ______ ____
ROOT
ATOM      1  C   UNL     1       3.137   5.043  17.815  0.00  0.00    +0.000 C 
ENDROOT
BRANCH   1   5
ATOM      2  C   UNL     1       1.713   8.747  19.583  0.00  0.00    +0.000 A 
ATOM      3  C   UNL     1       2.050   8.691  18.233  0.00  0.00    +0.000 A 
ATOM      4  C   UNL     1       2.476   7.487  17.667  0.00  0.00    +0.000 A 
ATOM      5  C   UNL     1       2.568   6.317  18.445  0.00  0.00    +0.000 A 
ATOM      6  C   UNL     1       2.212   6.393  19.803  0.00  0.00    +0.000 A 
ATOM      7  C   UNL     1       1.789   7.599  20.366  0.00  0.00    +0.000 A 
ENDBRANCH   1   5
BRANCH   1   8
ATOM      8  C   UNL     1       4.668   4.998  17.852  0.00  0.00    +0.000 A 
ATOM      9  C   UNL     1       5.390   5.465  18.965  0.00  0.00    +0.000 A 
ATOM     10  C   UNL     1       6.785   5.451  18.976  0.00  0.00    +0.000 A 
ATOM     11  C   UNL     1       7.484   4.974  17.871  0.00  0.00    +0.000 A 
ATOM     12  C   UNL     1       6.786   4.507  16.758  0.00  0.00    +0.000 A 
ATOM     13  C   UNL     1       5.389   4.519  16.746  0.00  0.00    +0.000 A 
ENDBRANCH   1   8
BRANCH   1  14
ATOM     14  N   UNL     1       2.500   3.807  18.328  0.00  0.00    +0.000 N 
ATOM     15  N   UNL     1       1.243   3.459  17.933  0.00  0.00    +0.000 NA
ATOM     16  C   UNL     1       1.033   2.345  18.640  0.00  0.00    +0.000 A 
ATOM     17  C   UNL     1       2.156   2.053  19.421  0.00  0.00    +0.000 A 
ATOM     18  N   UNL     1       3.092   2.986  19.242  0.00  0.00    +0.000 NA
ENDBRANCH   1  14
TORSDOF 3
ENDMDL
MODEL 4
REMARK VINA RESULT:      -7.1      0.772      4.550
REMARK  Name = 
REMARK  3 active torsions:
REMARK  status: ('A' for Active; 'I' for Inactive)
REMARK    1  A    between atoms: C_4  and  C_5
REMARK    2  A    between atoms: C_5  and  C_6
REMARK    3  A    between atoms: C_5  and  N_12
REMARK                            x       y       z     vdW  Elec       q    Type
REMARK                         _______ _______ _______ _____ _____    ______ ____
ROOT
ATOM      1  C   UNL     1       3.643   5.106  19.297  0.00  0.00    +0.000 C 
ENDROOT
BRANCH   1   5
ATOM      2  C   UNL     1       7.226   4.564  16.900  0.00  0.00    +0.000 A 
ATOM      3  C   UNL     1       5.981   4.181  16.409  0.00  0.00    +0.000 A 
ATOM      4  C   UNL     1       4.831   4.388  17.175  0.00  0.00    +0.000 A 
ATOM      5  C   UNL     1       4.910   4.990  18.445  0.00  0.00    +0.000 A 
ATOM      6  C   UNL     1       6.175   5.380  18.917  0.00  0.00    +0.000 A 
ATOM      7  C   UNL     1       7.322   5.168  18.150  0.00  0.00    +0.000 A 
ENDBRANCH   1   5
BRANCH   1   8
ATOM      8  C   UNL     1       2.929   6.449  19.115  0.00  0.00    +0.000 A 
ATOM      9  C   UNL     1       3.055   7.194  17.928  0.00  0.00    +0.000 A 
ATOM     10  C   UNL     1       2.428   8.432  17.784  0.00  0.00    +0.000 A 
ATOM     11  C   UNL     1       1.667   8.949  18.827  0.00  0.00    +0.000 A 
ATOM     12  C   UNL     1       1.529   8.227  20.011  0.00  0.00    +0.000 A 
ATOM     13  C   UNL     1       2.155   6.986  20.156  0.00  0.00    +0.000 A 
ENDBRANCH   1   8
BRANCH   1  14
ATOM     14  N   UNL     1       2.742   3.937  19.159  0.00  0.00    +0.000 N 
ATOM     15  N   UNL     1       1.614   4.015  18.399  0.00  0.00    +0.000 NA
ATOM     16  C   UNL     1       1.081   2.803  18.576  0.00  0.00    +0.000 A 
ATOM     17  C   UNL     1       1.895   2.038  19.417  0.00  0.00    +0.000 A 
ATOM     18  N   UNL     1       2.950   2.755  19.807  0.00  0.00    +0.000 NA
ENDBRANCH   1  14
TORSDOF 3
ENDMDL
MODEL 5
REMARK VINA RESULT:      -7.1      0.714      4.538
REMARK  Name = 
REMARK  3 active torsions:
REMARK  status: ('A' for Active; 'I' for Inactive)
REMARK    1  A    between atoms: C_4  and  C_5
REMARK    2  A    between atoms: C_5  and  C_6
REMARK    3  A    between atoms: C_5  and  N_12
REMARK                            x       y       z     vdW  Elec       q    Type
REMARK                         _______ _______ _______ _____ _____    ______ ____
ROOT
ATOM      1  C   UNL     1       3.646   4.967  19.192  0.00  0.00    +0.000 C 
ENDROOT
BRANCH   1   5
ATOM      2  C   UNL     1       7.099   4.652  16.574  0.00  0.00    +0.000 A 
ATOM      3  C   UNL     1       7.231   5.164  17.862  0.00  0.00    +0.000 A 
ATOM      4  C   UNL     1       6.121   5.232  18.707  0.00  0.00    +0.000 A 
ATOM      5  C   UNL     1       4.858   4.781  18.275  0.00  0.00    +0.000 A 
ATOM      6  C   UNL     1       4.749   4.257  16.976  0.00  0.00    +0.000 A 
ATOM      7  C   UNL     1       5.860   4.194  16.133  0.00  0.00    +0.000 A 
ENDBRANCH   1   5
BRANCH   1   8
ATOM      8  C   UNL     1       2.978   6.335  19.020  0.00  0.00    +0.000 A 
ATOM      9  C   UNL     1       3.135   7.086  17.840  0.00  0.00    +0.000 A 
ATOM     10  C   UNL     1       2.551   8.346  17.705  0.00  0.00    +0.000 A 
ATOM     11  C   UNL     1       1.803   8.880  18.750  0.00  0.00    +0.000 A 
ATOM     12  C   UNL     1       1.637   8.152  19.928  0.00  0.00    +0.000 A 
ATOM     13  C   UNL     1       2.219   6.889  20.063  0.00  0.00    +0.000 A 
ENDBRANCH   1   8
BRANCH   1  14
ATOM     14  N   UNL     1       2.691   3.834  19.128  0.00  0.00    +0.000 N 
ATOM     15  N   UNL     1       2.983   2.647  19.729  0.00  0.00    +0.000 NA
ATOM     16  C   UNL     1       1.919   1.908  19.403  0.00  0.00    +0.000 A 
ATOM     17  C   UNL     1       1.026   2.663  18.635  0.00  0.00    +0.000 A 
ATOM     18  N   UNL     1       1.515   3.889  18.441  0.00  0.00    +0.000 NA
ENDBRANCH   1  14
TORSDOF 3
ENDMDL
MODEL 6
REMARK VINA RESULT:      -7.1      0.762      4.529
REMARK  Name = 
REMARK  3 active torsions:
REMARK  status: ('A' for Active; 'I' for Inactive)
REMARK    1  A    between atoms: C_4  and  C_5
REMARK    2  A    between atoms: C_5  and  C_6
REMARK    3  A    between atoms: C_5  and  N_12
REMARK                            x       y       z     vdW  Elec       q    Type
REMARK                         _______ _______ _______ _____ _____    ______ ____
ROOT
ATOM      1  C   UNL     1       3.626   5.174  19.311  0.00  0.00    +0.000 C 
ENDROOT
BRANCH   1   5
ATOM      2  C   UNL     1       7.175   4.567  16.881  0.00  0.00    +0.000 A 
ATOM      3  C   UNL     1       5.917   4.221  16.395  0.00  0.00    +0.000 A 
ATOM      4  C   UNL     1       4.779   4.450  17.171  0.00  0.00    +0.000 A 
ATOM      5  C   UNL     1       4.883   5.035  18.448  0.00  0.00    +0.000 A 
ATOM      6  C   UNL     1       6.161   5.386  18.915  0.00  0.00    +0.000 A 
ATOM      7  C   UNL     1       7.297   5.153  18.137  0.00  0.00    +0.000 A 
ENDBRANCH   1   5
BRANCH   1   8
ATOM      8  C   UNL     1       2.938   6.532  19.141  0.00  0.00    +0.000 A 
ATOM      9  C   UNL     1       2.142   7.085  20.160  0.00  0.00    +0.000 A 
ATOM     10  C   UNL     1       1.493   8.308  19.984  0.00  0.00    +0.000 A 
ATOM     11  C   UNL     1       1.623   8.996  18.782  0.00  0.00    +0.000 A 
ATOM     12  C   UNL     1       2.408   8.464  17.759  0.00  0.00    +0.000 A 
ATOM     13  C   UNL     1       3.060   7.241  17.935  0.00  0.00    +0.000 A 
ENDBRANCH   1   8
BRANCH   1  14
ATOM     14  N   UNL     1       2.699   4.024  19.177  0.00  0.00    +0.000 N 
ATOM     15  N   UNL     1       2.974   2.836  19.784  0.00  0.00    +0.000 NA
ATOM     16  C   UNL     1       1.948   2.081  19.384  0.00  0.00    +0.000 A 
ATOM     17  C   UNL     1       1.092   2.826  18.568  0.00  0.00    +0.000 A 
ATOM     18  N   UNL     1       1.569   4.063  18.416  0.00  0.00    +0.000 NA
ENDBRANCH   1  14
TORSDOF 3
ENDMDL
MODEL 7
REMARK VINA RESULT:      -7.0      0.167      1.614
REMARK  Name = 
REMARK  3 active torsions:
REMARK  status: ('A' for Active; 'I' for Inactive)
REMARK    1  A    between atoms: C_4  and  C_5
REMARK    2  A    between atoms: C_5  and  C_6
REMARK    3  A    between atoms: C_5  and  N_12
REMARK                            x       y       z     vdW  Elec       q    Type
REMARK                         _______ _______ _______ _____ _____    ______ ____
ROOT
ATOM      1  C   UNL     1       3.117   5.055  17.788  0.00  0.00    +0.000 C 
ENDROOT
BRANCH   1   5
ATOM      2  C   UNL     1       1.690   8.724  19.626  0.00  0.00    +0.000 A 
ATOM      3  C   UNL     1       2.018   8.691  18.274  0.00  0.00    +0.000 A 
ATOM      4  C   UNL     1       2.446   7.499  17.685  0.00  0.00    +0.000 A 
ATOM      5  C   UNL     1       2.547   6.316  18.443  0.00  0.00    +0.000 A 
ATOM      6  C   UNL     1       2.200   6.368  19.804  0.00  0.00    +0.000 A 
ATOM      7  C   UNL     1       1.775   7.563  20.389  0.00  0.00    +0.000 A 
ENDBRANCH   1   5
BRANCH   1   8
ATOM      8  C   UNL     1       4.649   5.028  17.790  0.00  0.00    +0.000 A 
ATOM      9  C   UNL     1       5.376   4.525  16.696  0.00  0.00    +0.000 A 
ATOM     10  C   UNL     1       6.770   4.473  16.721  0.00  0.00    +0.000 A 
ATOM     11  C   UNL     1       7.462   4.919  17.842  0.00  0.00    +0.000 A 
ATOM     12  C   UNL     1       6.759   5.422  18.937  0.00  0.00    +0.000 A 
ATOM     13  C   UNL     1       5.363   5.476  18.913  0.00  0.00    +0.000 A 
ENDBRANCH   1   8
BRANCH   1  14
ATOM     14  N   UNL     1       2.506   3.806  18.303  0.00  0.00    +0.000 N 
ATOM     15  N   UNL     1       1.243   3.450  17.936  0.00  0.00    +0.000 NA
ATOM     16  C   UNL     1       1.063   2.326  18.635  0.00  0.00    +0.000 A 
ATOM     17  C   UNL     1       2.208   2.037  19.383  0.00  0.00    +0.000 A 
ATOM     18  N   UNL     1       3.130   2.982  19.191  0.00  0.00    +0.000 NA
ENDBRANCH   1  14
TORSDOF 3
ENDMDL
MODEL 8
REMARK VINA RESULT:      -7.0      0.785      4.347
REMARK  Name = 
REMARK  3 active torsions:
REMARK  status: ('A' for Active; 'I' for Inactive)
REMARK    1  A    between atoms: C_4  and  C_5
REMARK    2  A    between atoms: C_5  and  C_6
REMARK    3  A    between atoms: C_5  and  N_12
REMARK                            x       y       z     vdW  Elec       q    Type
REMARK                         _______ _______ _______ _____ _____    ______ ____
ROOT
ATOM      1  C   UNL     1       3.663   4.966  19.322  0.00  0.00    +0.000 C 
ENDROOT
BRANCH   1   5
ATOM      2  C   UNL     1       7.235   4.664  16.869  0.00  0.00    +0.000 A 
ATOM      3  C   UNL     1       7.304   5.187  18.158  0.00  0.00    +0.000 A 
ATOM      4  C   UNL     1       6.155   5.250  18.950  0.00  0.00    +0.000 A 
ATOM      5  C   UNL     1       4.918   4.785  18.464  0.00  0.00    +0.000 A 
ATOM      6  C   UNL     1       4.874   4.250  17.165  0.00  0.00    +0.000 A 
ATOM      7  C   UNL     1       6.023   4.191  16.375  0.00  0.00    +0.000 A 
ENDBRANCH   1   5
BRANCH   1   8
ATOM      8  C   UNL     1       3.013   6.341  19.138  0.00  0.00    +0.000 A 
ATOM      9  C   UNL     1       2.216   6.917  20.144  0.00  0.00    +0.000 A 
ATOM     10  C   UNL     1       1.601   8.155  19.955  0.00  0.00    +0.000 A 
ATOM     11  C   UNL     1       1.769   8.837  18.755  0.00  0.00    +0.000 A 
ATOM     12  C   UNL     1       2.555   8.283  17.745  0.00  0.00    +0.000 A 
ATOM     13  C   UNL     1       3.173   7.044  17.934  0.00  0.00    +0.000 A 
ENDBRANCH   1   8
BRANCH   1  14
ATOM     14  N   UNL     1       2.705   3.841  19.194  0.00  0.00    +0.000 N 
ATOM     15  N   UNL     1       1.571   3.976  18.451  0.00  0.00    +0.000 NA
ATOM     16  C   UNL     1       0.984   2.790  18.632  0.00  0.00    +0.000 A 
ATOM     17  C   UNL     1       1.773   1.984  19.457  0.00  0.00    +0.000 A 
ATOM     18  N   UNL     1       2.867   2.648  19.834  0.00  0.00    +0.000 NA
ENDBRANCH   1  14
TORSDOF 3
ENDMDL
MODEL 9
REMARK VINA RESULT:      -7.0      2.152      5.150
REMARK  Name = 
REMARK  3 active torsions:
REMARK  status: ('A' for Active; 'I' for Inactive)
REMARK    1  A    between atoms: C_4  and  C_5
REMARK    2  A    between atoms: C_5  and  C_6
REMARK    3  A    between atoms: C_5  and  N_12
REMARK                            x       y       z     vdW  Elec       q    Type
REMARK                         _______ _______ _______ _____ _____    ______ ____
ROOT
ATOM      1  C   UNL     1       2.947   6.274  17.956  0.00  0.00    +0.000 C 
ENDROOT
BRANCH   1   5
ATOM      2  C   UNL     1       7.262   5.914  18.304  0.00  0.00    +0.000 A 
ATOM      3  C   UNL     1       6.696   6.690  17.296  0.00  0.00    +0.000 A 
ATOM      4  C   UNL     1       5.308   6.825  17.212  0.00  0.00    +0.000 A 
ATOM      5  C   UNL     1       4.464   6.187  18.142  0.00  0.00    +0.000 A 
ATOM      6  C   UNL     1       5.057   5.419  19.158  0.00  0.00    +0.000 A 
ATOM      7  C   UNL     1       6.445   5.284  19.237  0.00  0.00    +0.000 A 
ENDBRANCH   1   5
BRANCH   1   8
ATOM      8  C   UNL     1       2.201   5.119  18.631  0.00  0.00    +0.000 A 
ATOM      9  C   UNL     1       1.966   5.108  20.018  0.00  0.00    +0.000 A 
ATOM     10  C   UNL     1       1.315   4.037  20.630  0.00  0.00    +0.000 A 
ATOM     11  C   UNL     1       0.892   2.954  19.866  0.00  0.00    +0.000 A 
ATOM     12  C   UNL     1       1.115   2.946  18.490  0.00  0.00    +0.000 A 
ATOM     13  C   UNL     1       1.765   4.019  17.876  0.00  0.00    +0.000 A 
ENDBRANCH   1   8
BRANCH   1  14
ATOM     14  N   UNL     1       2.396   7.608  18.293  0.00  0.00    +0.000 N 
ATOM     15  N   UNL     1       1.983   7.888  19.561  0.00  0.00    +0.000 NA
ATOM     16  C   UNL     1       1.526   9.136  19.430  0.00  0.00    +0.000 A 
ATOM     17  C   UNL     1       1.684   9.570  18.110  0.00  0.00    +0.000 A 
ATOM     18  N   UNL     1       2.224   8.599  17.372  0.00  0.00    +0.000 NA
ENDBRANCH   1  14
TORSDOF 3
ENDMDL
