MODEL 1
REMARK VINA RESULT:      -7.7      0.000      0.000
REMARK  Name = 
REMARK  12 active torsions:
REMARK  status: ('A' for Active; 'I' for Inactive)
REMARK    1  A    between atoms: C_2  and  O_3
REMARK    2  A    between atoms: C_2  and  C_4
REMARK    3  A    between atoms: C_4  and  C_5
REMARK    4  A    between atoms: C_5  and  C_6
REMARK    5  A    between atoms: C_6  and  C_7
REMARK    6  A    between atoms: N_9  and  C_10
REMARK    7  A    between atoms: N_13  and  C_14
REMARK    8  A    between atoms: C_14  and  C_15
REMARK    9  A    between atoms: C_15  and  O_16
REMARK   10  A    between atoms: C_15  and  C_17
REMARK   11  A    between atoms: C_15  and  C_23
REMARK   12  A    between atoms: C_17  and  N_18
REMARK                            x       y       z     vdW  Elec       q    Type
REMARK                         _______ _______ _______ _____ _____    ______ ____
ROOT
ATOM      1  C   UNL     1       0.322  10.952  19.486  0.00  0.00    +0.000 C 
ATOM      2  C   UNL     1       1.676  11.098  18.783  0.00  0.00    +0.000 C 
ATOM      3  C   UNL     1       2.120   9.808  18.086  0.00  0.00    +0.000 C 
ATOM      4  N   UNL     1       2.046   8.567  18.902  0.00  0.00    +0.000 NA
ATOM      5  C   UNL     1       0.867   8.517  19.769  0.00  0.00    +0.000 C 
ATOM      6  C   UNL     1       0.436   9.796  20.464  0.00  0.00    +0.000 C 
ENDROOT
BRANCH   1   9
ATOM      7  C   UNL     1      -2.247  10.180  17.109  0.00  0.00    +0.000 A 
ATOM      8  C   UNL     1      -0.904  10.194  17.409  0.00  0.00    +0.000 A 
ATOM      9  N   UNL     1      -0.835  10.846  18.609  0.00  0.00    +0.000 N 
ATOM     10  N   UNL     1      -2.050  11.291  18.971  0.00  0.00    +0.000 NA
ATOM     11  N   UNL     1      -2.926  10.879  18.068  0.00  0.00    +0.000 NA
BRANCH   7  12
ATOM     12  C   UNL     1      -2.965   9.537  15.978  0.00  0.00    +0.000 C 
BRANCH  12  13
ATOM     13  C   UNL     1      -3.241  10.487  14.807  0.00  0.00    +0.000 C 
BRANCH  13  14
ATOM     14  C   UNL     1      -4.087   9.872  13.689  0.00  0.00    +0.000 C 
BRANCH  14  16
ATOM     15  O   UNL     1      -2.121   9.354  12.369  0.00  0.00    +0.000 OA
ATOM     16  C   UNL     1      -3.296   9.668  12.413  0.00  0.00    +0.000 C 
BRANCH  16  17
ATOM     17  O   UNL     1      -4.036   9.859  11.301  0.00  0.00    +0.000 OA
ATOM     18  H   UNL     1      -3.557   9.697  10.462  0.00  0.00    +0.000 HD
ENDBRANCH  16  17
ENDBRANCH  14  16
ENDBRANCH  13  14
ENDBRANCH  12  13
ENDBRANCH   7  12
ENDBRANCH   1   9
BRANCH   4  19
ATOM     19  C   UNL     1       2.046   7.407  17.937  0.00  0.00    +0.000 C 
BRANCH  19  20
ATOM     20  C   UNL     1       2.709   6.017  18.323  0.00  0.00    +0.000 C 
BRANCH  20  21
ATOM     21  C   UNL     1       3.925   5.662  17.439  0.00  0.00    +0.000 A 
ATOM     22  C   UNL     1       4.098   4.388  16.865  0.00  0.00    +0.000 A 
ATOM     23  C   UNL     1       5.244   4.075  16.121  0.00  0.00    +0.000 A 
ATOM     24  C   UNL     1       6.235   5.028  15.952  0.00  0.00    +0.000 A 
ATOM     25  F   UNL     1       7.338   4.716  15.260  0.00  0.00    +0.000 F 
ATOM     26  C   UNL     1       6.100   6.291  16.491  0.00  0.00    +0.000 A 
ATOM     27  C   UNL     1       4.949   6.603  17.209  0.00  0.00    +0.000 A 
ATOM     28  F   UNL     1       4.859   7.845  17.706  0.00  0.00    +0.000 F 
ENDBRANCH  20  21
BRANCH  20  29
ATOM     29  O   UNL     1       3.235   6.210  19.662  0.00  0.00    +0.000 OA
ATOM     30  H   UNL     1       2.512   5.971  20.277  0.00  0.00    +0.000 HD
ENDBRANCH  20  29
BRANCH  20  31
ATOM     31  C   UNL     1       1.740   4.797  18.389  0.00  0.00    +0.000 C 
BRANCH  31  32
ATOM     32  N   UNL     1       1.726   3.972  19.575  0.00  0.00    +0.000 N 
ATOM     33  C   UNL     1       2.118   2.668  19.652  0.00  0.00    +0.000 A 
ATOM     34  N   UNL     1       2.140   2.283  20.910  0.00  0.00    +0.000 NA
ATOM     35  C   UNL     1       1.672   3.385  21.566  0.00  0.00    +0.000 A 
ATOM     36  N   UNL     1       1.430   4.445  20.796  0.00  0.00    +0.000 NA
ENDBRANCH  31  32
ENDBRANCH  20  31
ENDBRANCH  19  20
ENDBRANCH   4  19
TORSDOF 12
ENDMDL
MODEL 2
REMARK VINA RESULT:      -7.6      3.670      5.350
REMARK  Name = 
REMARK  12 active torsions:
REMARK  status: ('A' for Active; 'I' for Inactive)
REMARK    1  A    between atoms: C_2  and  O_3
REMARK    2  A    between atoms: C_2  and  C_4
REMARK    3  A    between atoms: C_4  and  C_5
REMARK    4  A    between atoms: C_5  and  C_6
REMARK    5  A    between atoms: C_6  and  C_7
REMARK    6  A    between atoms: N_9  and  C_10
REMARK    7  A    between atoms: N_13  and  C_14
REMARK    8  A    between atoms: C_14  and  C_15
REMARK    9  A    between atoms: C_15  and  O_16
REMARK   10  A    between atoms: C_15  and  C_17
REMARK   11  A    between atoms: C_15  and  C_23
REMARK   12  A    between atoms: C_17  and  N_18
REMARK                            x       y       z     vdW  Elec       q    Type
REMARK                         _______ _______ _______ _____ _____    ______ ____
ROOT
ATOM      1  C   UNL     1       0.109  10.660  19.733  0.00  0.00    +0.000 C 
ATOM      2  C   UNL     1       0.142   9.401  20.606  0.00  0.00    +0.000 C 
ATOM      3  C   UNL     1       1.324   8.484  20.273  0.00  0.00    +0.000 C 
ATOM      4  N   UNL     1       1.521   8.170  18.833  0.00  0.00    +0.000 NA
ATOM      5  C   UNL     1       1.259   9.311  17.953  0.00  0.00    +0.000 C 
ATOM      6  C   UNL     1       0.081  10.211  18.282  0.00  0.00    +0.000 C 
ENDROOT
BRANCH   1   9
ATOM      7  C   UNL     1       2.493  13.333  19.864  0.00  0.00    +0.000 A 
ATOM      8  C   UNL     1       1.808  12.421  19.095  0.00  0.00    +0.000 A 
ATOM      9  N   UNL     1       1.148  11.643  20.006  0.00  0.00    +0.000 N 
ATOM     10  N   UNL     1       1.487  11.997  21.258  0.00  0.00    +0.000 NA
ATOM     11  N   UNL     1       2.300  13.039  21.185  0.00  0.00    +0.000 NA
BRANCH   7  12
ATOM     12  C   UNL     1       3.320  14.497  19.452  0.00  0.00    +0.000 C 
BRANCH  12  13
ATOM     13  C   UNL     1       4.060  14.285  18.125  0.00  0.00    +0.000 C 
BRANCH  13  14
ATOM     14  C   UNL     1       5.186  15.290  17.871  0.00  0.00    +0.000 C 
BRANCH  14  16
ATOM     15  O   UNL     1       6.955  13.701  17.397  0.00  0.00    +0.000 OA
ATOM     16  C   UNL     1       6.559  14.667  18.023  0.00  0.00    +0.000 C 
BRANCH  16  17
ATOM     17  O   UNL     1       7.327  15.307  18.929  0.00  0.00    +0.000 OA
ATOM     18  H   UNL     1       8.240  15.495  18.627  0.00  0.00    +0.000 HD
ENDBRANCH  16  17
ENDBRANCH  14  16
ENDBRANCH  13  14
ENDBRANCH  12  13
ENDBRANCH   7  12
ENDBRANCH   1   9
BRANCH   4  19
ATOM     19  C   UNL     1       2.945   7.696  18.679  0.00  0.00    +0.000 C 
BRANCH  19  20
ATOM     20  C   UNL     1       3.288   6.149  18.579  0.00  0.00    +0.000 C 
BRANCH  20  21
ATOM     21  C   UNL     1       4.402   5.843  17.553  0.00  0.00    +0.000 A 
ATOM     22  C   UNL     1       4.666   6.678  16.450  0.00  0.00    +0.000 A 
ATOM     23  C   UNL     1       5.640   6.341  15.499  0.00  0.00    +0.000 A 
ATOM     24  C   UNL     1       6.351   5.161  15.633  0.00  0.00    +0.000 A 
ATOM     25  F   UNL     1       7.263   4.833  14.710  0.00  0.00    +0.000 F 
ATOM     26  C   UNL     1       6.129   4.319  16.704  0.00  0.00    +0.000 A 
ATOM     27  C   UNL     1       5.177   4.671  17.658  0.00  0.00    +0.000 A 
ATOM     28  F   UNL     1       5.003   3.826  18.684  0.00  0.00    +0.000 F 
ENDBRANCH  20  21
BRANCH  20  29
ATOM     29  O   UNL     1       3.838   5.800  19.876  0.00  0.00    +0.000 OA
ATOM     30  H   UNL     1       3.930   4.826  19.881  0.00  0.00    +0.000 HD
ENDBRANCH  20  29
BRANCH  20  31
ATOM     31  C   UNL     1       2.078   5.198  18.331  0.00  0.00    +0.000 C 
BRANCH  31  32
ATOM     32  N   UNL     1       1.755   4.196  19.320  0.00  0.00    +0.000 N 
ATOM     33  C   UNL     1       1.951   2.851  19.196  0.00  0.00    +0.000 A 
ATOM     34  N   UNL     1       1.710   2.258  20.345  0.00  0.00    +0.000 NA
ATOM     35  C   UNL     1       1.289   3.293  21.131  0.00  0.00    +0.000 A 
ATOM     36  N   UNL     1       1.323   4.494  20.556  0.00  0.00    +0.000 NA
ENDBRANCH  31  32
ENDBRANCH  20  31
ENDBRANCH  19  20
ENDBRANCH   4  19
TORSDOF 12
ENDMDL
MODEL 3
REMARK VINA RESULT:      -7.6      3.259      4.421
REMARK  Name = 
REMARK  12 active torsions:
REMARK  status: ('A' for Active; 'I' for Inactive)
REMARK    1  A    between atoms: C_2  and  O_3
REMARK    2  A    between atoms: C_2  and  C_4
REMARK    3  A    between atoms: C_4  and  C_5
REMARK    4  A    between atoms: C_5  and  C_6
REMARK    5  A    between atoms: C_6  and  C_7
REMARK    6  A    between atoms: N_9  and  C_10
REMARK    7  A    between atoms: N_13  and  C_14
REMARK    8  A    between atoms: C_14  and  C_15
REMARK    9  A    between atoms: C_15  and  O_16
REMARK   10  A    between atoms: C_15  and  C_17
REMARK   11  A    between atoms: C_15  and  C_23
REMARK   12  A    between atoms: C_17  and  N_18
REMARK                            x       y       z     vdW  Elec       q    Type
REMARK                         _______ _______ _______ _____ _____    ______ ____
ROOT
ATOM      1  C   UNL     1       0.139  10.404  19.640  0.00  0.00    +0.000 C 
ATOM      2  C   UNL     1       0.282   9.153  20.513  0.00  0.00    +0.000 C 
ATOM      3  C   UNL     1       1.490   8.295  20.119  0.00  0.00    +0.000 C 
ATOM      4  N   UNL     1       1.625   7.984  18.671  0.00  0.00    +0.000 NA
ATOM      5  C   UNL     1       1.258   9.106  17.804  0.00  0.00    +0.000 C 
ATOM      6  C   UNL     1       0.056   9.946  18.194  0.00  0.00    +0.000 C 
ENDROOT
BRANCH   1   9
ATOM      7  C   UNL     1       2.410  13.176  19.619  0.00  0.00    +0.000 A 
ATOM      8  C   UNL     1       1.753  12.205  18.901  0.00  0.00    +0.000 A 
ATOM      9  N   UNL     1       1.139  11.440  19.854  0.00  0.00    +0.000 N 
ATOM     10  N   UNL     1       1.482  11.860  21.084  0.00  0.00    +0.000 NA
ATOM     11  N   UNL     1       2.249  12.931  20.955  0.00  0.00    +0.000 NA
BRANCH   7  12
ATOM     12  C   UNL     1       3.182  14.355  19.144  0.00  0.00    +0.000 C 
BRANCH  12  13
ATOM     13  C   UNL     1       2.342  15.354  18.339  0.00  0.00    +0.000 C 
BRANCH  13  14
ATOM     14  C   UNL     1       1.329  16.136  19.176  0.00  0.00    +0.000 C 
BRANCH  14  16
ATOM     15  O   UNL     1      -0.641  14.728  19.304  0.00  0.00    +0.000 OA
ATOM     16  C   UNL     1      -0.101  15.732  18.877  0.00  0.00    +0.000 C 
BRANCH  16  17
ATOM     17  O   UNL     1      -0.742  16.617  18.085  0.00  0.00    +0.000 OA
ATOM     18  H   UNL     1      -1.704  16.693  18.256  0.00  0.00    +0.000 HD
ENDBRANCH  16  17
ENDBRANCH  14  16
ENDBRANCH  13  14
ENDBRANCH  12  13
ENDBRANCH   7  12
ENDBRANCH   1   9
BRANCH   4  19
ATOM     19  C   UNL     1       3.061   7.582  18.442  0.00  0.00    +0.000 C 
BRANCH  19  20
ATOM     20  C   UNL     1       3.509   6.060  18.517  0.00  0.00    +0.000 C 
BRANCH  20  21
ATOM     21  C   UNL     1       4.516   5.672  17.412  0.00  0.00    +0.000 A 
ATOM     22  C   UNL     1       4.408   4.477  16.673  0.00  0.00    +0.000 A 
ATOM     23  C   UNL     1       5.374   4.121  15.721  0.00  0.00    +0.000 A 
ATOM     24  C   UNL     1       6.464   4.948  15.505  0.00  0.00    +0.000 A 
ATOM     25  F   UNL     1       7.395   4.592  14.612  0.00  0.00    +0.000 F 
ATOM     26  C   UNL     1       6.602   6.132  16.202  0.00  0.00    +0.000 A 
ATOM     27  C   UNL     1       5.627   6.492  17.129  0.00  0.00    +0.000 A 
ATOM     28  F   UNL     1       5.800   7.654  17.774  0.00  0.00    +0.000 F 
ENDBRANCH  20  21
BRANCH  20  29
ATOM     29  O   UNL     1       4.230   5.941  19.770  0.00  0.00    +0.000 OA
ATOM     30  H   UNL     1       4.203   6.826  20.187  0.00  0.00    +0.000 HD
ENDBRANCH  20  29
BRANCH  20  31
ATOM     31  C   UNL     1       2.354   5.013  18.558  0.00  0.00    +0.000 C 
BRANCH  31  32
ATOM     32  N   UNL     1       2.206   4.174  19.725  0.00  0.00    +0.000 N 
ATOM     33  C   UNL     1       1.078   4.040  20.481  0.00  0.00    +0.000 A 
ATOM     34  N   UNL     1       1.240   3.070  21.354  0.00  0.00    +0.000 NA
ATOM     35  C   UNL     1       2.533   2.687  21.138  0.00  0.00    +0.000 A 
ATOM     36  N   UNL     1       3.152   3.316  20.140  0.00  0.00    +0.000 NA
ENDBRANCH  31  32
ENDBRANCH  20  31
ENDBRANCH  19  20
ENDBRANCH   4  19
TORSDOF 12
ENDMDL
MODEL 4
REMARK VINA RESULT:      -7.5      4.324      8.261
REMARK  Name = 
REMARK  12 active torsions:
REMARK  status: ('A' for Active; 'I' for Inactive)
REMARK    1  A    between atoms: C_2  and  O_3
REMARK    2  A    between atoms: C_2  and  C_4
REMARK    3  A    between atoms: C_4  and  C_5
REMARK    4  A    between atoms: C_5  and  C_6
REMARK    5  A    between atoms: C_6  and  C_7
REMARK    6  A    between atoms: N_9  and  C_10
REMARK    7  A    between atoms: N_13  and  C_14
REMARK    8  A    between atoms: C_14  and  C_15
REMARK    9  A    between atoms: C_15  and  O_16
REMARK   10  A    between atoms: C_15  and  C_17
REMARK   11  A    between atoms: C_15  and  C_23
REMARK   12  A    between atoms: C_17  and  N_18
REMARK                            x       y       z     vdW  Elec       q    Type
REMARK                         _______ _______ _______ _____ _____    ______ ____
ROOT
ATOM      1  C   UNL     1       7.450   4.937  17.163  0.00  0.00    +0.000 C 
ATOM      2  C   UNL     1       6.507   4.349  18.217  0.00  0.00    +0.000 C 
ATOM      3  C   UNL     1       5.156   5.072  18.269  0.00  0.00    +0.000 C 
ATOM      4  N   UNL     1       5.213   6.556  18.337  0.00  0.00    +0.000 NA
ATOM      5  C   UNL     1       6.277   7.131  17.510  0.00  0.00    +0.000 C 
ATOM      6  C   UNL     1       7.615   6.416  17.470  0.00  0.00    +0.000 C 
ENDROOT
BRANCH   1   9
ATOM      7  C   UNL     1       5.984   4.197  13.978  0.00  0.00    +0.000 A 
ATOM      8  C   UNL     1       6.035   3.929  15.326  0.00  0.00    +0.000 A 
ATOM      9  N   UNL     1       7.086   4.680  15.777  0.00  0.00    +0.000 N 
ATOM     10  N   UNL     1       7.700   5.292  14.751  0.00  0.00    +0.000 NA
ATOM     11  N   UNL     1       7.028   5.015  13.644  0.00  0.00    +0.000 NA
BRANCH   7  12
ATOM     12  C   UNL     1       5.003   3.751  12.954  0.00  0.00    +0.000 C 
BRANCH  12  13
ATOM     13  C   UNL     1       5.649   3.338  11.625  0.00  0.00    +0.000 C 
BRANCH  13  14
ATOM     14  C   UNL     1       5.324   1.906  11.193  0.00  0.00    +0.000 C 
BRANCH  14  16
ATOM     15  O   UNL     1       7.697   1.441  11.017  0.00  0.00    +0.000 OA
ATOM     16  C   UNL     1       6.558   1.028  11.133  0.00  0.00    +0.000 C 
BRANCH  16  17
ATOM     17  O   UNL     1       6.272  -0.286  11.239  0.00  0.00    +0.000 OA
ATOM     18  H   UNL     1       5.717  -0.521  12.012  0.00  0.00    +0.000 HD
ENDBRANCH  16  17
ENDBRANCH  14  16
ENDBRANCH  13  14
ENDBRANCH  12  13
ENDBRANCH   7  12
ENDBRANCH   1   9
BRANCH   4  19
ATOM     19  C   UNL     1       3.863   7.067  17.897  0.00  0.00    +0.000 C 
BRANCH  19  20
ATOM     20  C   UNL     1       2.567   6.830  18.783  0.00  0.00    +0.000 C 
BRANCH  20  21
ATOM     21  C   UNL     1       1.787   8.132  19.071  0.00  0.00    +0.000 A 
ATOM     22  C   UNL     1       1.553   9.110  18.084  0.00  0.00    +0.000 A 
ATOM     23  C   UNL     1       0.899  10.311  18.391  0.00  0.00    +0.000 A 
ATOM     24  C   UNL     1       0.483  10.554  19.689  0.00  0.00    +0.000 A 
ATOM     25  F   UNL     1      -0.121  11.713  19.981  0.00  0.00    +0.000 F 
ATOM     26  C   UNL     1       0.686   9.619  20.684  0.00  0.00    +0.000 A 
ATOM     27  C   UNL     1       1.315   8.418  20.368  0.00  0.00    +0.000 A 
ATOM     28  F   UNL     1       1.481   7.538  21.365  0.00  0.00    +0.000 F 
ENDBRANCH  20  21
BRANCH  20  29
ATOM     29  O   UNL     1       1.691   6.018  17.961  0.00  0.00    +0.000 OA
ATOM     30  H   UNL     1       2.254   5.632  17.258  0.00  0.00    +0.000 HD
ENDBRANCH  20  29
BRANCH  20  31
ATOM     31  C   UNL     1       2.788   6.051  20.116  0.00  0.00    +0.000 C 
BRANCH  31  32
ATOM     32  N   UNL     1       2.238   4.722  20.254  0.00  0.00    +0.000 N 
ATOM     33  C   UNL     1       2.942   3.554  20.227  0.00  0.00    +0.000 A 
ATOM     34  N   UNL     1       2.155   2.552  20.556  0.00  0.00    +0.000 NA
ATOM     35  C   UNL     1       0.942   3.163  20.703  0.00  0.00    +0.000 A 
ATOM     36  N   UNL     1       0.950   4.486  20.552  0.00  0.00    +0.000 NA
ENDBRANCH  31  32
ENDBRANCH  20  31
ENDBRANCH  19  20
ENDBRANCH   4  19
TORSDOF 12
ENDMDL
MODEL 5
REMARK VINA RESULT:      -7.5      3.707      5.158
REMARK  Name = 
REMARK  12 active torsions:
REMARK  status: ('A' for Active; 'I' for Inactive)
REMARK    1  A    between atoms: C_2  and  O_3
REMARK    2  A    between atoms: C_2  and  C_4
REMARK    3  A    between atoms: C_4  and  C_5
REMARK    4  A    between atoms: C_5  and  C_6
REMARK    5  A    between atoms: C_6  and  C_7
REMARK    6  A    between atoms: N_9  and  C_10
REMARK    7  A    between atoms: N_13  and  C_14
REMARK    8  A    between atoms: C_14  and  C_15
REMARK    9  A    between atoms: C_15  and  O_16
REMARK   10  A    between atoms: C_15  and  C_17
REMARK   11  A    between atoms: C_15  and  C_23
REMARK   12  A    between atoms: C_17  and  N_18
REMARK                            x       y       z     vdW  Elec       q    Type
REMARK                         _______ _______ _______ _____ _____    ______ ____
ROOT
ATOM      1  C   UNL     1       0.091  10.322  19.754  0.00  0.00    +0.000 C 
ATOM      2  C   UNL     1       0.211   9.042  20.588  0.00  0.00    +0.000 C 
ATOM      3  C   UNL     1       1.451   8.218  20.227  0.00  0.00    +0.000 C 
ATOM      4  N   UNL     1       1.666   7.962  18.778  0.00  0.00    +0.000 NA
ATOM      5  C   UNL     1       1.325   9.109  17.933  0.00  0.00    +0.000 C 
ATOM      6  C   UNL     1       0.090   9.917  18.290  0.00  0.00    +0.000 C 
ENDROOT
BRANCH   1   9
ATOM      7  C   UNL     1       2.300  13.137  19.958  0.00  0.00    +0.000 A 
ATOM      8  C   UNL     1       1.687  12.194  19.167  0.00  0.00    +0.000 A 
ATOM      9  N   UNL     1       1.061  11.365  20.057  0.00  0.00    +0.000 N 
ATOM     10  N   UNL     1       1.356  11.723  21.318  0.00  0.00    +0.000 NA
ATOM     11  N   UNL     1       2.103  12.815  21.272  0.00  0.00    +0.000 NA
BRANCH   7  12
ATOM     12  C   UNL     1       3.060  14.355  19.574  0.00  0.00    +0.000 C 
BRANCH  12  13
ATOM     13  C   UNL     1       3.396  14.423  18.079  0.00  0.00    +0.000 C 
BRANCH  13  14
ATOM     14  C   UNL     1       4.554  15.364  17.742  0.00  0.00    +0.000 C 
BRANCH  14  16
ATOM     15  O   UNL     1       4.943  17.376  19.037  0.00  0.00    +0.000 OA
ATOM     16  C   UNL     1       4.292  16.787  18.194  0.00  0.00    +0.000 C 
BRANCH  16  17
ATOM     17  O   UNL     1       3.254  17.359  17.551  0.00  0.00    +0.000 OA
ATOM     18  H   UNL     1       2.389  16.924  17.708  0.00  0.00    +0.000 HD
ENDBRANCH  16  17
ENDBRANCH  14  16
ENDBRANCH  13  14
ENDBRANCH  12  13
ENDBRANCH   7  12
ENDBRANCH   1   9
BRANCH   4  19
ATOM     19  C   UNL     1       3.118   7.591  18.609  0.00  0.00    +0.000 C 
BRANCH  19  20
ATOM     20  C   UNL     1       3.581   6.071  18.603  0.00  0.00    +0.000 C 
BRANCH  20  21
ATOM     21  C   UNL     1       4.662   5.775  17.540  0.00  0.00    +0.000 A 
ATOM     22  C   UNL     1       4.705   6.437  16.297  0.00  0.00    +0.000 A 
ATOM     23  C   UNL     1       5.659   6.101  15.326  0.00  0.00    +0.000 A 
ATOM     24  C   UNL     1       6.572   5.092  15.581  0.00  0.00    +0.000 A 
ATOM     25  F   UNL     1       7.466   4.759  14.642  0.00  0.00    +0.000 F 
ATOM     26  C   UNL     1       6.570   4.425  16.790  0.00  0.00    +0.000 A 
ATOM     27  C   UNL     1       5.635   4.779  17.758  0.00  0.00    +0.000 A 
ATOM     28  F   UNL     1       5.677   4.109  18.918  0.00  0.00    +0.000 F 
ENDBRANCH  20  21
BRANCH  20  29
ATOM     29  O   UNL     1       4.223   5.868  19.888  0.00  0.00    +0.000 OA
ATOM     30  H   UNL     1       3.614   5.308  20.412  0.00  0.00    +0.000 HD
ENDBRANCH  20  29
BRANCH  20  31
ATOM     31  C   UNL     1       2.441   5.014  18.493  0.00  0.00    +0.000 C 
BRANCH  31  32
ATOM     32  N   UNL     1       2.179   4.142  19.615  0.00  0.00    +0.000 N 
ATOM     33  C   UNL     1       0.997   4.031  20.288  0.00  0.00    +0.000 A 
ATOM     34  N   UNL     1       1.059   3.024  21.133  0.00  0.00    +0.000 NA
ATOM     35  C   UNL     1       2.348   2.595  20.990  0.00  0.00    +0.000 A 
ATOM     36  N   UNL     1       3.059   3.231  20.060  0.00  0.00    +0.000 NA
ENDBRANCH  31  32
ENDBRANCH  20  31
ENDBRANCH  19  20
ENDBRANCH   4  19
TORSDOF 12
ENDMDL
MODEL 6
REMARK VINA RESULT:      -7.4      3.610      5.160
REMARK  Name = 
REMARK  12 active torsions:
REMARK  status: ('A' for Active; 'I' for Inactive)
REMARK    1  A    between atoms: C_2  and  O_3
REMARK    2  A    between atoms: C_2  and  C_4
REMARK    3  A    between atoms: C_4  and  C_5
REMARK    4  A    between atoms: C_5  and  C_6
REMARK    5  A    between atoms: C_6  and  C_7
REMARK    6  A    between atoms: N_9  and  C_10
REMARK    7  A    between atoms: N_13  and  C_14
REMARK    8  A    between atoms: C_14  and  C_15
REMARK    9  A    between atoms: C_15  and  O_16
REMARK   10  A    between atoms: C_15  and  C_17
REMARK   11  A    between atoms: C_15  and  C_23
REMARK   12  A    between atoms: C_17  and  N_18
REMARK                            x       y       z     vdW  Elec       q    Type
REMARK                         _______ _______ _______ _____ _____    ______ ____
ROOT
ATOM      1  C   UNL     1       0.054  10.760  19.792  0.00  0.00    +0.000 C 
ATOM      2  C   UNL     1       0.138   9.519  20.686  0.00  0.00    +0.000 C 
ATOM      3  C   UNL     1       1.294   8.590  20.297  0.00  0.00    +0.000 C 
ATOM      4  N   UNL     1       1.397   8.247  18.854  0.00  0.00    +0.000 NA
ATOM      5  C   UNL     1       1.083   9.371  17.970  0.00  0.00    +0.000 C 
ATOM      6  C   UNL     1      -0.068  10.282  18.355  0.00  0.00    +0.000 C 
ENDROOT
BRANCH   1   9
ATOM      7  C   UNL     1       2.459  13.416  19.709  0.00  0.00    +0.000 A 
ATOM      8  C   UNL     1       1.732  12.482  19.008  0.00  0.00    +0.000 A 
ATOM      9  N   UNL     1       1.111  11.744  19.978  0.00  0.00    +0.000 N 
ATOM     10  N   UNL     1       1.512  12.140  21.198  0.00  0.00    +0.000 NA
ATOM     11  N   UNL     1       2.328  13.172  21.048  0.00  0.00    +0.000 NA
BRANCH   7  12
ATOM     12  C   UNL     1       3.273  14.557  19.215  0.00  0.00    +0.000 C 
BRANCH  12  13
ATOM     13  C   UNL     1       3.528  15.634  20.276  0.00  0.00    +0.000 C 
BRANCH  13  14
ATOM     14  C   UNL     1       3.420  17.067  19.750  0.00  0.00    +0.000 C 
BRANCH  14  16
ATOM     15  O   UNL     1       1.012  17.309  19.607  0.00  0.00    +0.000 OA
ATOM     16  C   UNL     1       2.097  17.328  19.057  0.00  0.00    +0.000 C 
BRANCH  16  17
ATOM     17  O   UNL     1       2.239  17.606  17.745  0.00  0.00    +0.000 OA
ATOM     18  H   UNL     1       2.315  18.560  17.537  0.00  0.00    +0.000 HD
ENDBRANCH  16  17
ENDBRANCH  14  16
ENDBRANCH  13  14
ENDBRANCH  12  13
ENDBRANCH   7  12
ENDBRANCH   1   9
BRANCH   4  19
ATOM     19  C   UNL     1       2.807   7.763  18.618  0.00  0.00    +0.000 C 
BRANCH  19  20
ATOM     20  C   UNL     1       3.156   6.214  18.635  0.00  0.00    +0.000 C 
BRANCH  20  21
ATOM     21  C   UNL     1       4.357   5.857  17.732  0.00  0.00    +0.000 A 
ATOM     22  C   UNL     1       4.653   6.565  16.550  0.00  0.00    +0.000 A 
ATOM     23  C   UNL     1       5.711   6.177  15.715  0.00  0.00    +0.000 A 
ATOM     24  C   UNL     1       6.477   5.072  16.046  0.00  0.00    +0.000 A 
ATOM     25  F   UNL     1       7.471   4.692  15.234  0.00  0.00    +0.000 F 
ATOM     26  C   UNL     1       6.226   4.357  17.200  0.00  0.00    +0.000 A 
ATOM     27  C   UNL     1       5.189   4.760  18.036  0.00  0.00    +0.000 A 
ATOM     28  F   UNL     1       4.989   4.040  19.148  0.00  0.00    +0.000 F 
ENDBRANCH  20  21
BRANCH  20  29
ATOM     29  O   UNL     1       3.587   5.939  19.993  0.00  0.00    +0.000 OA
ATOM     30  H   UNL     1       4.120   5.119  19.951  0.00  0.00    +0.000 HD
ENDBRANCH  20  29
BRANCH  20  31
ATOM     31  C   UNL     1       1.972   5.246  18.332  0.00  0.00    +0.000 C 
BRANCH  31  32
ATOM     32  N   UNL     1       1.687   4.172  19.254  0.00  0.00    +0.000 N 
ATOM     33  C   UNL     1       1.938   2.846  19.047  0.00  0.00    +0.000 A 
ATOM     34  N   UNL     1       1.718   2.173  20.155  0.00  0.00    +0.000 NA
ATOM     35  C   UNL     1       1.252   3.138  21.002  0.00  0.00    +0.000 A 
ATOM     36  N   UNL     1       1.239   4.373  20.504  0.00  0.00    +0.000 NA
ENDBRANCH  31  32
ENDBRANCH  20  31
ENDBRANCH  19  20
ENDBRANCH   4  19
TORSDOF 12
ENDMDL
MODEL 7
REMARK VINA RESULT:      -7.3      3.705      5.639
REMARK  Name = 
REMARK  12 active torsions:
REMARK  status: ('A' for Active; 'I' for Inactive)
REMARK    1  A    between atoms: C_2  and  O_3
REMARK    2  A    between atoms: C_2  and  C_4
REMARK    3  A    between atoms: C_4  and  C_5
REMARK    4  A    between atoms: C_5  and  C_6
REMARK    5  A    between atoms: C_6  and  C_7
REMARK    6  A    between atoms: N_9  and  C_10
REMARK    7  A    between atoms: N_13  and  C_14
REMARK    8  A    between atoms: C_14  and  C_15
REMARK    9  A    between atoms: C_15  and  O_16
REMARK   10  A    between atoms: C_15  and  C_17
REMARK   11  A    between atoms: C_15  and  C_23
REMARK   12  A    between atoms: C_17  and  N_18
REMARK                            x       y       z     vdW  Elec       q    Type
REMARK                         _______ _______ _______ _____ _____    ______ ____
ROOT
ATOM      1  C   UNL     1       0.109  10.540  19.708  0.00  0.00    +0.000 C 
ATOM      2  C   UNL     1       0.185   9.341  20.658  0.00  0.00    +0.000 C 
ATOM      3  C   UNL     1       1.371   8.420  20.350  0.00  0.00    +0.000 C 
ATOM      4  N   UNL     1       1.532   8.017  18.928  0.00  0.00    +0.000 NA
ATOM      5  C   UNL     1       1.228   9.096  17.985  0.00  0.00    +0.000 C 
ATOM      6  C   UNL     1       0.047   9.999  18.290  0.00  0.00    +0.000 C 
ENDROOT
BRANCH   1   9
ATOM      7  C   UNL     1       2.477  13.228  19.584  0.00  0.00    +0.000 A 
ATOM      8  C   UNL     1       1.804  12.238  18.908  0.00  0.00    +0.000 A 
ATOM      9  N   UNL     1       1.140  11.553  19.888  0.00  0.00    +0.000 N 
ATOM     10  N   UNL     1       1.467  12.034  21.099  0.00  0.00    +0.000 NA
ATOM     11  N   UNL     1       2.274  13.069  20.928  0.00  0.00    +0.000 NA
BRANCH   7  12
ATOM     12  C   UNL     1       3.301  14.349  19.062  0.00  0.00    +0.000 C 
BRANCH  12  13
ATOM     13  C   UNL     1       2.858  15.726  19.572  0.00  0.00    +0.000 C 
BRANCH  13  14
ATOM     14  C   UNL     1       3.824  16.362  20.574  0.00  0.00    +0.000 C 
BRANCH  14  16
ATOM     15  O   UNL     1       5.007  17.326  18.690  0.00  0.00    +0.000 OA
ATOM     16  C   UNL     1       4.906  17.177  19.894  0.00  0.00    +0.000 C 
BRANCH  16  17
ATOM     17  O   UNL     1       5.760  17.748  20.768  0.00  0.00    +0.000 OA
ATOM     18  H   UNL     1       6.126  17.134  21.438  0.00  0.00    +0.000 HD
ENDBRANCH  16  17
ENDBRANCH  14  16
ENDBRANCH  13  14
ENDBRANCH  12  13
ENDBRANCH   7  12
ENDBRANCH   1   9
BRANCH   4  19
ATOM     19  C   UNL     1       2.958   7.553  18.763  0.00  0.00    +0.000 C 
BRANCH  19  20
ATOM     20  C   UNL     1       3.305   6.012  18.595  0.00  0.00    +0.000 C 
BRANCH  20  21
ATOM     21  C   UNL     1       4.264   5.735  17.416  0.00  0.00    +0.000 A 
ATOM     22  C   UNL     1       4.595   6.717  16.461  0.00  0.00    +0.000 A 
ATOM     23  C   UNL     1       5.416   6.418  15.365  0.00  0.00    +0.000 A 
ATOM     24  C   UNL     1       5.905   5.133  15.203  0.00  0.00    +0.000 A 
ATOM     25  F   UNL     1       6.670   4.847  14.142  0.00  0.00    +0.000 F 
ATOM     26  C   UNL     1       5.611   4.144  16.121  0.00  0.00    +0.000 A 
ATOM     27  C   UNL     1       4.815   4.453  17.220  0.00  0.00    +0.000 A 
ATOM     28  F   UNL     1       4.564   3.462  18.087  0.00  0.00    +0.000 F 
ENDBRANCH  20  21
BRANCH  20  29
ATOM     29  O   UNL     1       4.041   5.659  19.794  0.00  0.00    +0.000 OA
ATOM     30  H   UNL     1       4.989   5.679  19.550  0.00  0.00    +0.000 HD
ENDBRANCH  20  29
BRANCH  20  31
ATOM     31  C   UNL     1       2.085   5.045  18.511  0.00  0.00    +0.000 C 
BRANCH  31  32
ATOM     32  N   UNL     1       1.821   4.148  19.612  0.00  0.00    +0.000 N 
ATOM     33  C   UNL     1       1.771   2.786  19.545  0.00  0.00    +0.000 A 
ATOM     34  N   UNL     1       1.684   2.284  20.758  0.00  0.00    +0.000 NA
ATOM     35  C   UNL     1       1.606   3.402  21.538  0.00  0.00    +0.000 A 
ATOM     36  N   UNL     1       1.710   4.559  20.886  0.00  0.00    +0.000 NA
ENDBRANCH  31  32
ENDBRANCH  20  31
ENDBRANCH  19  20
ENDBRANCH   4  19
TORSDOF 12
ENDMDL
MODEL 8
REMARK VINA RESULT:      -7.3      3.737      5.182
REMARK  Name = 
REMARK  12 active torsions:
REMARK  status: ('A' for Active; 'I' for Inactive)
REMARK    1  A    between atoms: C_2  and  O_3
REMARK    2  A    between atoms: C_2  and  C_4
REMARK    3  A    between atoms: C_4  and  C_5
REMARK    4  A    between atoms: C_5  and  C_6
REMARK    5  A    between atoms: C_6  and  C_7
REMARK    6  A    between atoms: N_9  and  C_10
REMARK    7  A    between atoms: N_13  and  C_14
REMARK    8  A    between atoms: C_14  and  C_15
REMARK    9  A    between atoms: C_15  and  O_16
REMARK   10  A    between atoms: C_15  and  C_17
REMARK   11  A    between atoms: C_15  and  C_23
REMARK   12  A    between atoms: C_17  and  N_18
REMARK                            x       y       z     vdW  Elec       q    Type
REMARK                         _______ _______ _______ _____ _____    ______ ____
ROOT
ATOM      1  C   UNL     1       0.054  10.652  19.781  0.00  0.00    +0.000 C 
ATOM      2  C   UNL     1       0.086   9.364  20.610  0.00  0.00    +0.000 C 
ATOM      3  C   UNL     1       1.280   8.469  20.262  0.00  0.00    +0.000 C 
ATOM      4  N   UNL     1       1.499   8.206  18.815  0.00  0.00    +0.000 NA
ATOM      5  C   UNL     1       1.238   9.374  17.971  0.00  0.00    +0.000 C 
ATOM      6  C   UNL     1       0.049  10.252  18.315  0.00  0.00    +0.000 C 
ENDROOT
BRANCH   1   9
ATOM      7  C   UNL     1       2.482  13.279  19.993  0.00  0.00    +0.000 A 
ATOM      8  C   UNL     1       1.869  12.320  19.220  0.00  0.00    +0.000 A 
ATOM      9  N   UNL     1       1.080  11.634  20.101  0.00  0.00    +0.000 N 
ATOM     10  N   UNL     1       1.273  12.083  21.353  0.00  0.00    +0.000 NA
ATOM     11  N   UNL     1       2.120  13.100  21.299  0.00  0.00    +0.000 NA
BRANCH   7  12
ATOM     12  C   UNL     1       3.388  14.388  19.595  0.00  0.00    +0.000 C 
BRANCH  12  13
ATOM     13  C   UNL     1       3.769  14.366  18.110  0.00  0.00    +0.000 C 
BRANCH  13  14
ATOM     14  C   UNL     1       3.497  15.681  17.375  0.00  0.00    +0.000 C 
BRANCH  14  16
ATOM     15  O   UNL     1       4.940  17.214  18.577  0.00  0.00    +0.000 OA
ATOM     16  C   UNL     1       3.820  16.893  18.225  0.00  0.00    +0.000 C 
BRANCH  16  17
ATOM     17  O   UNL     1       2.725  17.611  18.552  0.00  0.00    +0.000 OA
ATOM     18  H   UNL     1       2.744  18.543  18.248  0.00  0.00    +0.000 HD
ENDBRANCH  16  17
ENDBRANCH  14  16
ENDBRANCH  13  14
ENDBRANCH  12  13
ENDBRANCH   7  12
ENDBRANCH   1   9
BRANCH   4  19
ATOM     19  C   UNL     1       2.929   7.749  18.664  0.00  0.00    +0.000 C 
BRANCH  19  20
ATOM     20  C   UNL     1       3.300   6.205  18.650  0.00  0.00    +0.000 C 
BRANCH  20  21
ATOM     21  C   UNL     1       4.503   5.883  17.737  0.00  0.00    +0.000 A 
ATOM     22  C   UNL     1       4.647   6.435  16.448  0.00  0.00    +0.000 A 
ATOM     23  C   UNL     1       5.716   6.074  15.617  0.00  0.00    +0.000 A 
ATOM     24  C   UNL     1       6.647   5.148  16.058  0.00  0.00    +0.000 A 
ATOM     25  F   UNL     1       7.652   4.789  15.251  0.00  0.00    +0.000 F 
ATOM     26  C   UNL     1       6.547   4.590  17.316  0.00  0.00    +0.000 A 
ATOM     27  C   UNL     1       5.496   4.970  18.146  0.00  0.00    +0.000 A 
ATOM     28  F   UNL     1       5.446   4.408  19.362  0.00  0.00    +0.000 F 
ENDBRANCH  20  21
BRANCH  20  29
ATOM     29  O   UNL     1       3.738   5.910  20.001  0.00  0.00    +0.000 OA
ATOM     30  H   UNL     1       3.068   5.305  20.380  0.00  0.00    +0.000 HD
ENDBRANCH  20  29
BRANCH  20  31
ATOM     31  C   UNL     1       2.128   5.227  18.330  0.00  0.00    +0.000 C 
BRANCH  31  32
ATOM     32  N   UNL     1       2.345   3.805  18.456  0.00  0.00    +0.000 N 
ATOM     33  C   UNL     1       2.511   2.923  17.428  0.00  0.00    +0.000 A 
ATOM     34  N   UNL     1       2.859   1.746  17.902  0.00  0.00    +0.000 NA
ATOM     35  C   UNL     1       2.816   1.946  19.253  0.00  0.00    +0.000 A 
ATOM     36  N   UNL     1       2.531   3.190  19.635  0.00  0.00    +0.000 NA
ENDBRANCH  31  32
ENDBRANCH  20  31
ENDBRANCH  19  20
ENDBRANCH   4  19
TORSDOF 12
ENDMDL
MODEL 9
REMARK VINA RESULT:      -7.3      3.652      5.052
REMARK  Name = 
REMARK  12 active torsions:
REMARK  status: ('A' for Active; 'I' for Inactive)
REMARK    1  A    between atoms: C_2  and  O_3
REMARK    2  A    between atoms: C_2  and  C_4
REMARK    3  A    between atoms: C_4  and  C_5
REMARK    4  A    between atoms: C_5  and  C_6
REMARK    5  A    between atoms: C_6  and  C_7
REMARK    6  A    between atoms: N_9  and  C_10
REMARK    7  A    between atoms: N_13  and  C_14
REMARK    8  A    between atoms: C_14  and  C_15
REMARK    9  A    between atoms: C_15  and  O_16
REMARK   10  A    between atoms: C_15  and  C_17
REMARK   11  A    between atoms: C_15  and  C_23
REMARK   12  A    between atoms: C_17  and  N_18
REMARK                            x       y       z     vdW  Elec       q    Type
REMARK                         _______ _______ _______ _____ _____    ______ ____
ROOT
ATOM      1  C   UNL     1       0.082  10.403  19.568  0.00  0.00    +0.000 C 
ATOM      2  C   UNL     1       0.121   9.126  20.412  0.00  0.00    +0.000 C 
ATOM      3  C   UNL     1       1.367   8.276  20.137  0.00  0.00    +0.000 C 
ATOM      4  N   UNL     1       1.672   8.010  18.707  0.00  0.00    +0.000 NA
ATOM      5  C   UNL     1       1.410   9.159  17.837  0.00  0.00    +0.000 C 
ATOM      6  C   UNL     1       0.170   9.991  18.109  0.00  0.00    +0.000 C 
ENDROOT
BRANCH   1   9
ATOM      7  C   UNL     1       2.271  13.216  19.945  0.00  0.00    +0.000 A 
ATOM      8  C   UNL     1       1.648  12.332  19.096  0.00  0.00    +0.000 A 
ATOM      9  N   UNL     1       1.050  11.429  19.931  0.00  0.00    +0.000 N 
ATOM     10  N   UNL     1       1.371  11.689  21.210  0.00  0.00    +0.000 NA
ATOM     11  N   UNL     1       2.108  12.789  21.234  0.00  0.00    +0.000 NA
BRANCH   7  12
ATOM     12  C   UNL     1       3.012  14.468  19.642  0.00  0.00    +0.000 C 
BRANCH  12  13
ATOM     13  C   UNL     1       3.837  14.396  18.352  0.00  0.00    +0.000 C 
BRANCH  13  14
ATOM     14  C   UNL     1       3.393  15.384  17.271  0.00  0.00    +0.000 C 
BRANCH  14  16
ATOM     15  O   UNL     1       2.482  17.605  17.615  0.00  0.00    +0.000 OA
ATOM     16  C   UNL     1       3.400  16.818  17.762  0.00  0.00    +0.000 C 
BRANCH  16  17
ATOM     17  O   UNL     1       4.538  17.146  18.407  0.00  0.00    +0.000 OA
ATOM     18  H   UNL     1       4.570  18.070  18.731  0.00  0.00    +0.000 HD
ENDBRANCH  16  17
ENDBRANCH  14  16
ENDBRANCH  13  14
ENDBRANCH  12  13
ENDBRANCH   7  12
ENDBRANCH   1   9
BRANCH   4  19
ATOM     19  C   UNL     1       3.125   7.609  18.636  0.00  0.00    +0.000 C 
BRANCH  19  20
ATOM     20  C   UNL     1       3.560   6.084  18.710  0.00  0.00    +0.000 C 
BRANCH  20  21
ATOM     21  C   UNL     1       4.654   5.718  17.682  0.00  0.00    +0.000 A 
ATOM     22  C   UNL     1       5.878   6.411  17.599  0.00  0.00    +0.000 A 
ATOM     23  C   UNL     1       6.825   6.100  16.614  0.00  0.00    +0.000 A 
ATOM     24  C   UNL     1       6.555   5.101  15.693  0.00  0.00    +0.000 A 
ATOM     25  F   UNL     1       7.453   4.823  14.740  0.00  0.00    +0.000 F 
ATOM     26  C   UNL     1       5.372   4.392  15.745  0.00  0.00    +0.000 A 
ATOM     27  C   UNL     1       4.445   4.691  16.741  0.00  0.00    +0.000 A 
ATOM     28  F   UNL     1       3.316   3.970  16.756  0.00  0.00    +0.000 F 
ENDBRANCH  20  21
BRANCH  20  29
ATOM     29  O   UNL     1       4.176   5.930  20.015  0.00  0.00    +0.000 OA
ATOM     30  H   UNL     1       3.446   5.754  20.643  0.00  0.00    +0.000 HD
ENDBRANCH  20  29
BRANCH  20  31
ATOM     31  C   UNL     1       2.403   5.042  18.630  0.00  0.00    +0.000 C 
BRANCH  31  32
ATOM     32  N   UNL     1       2.179   4.152  19.745  0.00  0.00    +0.000 N 
ATOM     33  C   UNL     1       1.010   4.006  20.434  0.00  0.00    +0.000 A 
ATOM     34  N   UNL     1       1.108   2.991  21.267  0.00  0.00    +0.000 NA
ATOM     35  C   UNL     1       2.404   2.594  21.100  0.00  0.00    +0.000 A 
ATOM     36  N   UNL     1       3.086   3.256  20.167  0.00  0.00    +0.000 NA
ENDBRANCH  31  32
ENDBRANCH  20  31
ENDBRANCH  19  20
ENDBRANCH   4  19
TORSDOF 12
ENDMDL
