MODEL 1
REMARK VINA RESULT:      -7.7      0.000      0.000
REMARK  Name = 
REMARK  5 active torsions:
REMARK  status: ('A' for Active; 'I' for Inactive)
REMARK    1  A    between atoms: C_1  and  O_2
REMARK    2  A    between atoms: O_2  and  C_3
REMARK    3  A    between atoms: N_8  and  C_9
REMARK    4  A    between atoms: C_21  and  C_22
REMARK    5  A    between atoms: C_22  and  C_23
REMARK                            x       y       z     vdW  Elec       q    Type
REMARK                         _______ _______ _______ _____ _____    ______ ____
ROOT
ATOM      1  C   UNL     1       2.956   3.133  21.364  0.00  0.00    +0.000 C 
ATOM      2  O   UNL     1       2.189   3.407  22.275  0.00  0.00    +0.000 OA
ATOM      3  N   UNL     1       3.347   3.910  20.310  0.00  0.00    +0.000 N 
ATOM      4  C   UNL     1       2.875   5.179  20.065  0.00  0.00    +0.000 A 
ATOM      5  N   UNL     1       1.935   5.762  20.795  0.00  0.00    +0.000 NA
ATOM      6  N   UNL     1       1.820   7.029  20.344  0.00  0.00    +0.000 N 
ATOM      7  C   UNL     1       2.513   7.186  19.152  0.00  0.00    +0.000 A 
ATOM      8  C   UNL     1       3.273   6.027  19.008  0.00  0.00    +0.000 A 
ATOM      9  C   UNL     1       4.242   5.804  17.901  0.00  0.00    +0.000 C 
ATOM     10  C   UNL     1       4.559   7.116  17.169  0.00  0.00    +0.000 C 
ATOM     11  C   UNL     1       3.281   7.915  16.880  0.00  0.00    +0.000 C 
ATOM     12  C   UNL     1       2.521   8.337  18.176  0.00  0.00    +0.000 C 
ATOM     13  H   UNL     1       4.023   3.513  19.679  0.00  0.00    +0.000 HD
ENDROOT
BRANCH   6  14
ATOM     14  C   UNL     1       1.035   7.930  21.117  0.00  0.00    +0.000 A 
ATOM     15  C   UNL     1      -0.361   7.952  21.054  0.00  0.00    +0.000 A 
ATOM     16  C   UNL     1      -1.082   8.824  21.875  0.00  0.00    +0.000 A 
ATOM     17  C   UNL     1      -0.408   9.701  22.719  0.00  0.00    +0.000 A 
ATOM     18  F   UNL     1      -1.108  10.546  23.485  0.00  0.00    +0.000 F 
ATOM     19  C   UNL     1       0.978   9.722  22.766  0.00  0.00    +0.000 A 
ATOM     20  C   UNL     1       1.702   8.841  21.963  0.00  0.00    +0.000 A 
ENDBRANCH   6  14
BRANCH   1  22
ATOM     21  C   UNL     1       4.499   1.855  20.170  0.00  0.00    +0.000 C 
ATOM     22  O   UNL     1       3.577   1.921  21.262  0.00  0.00    +0.000 OA
ENDBRANCH   1  22
BRANCH  12  23
ATOM     23  C   UNL     1       1.153   8.965  17.807  0.00  0.00    +0.000 C 
BRANCH  23  24
ATOM     24  C   UNL     1       0.685  10.189  18.574  0.00  0.00    +0.000 A 
ATOM     25  C   UNL     1       1.656  10.971  19.226  0.00  0.00    +0.000 A 
ATOM     26  C   UNL     1       1.315  12.137  19.900  0.00  0.00    +0.000 A 
ATOM     27  C   UNL     1      -0.006  12.562  19.907  0.00  0.00    +0.000 A 
ATOM     28  C   UNL     1      -0.999  11.830  19.241  0.00  0.00    +0.000 A 
ATOM     29  C   UNL     1      -2.317  12.310  19.213  0.00  0.00    +0.000 A 
ATOM     30  C   UNL     1      -3.324  11.615  18.546  0.00  0.00    +0.000 A 
ATOM     31  C   UNL     1      -3.030  10.415  17.917  0.00  0.00    +0.000 A 
ATOM     32  C   UNL     1      -1.725   9.923  17.938  0.00  0.00    +0.000 A 
ATOM     33  C   UNL     1      -0.672  10.619  18.579  0.00  0.00    +0.000 A 
ENDBRANCH  23  24
ENDBRANCH  12  23
TORSDOF 4
ENDMDL
MODEL 2
REMARK VINA RESULT:      -7.1      4.632      7.530
REMARK  Name = 
REMARK  5 active torsions:
REMARK  status: ('A' for Active; 'I' for Inactive)
REMARK    1  A    between atoms: C_1  and  O_2
REMARK    2  A    between atoms: O_2  and  C_3
REMARK    3  A    between atoms: N_8  and  C_9
REMARK    4  A    between atoms: C_21  and  C_22
REMARK    5  A    between atoms: C_22  and  C_23
REMARK                            x       y       z     vdW  Elec       q    Type
REMARK                         _______ _______ _______ _____ _____    ______ ____
ROOT
ATOM      1  C   UNL     1       0.751   9.815  19.643  0.00  0.00    +0.000 C 
ATOM      2  O   UNL     1       0.987  10.356  20.714  0.00  0.00    +0.000 OA
ATOM      3  N   UNL     1      -0.332   9.971  18.825  0.00  0.00    +0.000 N 
ATOM      4  C   UNL     1      -1.415  10.769  19.116  0.00  0.00    +0.000 A 
ATOM      5  N   UNL     1      -1.553  11.426  20.259  0.00  0.00    +0.000 NA
ATOM      6  N   UNL     1      -2.657  12.191  20.140  0.00  0.00    +0.000 N 
ATOM      7  C   UNL     1      -3.375  11.836  19.007  0.00  0.00    +0.000 A 
ATOM      8  C   UNL     1      -2.539  10.983  18.288  0.00  0.00    +0.000 A 
ATOM      9  C   UNL     1      -2.876  10.424  16.951  0.00  0.00    +0.000 C 
ATOM     10  C   UNL     1      -4.060  11.173  16.320  0.00  0.00    +0.000 C 
ATOM     11  C   UNL     1      -5.190  11.385  17.337  0.00  0.00    +0.000 C 
ATOM     12  C   UNL     1      -4.755  12.252  18.558  0.00  0.00    +0.000 C 
ATOM     13  H   UNL     1      -0.324   9.461  17.958  0.00  0.00    +0.000 HD
ENDROOT
BRANCH   6  14
ATOM     14  C   UNL     1      -2.892  13.165  21.151  0.00  0.00    +0.000 A 
ATOM     15  C   UNL     1      -3.239  12.818  22.459  0.00  0.00    +0.000 A 
ATOM     16  C   UNL     1      -3.407  13.816  23.424  0.00  0.00    +0.000 A 
ATOM     17  C   UNL     1      -3.274  15.154  23.070  0.00  0.00    +0.000 A 
ATOM     18  F   UNL     1      -3.457  16.102  23.997  0.00  0.00    +0.000 F 
ATOM     19  C   UNL     1      -2.970  15.520  21.767  0.00  0.00    +0.000 A 
ATOM     20  C   UNL     1      -2.783  14.528  20.805  0.00  0.00    +0.000 A 
ENDBRANCH   6  14
BRANCH   1  22
ATOM     21  C   UNL     1       1.930   9.234  17.717  0.00  0.00    +0.000 C 
ATOM     22  O   UNL     1       1.599   8.911  19.071  0.00  0.00    +0.000 OA
ENDBRANCH   1  22
BRANCH  12  23
ATOM     23  C   UNL     1      -5.876  12.263  19.628  0.00  0.00    +0.000 C 
BRANCH  23  24
ATOM     24  C   UNL     1      -6.209  13.573  20.320  0.00  0.00    +0.000 A 
ATOM     25  C   UNL     1      -6.125  14.758  19.565  0.00  0.00    +0.000 A 
ATOM     26  C   UNL     1      -6.468  15.989  20.110  0.00  0.00    +0.000 A 
ATOM     27  C   UNL     1      -6.936  16.054  21.414  0.00  0.00    +0.000 A 
ATOM     28  C   UNL     1      -7.068  14.893  22.188  0.00  0.00    +0.000 A 
ATOM     29  C   UNL     1      -7.598  14.978  23.485  0.00  0.00    +0.000 A 
ATOM     30  C   UNL     1      -7.757  13.840  24.274  0.00  0.00    +0.000 A 
ATOM     31  C   UNL     1      -7.364  12.604  23.785  0.00  0.00    +0.000 A 
ATOM     32  C   UNL     1      -6.833  12.504  22.499  0.00  0.00    +0.000 A 
ATOM     33  C   UNL     1      -6.687  13.634  21.659  0.00  0.00    +0.000 A 
ENDBRANCH  23  24
ENDBRANCH  12  23
TORSDOF 4
ENDMDL
MODEL 3
REMARK VINA RESULT:      -7.1      6.164      7.992
REMARK  Name = 
REMARK  5 active torsions:
REMARK  status: ('A' for Active; 'I' for Inactive)
REMARK    1  A    between atoms: C_1  and  O_2
REMARK    2  A    between atoms: O_2  and  C_3
REMARK    3  A    between atoms: N_8  and  C_9
REMARK    4  A    between atoms: C_21  and  C_22
REMARK    5  A    between atoms: C_22  and  C_23
REMARK                            x       y       z     vdW  Elec       q    Type
REMARK                         _______ _______ _______ _____ _____    ______ ____
ROOT
ATOM      1  C   UNL     1      -2.642  10.323  16.964  0.00  0.00    +0.000 C 
ATOM      2  O   UNL     1      -3.678  10.037  17.545  0.00  0.00    +0.000 OA
ATOM      3  N   UNL     1      -1.666  11.204  17.336  0.00  0.00    +0.000 N 
ATOM      4  C   UNL     1      -1.720  11.990  18.464  0.00  0.00    +0.000 A 
ATOM      5  N   UNL     1      -2.762  12.024  19.282  0.00  0.00    +0.000 NA
ATOM      6  N   UNL     1      -2.413  12.799  20.330  0.00  0.00    +0.000 N 
ATOM      7  C   UNL     1      -1.228  13.470  20.064  0.00  0.00    +0.000 A 
ATOM      8  C   UNL     1      -0.722  12.888  18.903  0.00  0.00    +0.000 A 
ATOM      9  C   UNL     1       0.589  13.248  18.299  0.00  0.00    +0.000 C 
ATOM     10  C   UNL     1       1.453  14.048  19.285  0.00  0.00    +0.000 C 
ATOM     11  C   UNL     1       0.634  15.146  19.977  0.00  0.00    +0.000 C 
ATOM     12  C   UNL     1      -0.548  14.582  20.825  0.00  0.00    +0.000 C 
ATOM     13  H   UNL     1      -0.862  11.272  16.735  0.00  0.00    +0.000 HD
ENDROOT
BRANCH   6  14
ATOM     14  C   UNL     1      -3.281  12.806  21.457  0.00  0.00    +0.000 A 
ATOM     15  C   UNL     1      -2.870  12.378  22.722  0.00  0.00    +0.000 A 
ATOM     16  C   UNL     1      -3.751  12.455  23.805  0.00  0.00    +0.000 A 
ATOM     17  C   UNL     1      -5.050  12.915  23.612  0.00  0.00    +0.000 A 
ATOM     18  F   UNL     1      -5.891  12.965  24.652  0.00  0.00    +0.000 F 
ATOM     19  C   UNL     1      -5.489  13.306  22.356  0.00  0.00    +0.000 A 
ATOM     20  C   UNL     1      -4.608  13.248  21.276  0.00  0.00    +0.000 A 
ENDBRANCH   6  14
BRANCH   1  22
ATOM     21  C   UNL     1      -3.138  10.159  14.691  0.00  0.00    +0.000 C 
ATOM     22  O   UNL     1      -2.287   9.763  15.771  0.00  0.00    +0.000 OA
ENDBRANCH   1  22
BRANCH  12  23
ATOM     23  C   UNL     1      -1.439  15.744  21.332  0.00  0.00    +0.000 C 
BRANCH  23  24
ATOM     24  C   UNL     1      -1.932  15.710  22.767  0.00  0.00    +0.000 A 
ATOM     25  C   UNL     1      -1.037  15.272  23.762  0.00  0.00    +0.000 A 
ATOM     26  C   UNL     1      -1.393  15.266  25.105  0.00  0.00    +0.000 A 
ATOM     27  C   UNL     1      -2.643  15.731  25.483  0.00  0.00    +0.000 A 
ATOM     28  C   UNL     1      -3.552  16.209  24.528  0.00  0.00    +0.000 A 
ATOM     29  C   UNL     1      -4.788  16.728  24.941  0.00  0.00    +0.000 A 
ATOM     30  C   UNL     1      -5.706  17.225  24.018  0.00  0.00    +0.000 A 
ATOM     31  C   UNL     1      -5.408  17.186  22.664  0.00  0.00    +0.000 A 
ATOM     32  C   UNL     1      -4.184  16.671  22.238  0.00  0.00    +0.000 A 
ATOM     33  C   UNL     1      -3.217  16.187  23.150  0.00  0.00    +0.000 A 
ENDBRANCH  23  24
ENDBRANCH  12  23
TORSDOF 4
ENDMDL
MODEL 4
REMARK VINA RESULT:      -7.0      4.534      7.368
REMARK  Name = 
REMARK  5 active torsions:
REMARK  status: ('A' for Active; 'I' for Inactive)
REMARK    1  A    between atoms: C_1  and  O_2
REMARK    2  A    between atoms: O_2  and  C_3
REMARK    3  A    between atoms: N_8  and  C_9
REMARK    4  A    between atoms: C_21  and  C_22
REMARK    5  A    between atoms: C_22  and  C_23
REMARK                            x       y       z     vdW  Elec       q    Type
REMARK                         _______ _______ _______ _____ _____    ______ ____
ROOT
ATOM      1  C   UNL     1       0.969   9.846  18.488  0.00  0.00    +0.000 C 
ATOM      2  O   UNL     1       1.395  10.358  19.513  0.00  0.00    +0.000 OA
ATOM      3  N   UNL     1      -0.251  10.006  17.895  0.00  0.00    +0.000 N 
ATOM      4  C   UNL     1      -1.271  10.771  18.412  0.00  0.00    +0.000 A 
ATOM      5  N   UNL     1      -1.200  11.389  19.582  0.00  0.00    +0.000 NA
ATOM      6  N   UNL     1      -2.318  12.134  19.700  0.00  0.00    +0.000 N 
ATOM      7  C   UNL     1      -3.232  11.800  18.711  0.00  0.00    +0.000 A 
ATOM      8  C   UNL     1      -2.534  10.988  17.819  0.00  0.00    +0.000 A 
ATOM      9  C   UNL     1      -3.110  10.464  16.550  0.00  0.00    +0.000 C 
ATOM     10  C   UNL     1      -4.402  11.208  16.180  0.00  0.00    +0.000 C 
ATOM     11  C   UNL     1      -5.322  11.364  17.399  0.00  0.00    +0.000 C 
ATOM     12  C   UNL     1      -4.677  12.202  18.545  0.00  0.00    +0.000 C 
ATOM     13  H   UNL     1      -0.400   9.523  17.024  0.00  0.00    +0.000 HD
ENDROOT
BRANCH   6  14
ATOM     14  C   UNL     1      -2.371  13.071  20.771  0.00  0.00    +0.000 A 
ATOM     15  C   UNL     1      -2.053  14.421  20.601  0.00  0.00    +0.000 A 
ATOM     16  C   UNL     1      -2.172  15.306  21.677  0.00  0.00    +0.000 A 
ATOM     17  C   UNL     1      -2.561  14.832  22.926  0.00  0.00    +0.000 A 
ATOM     18  F   UNL     1      -2.652  15.685  23.954  0.00  0.00    +0.000 F 
ATOM     19  C   UNL     1      -2.842  13.489  23.123  0.00  0.00    +0.000 A 
ATOM     20  C   UNL     1      -2.743  12.605  22.049  0.00  0.00    +0.000 A 
ENDBRANCH   6  14
BRANCH   1  22
ATOM     21  C   UNL     1       2.311   7.940  18.510  0.00  0.00    +0.000 C 
ATOM     22  O   UNL     1       1.706   8.979  17.735  0.00  0.00    +0.000 OA
ENDBRANCH   1  22
BRANCH  12  23
ATOM     23  C   UNL     1      -5.576  12.156  19.807  0.00  0.00    +0.000 C 
BRANCH  23  24
ATOM     24  C   UNL     1      -5.839  13.447  20.560  0.00  0.00    +0.000 A 
ATOM     25  C   UNL     1      -5.575  14.662  19.900  0.00  0.00    +0.000 A 
ATOM     26  C   UNL     1      -5.844  15.885  20.501  0.00  0.00    +0.000 A 
ATOM     27  C   UNL     1      -6.414  15.917  21.764  0.00  0.00    +0.000 A 
ATOM     28  C   UNL     1      -6.725  14.730  22.442  0.00  0.00    +0.000 A 
ATOM     29  C   UNL     1      -7.355  14.788  23.695  0.00  0.00    +0.000 A 
ATOM     30  C   UNL     1      -7.691  13.626  24.386  0.00  0.00    +0.000 A 
ATOM     31  C   UNL     1      -7.379  12.389  23.845  0.00  0.00    +0.000 A 
ATOM     32  C   UNL     1      -6.751  12.315  22.601  0.00  0.00    +0.000 A 
ATOM     33  C   UNL     1      -6.423  13.473  21.858  0.00  0.00    +0.000 A 
ENDBRANCH  23  24
ENDBRANCH  12  23
TORSDOF 4
ENDMDL
MODEL 5
REMARK VINA RESULT:      -6.9      4.138      6.966
REMARK  Name = 
REMARK  5 active torsions:
REMARK  status: ('A' for Active; 'I' for Inactive)
REMARK    1  A    between atoms: C_1  and  O_2
REMARK    2  A    between atoms: O_2  and  C_3
REMARK    3  A    between atoms: N_8  and  C_9
REMARK    4  A    between atoms: C_21  and  C_22
REMARK    5  A    between atoms: C_22  and  C_23
REMARK                            x       y       z     vdW  Elec       q    Type
REMARK                         _______ _______ _______ _____ _____    ______ ____
ROOT
ATOM      1  C   UNL     1       1.354   9.376  18.351  0.00  0.00    +0.000 C 
ATOM      2  O   UNL     1       1.704   9.763  19.456  0.00  0.00    +0.000 OA
ATOM      3  N   UNL     1       0.189   9.629  17.684  0.00  0.00    +0.000 N 
ATOM      4  C   UNL     1      -0.856  10.362  18.199  0.00  0.00    +0.000 A 
ATOM      5  N   UNL     1      -0.869  10.849  19.431  0.00  0.00    +0.000 NA
ATOM      6  N   UNL     1      -1.980  11.607  19.540  0.00  0.00    +0.000 N 
ATOM      7  C   UNL     1      -2.816  11.404  18.451  0.00  0.00    +0.000 A 
ATOM      8  C   UNL     1      -2.062  10.674  17.534  0.00  0.00    +0.000 A 
ATOM      9  C   UNL     1      -2.541  10.304  16.175  0.00  0.00    +0.000 C 
ATOM     10  C   UNL     1      -3.786  11.117  15.786  0.00  0.00    +0.000 C 
ATOM     11  C   UNL     1      -4.799  11.166  16.937  0.00  0.00    +0.000 C 
ATOM     12  C   UNL     1      -4.236  11.859  18.215  0.00  0.00    +0.000 C 
ATOM     13  H   UNL     1       0.104   9.246  16.757  0.00  0.00    +0.000 HD
ENDROOT
BRANCH   6  14
ATOM     14  C   UNL     1      -2.104  12.425  20.698  0.00  0.00    +0.000 A 
ATOM     15  C   UNL     1      -1.944  11.921  21.992  0.00  0.00    +0.000 A 
ATOM     16  C   UNL     1      -2.026  12.781  23.090  0.00  0.00    +0.000 A 
ATOM     17  C   UNL     1      -2.313  14.129  22.897  0.00  0.00    +0.000 A 
ATOM     18  F   UNL     1      -2.410  14.939  23.958  0.00  0.00    +0.000 F 
ATOM     19  C   UNL     1      -2.515  14.640  21.624  0.00  0.00    +0.000 A 
ATOM     20  C   UNL     1      -2.416  13.789  20.523  0.00  0.00    +0.000 A 
ENDBRANCH   6  14
BRANCH   1  22
ATOM     21  C   UNL     1       2.528   7.365  18.225  0.00  0.00    +0.000 C 
ATOM     22  O   UNL     1       2.135   8.574  17.569  0.00  0.00    +0.000 OA
ENDBRANCH   1  22
BRANCH  12  23
ATOM     23  C   UNL     1      -5.235  11.703  19.389  0.00  0.00    +0.000 C 
BRANCH  23  24
ATOM     24  C   UNL     1      -6.067  12.903  19.802  0.00  0.00    +0.000 A 
ATOM     25  C   UNL     1      -6.759  13.604  18.796  0.00  0.00    +0.000 A 
ATOM     26  C   UNL     1      -7.586  14.678  19.100  0.00  0.00    +0.000 A 
ATOM     27  C   UNL     1      -7.764  15.052  20.423  0.00  0.00    +0.000 A 
ATOM     28  C   UNL     1      -7.120  14.360  21.458  0.00  0.00    +0.000 A 
ATOM     29  C   UNL     1      -7.360  14.720  22.793  0.00  0.00    +0.000 A 
ATOM     30  C   UNL     1      -6.749  14.041  23.844  0.00  0.00    +0.000 A 
ATOM     31  C   UNL     1      -5.867  13.006  23.574  0.00  0.00    +0.000 A 
ATOM     32  C   UNL     1      -5.616  12.637  22.252  0.00  0.00    +0.000 A 
ATOM     33  C   UNL     1      -6.244  13.284  21.162  0.00  0.00    +0.000 A 
ENDBRANCH  23  24
ENDBRANCH  12  23
TORSDOF 4
ENDMDL
MODEL 6
REMARK VINA RESULT:      -6.7      4.745      7.734
REMARK  Name = 
REMARK  5 active torsions:
REMARK  status: ('A' for Active; 'I' for Inactive)
REMARK    1  A    between atoms: C_1  and  O_2
REMARK    2  A    between atoms: O_2  and  C_3
REMARK    3  A    between atoms: N_8  and  C_9
REMARK    4  A    between atoms: C_21  and  C_22
REMARK    5  A    between atoms: C_22  and  C_23
REMARK                            x       y       z     vdW  Elec       q    Type
REMARK                         _______ _______ _______ _____ _____    ______ ____
ROOT
ATOM      1  C   UNL     1       0.968  10.964  18.944  0.00  0.00    +0.000 C 
ATOM      2  O   UNL     1       1.226  11.450  20.035  0.00  0.00    +0.000 OA
ATOM      3  N   UNL     1      -0.230  10.923  18.287  0.00  0.00    +0.000 N 
ATOM      4  C   UNL     1      -1.413  11.405  18.799  0.00  0.00    +0.000 A 
ATOM      5  N   UNL     1      -1.529  11.907  20.020  0.00  0.00    +0.000 NA
ATOM      6  N   UNL     1      -2.785  12.388  20.127  0.00  0.00    +0.000 N 
ATOM      7  C   UNL     1      -3.559  11.969  19.055  0.00  0.00    +0.000 A 
ATOM      8  C   UNL     1      -2.664  11.411  18.144  0.00  0.00    +0.000 A 
ATOM      9  C   UNL     1      -3.055  10.905  16.801  0.00  0.00    +0.000 C 
ATOM     10  C   UNL     1      -4.458  11.396  16.411  0.00  0.00    +0.000 C 
ATOM     11  C   UNL     1      -5.445  11.238  17.575  0.00  0.00    +0.000 C 
ATOM     12  C   UNL     1      -5.048  12.076  18.829  0.00  0.00    +0.000 C 
ATOM     13  H   UNL     1      -0.232  10.507  17.371  0.00  0.00    +0.000 HD
ENDROOT
BRANCH   6  14
ATOM     14  C   UNL     1      -3.086  13.185  21.268  0.00  0.00    +0.000 A 
ATOM     15  C   UNL     1      -3.335  14.557  21.179  0.00  0.00    +0.000 A 
ATOM     16  C   UNL     1      -3.676  15.279  22.326  0.00  0.00    +0.000 A 
ATOM     17  C   UNL     1      -3.722  14.641  23.561  0.00  0.00    +0.000 A 
ATOM     18  F   UNL     1      -4.030  15.346  24.656  0.00  0.00    +0.000 F 
ATOM     19  C   UNL     1      -3.439  13.287  23.675  0.00  0.00    +0.000 A 
ATOM     20  C   UNL     1      -3.116  12.558  22.531  0.00  0.00    +0.000 A 
ENDBRANCH   6  14
BRANCH   1  22
ATOM     21  C   UNL     1       1.479   9.072  17.681  0.00  0.00    +0.000 C 
ATOM     22  O   UNL     1       1.907  10.346  18.170  0.00  0.00    +0.000 OA
ENDBRANCH   1  22
BRANCH  12  23
ATOM     23  C   UNL     1      -5.974  11.721  20.020  0.00  0.00    +0.000 C 
BRANCH  23  24
ATOM     24  C   UNL     1      -6.538  12.849  20.864  0.00  0.00    +0.000 A 
ATOM     25  C   UNL     1      -6.736  12.610  22.237  0.00  0.00    +0.000 A 
ATOM     26  C   UNL     1      -7.194  13.609  23.087  0.00  0.00    +0.000 A 
ATOM     27  C   UNL     1      -7.432  14.880  22.584  0.00  0.00    +0.000 A 
ATOM     28  C   UNL     1      -7.215  15.169  21.230  0.00  0.00    +0.000 A 
ATOM     29  C   UNL     1      -7.408  16.476  20.757  0.00  0.00    +0.000 A 
ATOM     30  C   UNL     1      -7.184  16.798  19.420  0.00  0.00    +0.000 A 
ATOM     31  C   UNL     1      -6.789  15.811  18.531  0.00  0.00    +0.000 A 
ATOM     32  C   UNL     1      -6.596  14.506  18.986  0.00  0.00    +0.000 A 
ATOM     33  C   UNL     1      -6.782  14.150  20.342  0.00  0.00    +0.000 A 
ENDBRANCH  23  24
ENDBRANCH  12  23
TORSDOF 4
ENDMDL
MODEL 7
REMARK VINA RESULT:      -6.7      5.190      8.944
REMARK  Name = 
REMARK  5 active torsions:
REMARK  status: ('A' for Active; 'I' for Inactive)
REMARK    1  A    between atoms: C_1  and  O_2
REMARK    2  A    between atoms: O_2  and  C_3
REMARK    3  A    between atoms: N_8  and  C_9
REMARK    4  A    between atoms: C_21  and  C_22
REMARK    5  A    between atoms: C_22  and  C_23
REMARK                            x       y       z     vdW  Elec       q    Type
REMARK                         _______ _______ _______ _____ _____    ______ ____
ROOT
ATOM      1  C   UNL     1      -7.102  12.554  22.303  0.00  0.00    +0.000 C 
ATOM      2  O   UNL     1      -7.444  11.723  21.474  0.00  0.00    +0.000 OA
ATOM      3  N   UNL     1      -5.930  13.253  22.380  0.00  0.00    +0.000 N 
ATOM      4  C   UNL     1      -4.870  13.088  21.519  0.00  0.00    +0.000 A 
ATOM      5  N   UNL     1      -4.847  12.180  20.554  0.00  0.00    +0.000 NA
ATOM      6  N   UNL     1      -3.719  12.392  19.844  0.00  0.00    +0.000 N 
ATOM      7  C   UNL     1      -2.887  13.282  20.508  0.00  0.00    +0.000 A 
ATOM      8  C   UNL     1      -3.656  13.809  21.543  0.00  0.00    +0.000 A 
ATOM      9  C   UNL     1      -3.183  14.876  22.466  0.00  0.00    +0.000 C 
ATOM     10  C   UNL     1      -1.920  15.560  21.921  0.00  0.00    +0.000 C 
ATOM     11  C   UNL     1      -0.907  14.528  21.407  0.00  0.00    +0.000 C 
ATOM     12  C   UNL     1      -1.457  13.673  20.224  0.00  0.00    +0.000 C 
ATOM     13  H   UNL     1      -5.852  13.927  23.123  0.00  0.00    +0.000 HD
ENDROOT
BRANCH   6  14
ATOM     14  C   UNL     1      -3.579  11.690  18.613  0.00  0.00    +0.000 A 
ATOM     15  C   UNL     1      -2.506  10.832  18.358  0.00  0.00    +0.000 A 
ATOM     16  C   UNL     1      -2.447  10.130  17.151  0.00  0.00    +0.000 A 
ATOM     17  C   UNL     1      -3.430  10.322  16.187  0.00  0.00    +0.000 A 
ATOM     18  F   UNL     1      -3.352   9.660  15.026  0.00  0.00    +0.000 F 
ATOM     19  C   UNL     1      -4.482  11.200  16.405  0.00  0.00    +0.000 A 
ATOM     20  C   UNL     1      -4.556  11.889  17.615  0.00  0.00    +0.000 A 
ENDBRANCH   6  14
BRANCH   1  22
ATOM     21  C   UNL     1      -7.915  14.343  23.557  0.00  0.00    +0.000 C 
ATOM     22  O   UNL     1      -7.899  12.928  23.345  0.00  0.00    +0.000 OA
ENDBRANCH   1  22
BRANCH  12  23
ATOM     23  C   UNL     1      -0.463  12.533  19.886  0.00  0.00    +0.000 C 
BRANCH  23  24
ATOM     24  C   UNL     1      -0.264  11.418  20.895  0.00  0.00    +0.000 A 
ATOM     25  C   UNL     1      -0.897  11.539  22.147  0.00  0.00    +0.000 A 
ATOM     26  C   UNL     1      -0.811  10.534  23.102  0.00  0.00    +0.000 A 
ATOM     27  C   UNL     1      -0.113   9.371  22.812  0.00  0.00    +0.000 A 
ATOM     28  C   UNL     1       0.504   9.196  21.565  0.00  0.00    +0.000 A 
ATOM     29  C   UNL     1       1.154   7.987  21.274  0.00  0.00    +0.000 A 
ATOM     30  C   UNL     1       1.762   7.776  20.038  0.00  0.00    +0.000 A 
ATOM     31  C   UNL     1       1.750   8.782  19.085  0.00  0.00    +0.000 A 
ATOM     32  C   UNL     1       1.110   9.990  19.360  0.00  0.00    +0.000 A 
ATOM     33  C   UNL     1       0.455  10.227  20.592  0.00  0.00    +0.000 A 
ENDBRANCH  23  24
ENDBRANCH  12  23
TORSDOF 4
ENDMDL
MODEL 8
REMARK VINA RESULT:      -6.6      4.719      8.257
REMARK  Name = 
REMARK  5 active torsions:
REMARK  status: ('A' for Active; 'I' for Inactive)
REMARK    1  A    between atoms: C_1  and  O_2
REMARK    2  A    between atoms: O_2  and  C_3
REMARK    3  A    between atoms: N_8  and  C_9
REMARK    4  A    between atoms: C_21  and  C_22
REMARK    5  A    between atoms: C_22  and  C_23
REMARK                            x       y       z     vdW  Elec       q    Type
REMARK                         _______ _______ _______ _____ _____    ______ ____
ROOT
ATOM      1  C   UNL     1      -4.652  13.276  22.642  0.00  0.00    +0.000 C 
ATOM      2  O   UNL     1      -5.504  12.806  21.902  0.00  0.00    +0.000 OA
ATOM      3  N   UNL     1      -3.307  13.392  22.434  0.00  0.00    +0.000 N 
ATOM      4  C   UNL     1      -2.651  12.926  21.317  0.00  0.00    +0.000 A 
ATOM      5  N   UNL     1      -3.251  12.252  20.346  0.00  0.00    +0.000 NA
ATOM      6  N   UNL     1      -2.335  12.072  19.372  0.00  0.00    +0.000 N 
ATOM      7  C   UNL     1      -1.069  12.412  19.827  0.00  0.00    +0.000 A 
ATOM      8  C   UNL     1      -1.271  13.051  21.048  0.00  0.00    +0.000 A 
ATOM      9  C   UNL     1      -0.179  13.663  21.854  0.00  0.00    +0.000 C 
ATOM     10  C   UNL     1       1.102  13.821  21.022  0.00  0.00    +0.000 C 
ATOM     11  C   UNL     1       1.403  12.549  20.218  0.00  0.00    +0.000 C 
ATOM     12  C   UNL     1       0.283  12.198  19.190  0.00  0.00    +0.000 C 
ATOM     13  H   UNL     1      -2.773  13.848  23.155  0.00  0.00    +0.000 HD
ENDROOT
BRANCH   6  14
ATOM     14  C   UNL     1      -2.798  11.573  18.122  0.00  0.00    +0.000 A 
ATOM     15  C   UNL     1      -1.962  10.899  17.228  0.00  0.00    +0.000 A 
ATOM     16  C   UNL     1      -2.484  10.386  16.037  0.00  0.00    +0.000 A 
ATOM     17  C   UNL     1      -3.823  10.589  15.721  0.00  0.00    +0.000 A 
ATOM     18  F   UNL     1      -4.307  10.111  14.568  0.00  0.00    +0.000 F 
ATOM     19  C   UNL     1      -4.659  11.291  16.577  0.00  0.00    +0.000 A 
ATOM     20  C   UNL     1      -4.148  11.788  17.776  0.00  0.00    +0.000 A 
ENDBRANCH   6  14
BRANCH   1  22
ATOM     21  C   UNL     1      -5.068  15.215  23.868  0.00  0.00    +0.000 C 
ATOM     22  O   UNL     1      -4.946  13.790  23.872  0.00  0.00    +0.000 OA
ENDBRANCH   1  22
BRANCH  12  23
ATOM     23  C   UNL     1       0.559  10.811  18.557  0.00  0.00    +0.000 C 
BRANCH  23  24
ATOM     24  C   UNL     1       0.864   9.641  19.474  0.00  0.00    +0.000 A 
ATOM     25  C   UNL     1       0.159   9.552  20.689  0.00  0.00    +0.000 A 
ATOM     26  C   UNL     1       0.340   8.481  21.556  0.00  0.00    +0.000 A 
ATOM     27  C   UNL     1       1.209   7.458  21.206  0.00  0.00    +0.000 A 
ATOM     28  C   UNL     1       1.905   7.490  19.990  0.00  0.00    +0.000 A 
ATOM     29  C   UNL     1       2.734   6.415  19.633  0.00  0.00    +0.000 A 
ATOM     30  C   UNL     1       3.425   6.409  18.424  0.00  0.00    +0.000 A 
ATOM     31  C   UNL     1       3.317   7.492  17.565  0.00  0.00    +0.000 A 
ATOM     32  C   UNL     1       2.500   8.569  17.906  0.00  0.00    +0.000 A 
ATOM     33  C   UNL     1       1.758   8.594  19.111  0.00  0.00    +0.000 A 
ENDBRANCH  23  24
ENDBRANCH  12  23
TORSDOF 4
ENDMDL
MODEL 9
REMARK VINA RESULT:      -6.6      9.006     11.912
REMARK  Name = 
REMARK  5 active torsions:
REMARK  status: ('A' for Active; 'I' for Inactive)
REMARK    1  A    between atoms: C_1  and  O_2
REMARK    2  A    between atoms: O_2  and  C_3
REMARK    3  A    between atoms: N_8  and  C_9
REMARK    4  A    between atoms: C_21  and  C_22
REMARK    5  A    between atoms: C_22  and  C_23
REMARK                            x       y       z     vdW  Elec       q    Type
REMARK                         _______ _______ _______ _____ _____    ______ ____
ROOT
ATOM      1  C   UNL     1       3.619  14.721  19.375  0.00  0.00    +0.000 C 
ATOM      2  O   UNL     1       4.025  15.149  18.304  0.00  0.00    +0.000 OA
ATOM      3  N   UNL     1       4.292  14.595  20.557  0.00  0.00    +0.000 N 
ATOM      4  C   UNL     1       5.623  14.902  20.729  0.00  0.00    +0.000 A 
ATOM      5  N   UNL     1       6.415  15.293  19.742  0.00  0.00    +0.000 NA
ATOM      6  N   UNL     1       7.600  15.621  20.299  0.00  0.00    +0.000 N 
ATOM      7  C   UNL     1       7.649  15.200  21.620  0.00  0.00    +0.000 A 
ATOM      8  C   UNL     1       6.348  14.817  21.938  0.00  0.00    +0.000 A 
ATOM      9  C   UNL     1       5.922  14.374  23.293  0.00  0.00    +0.000 C 
ATOM     10  C   UNL     1       6.978  14.732  24.350  0.00  0.00    +0.000 C 
ATOM     11  C   UNL     1       8.390  14.376  23.868  0.00  0.00    +0.000 C 
ATOM     12  C   UNL     1       8.810  15.155  22.584  0.00  0.00    +0.000 C 
ATOM     13  H   UNL     1       3.767  14.253  21.345  0.00  0.00    +0.000 HD
ENDROOT
BRANCH   6  14
ATOM     14  C   UNL     1       8.548  16.289  19.474  0.00  0.00    +0.000 A 
ATOM     15  C   UNL     1       9.285  17.390  19.920  0.00  0.00    +0.000 A 
ATOM     16  C   UNL     1      10.240  17.975  19.083  0.00  0.00    +0.000 A 
ATOM     17  C   UNL     1      10.422  17.491  17.792  0.00  0.00    +0.000 A 
ATOM     18  F   UNL     1      11.325  18.072  16.993  0.00  0.00    +0.000 F 
ATOM     19  C   UNL     1       9.672  16.425  17.318  0.00  0.00    +0.000 A 
ATOM     20  C   UNL     1       8.731  15.825  18.154  0.00  0.00    +0.000 A 
ENDBRANCH   6  14
BRANCH   1  22
ATOM     21  C   UNL     1       2.243  13.250  20.549  0.00  0.00    +0.000 C 
ATOM     22  O   UNL     1       2.342  14.273  19.554  0.00  0.00    +0.000 OA
ENDBRANCH   1  22
BRANCH  12  23
ATOM     23  C   UNL     1      10.158  14.610  22.048  0.00  0.00    +0.000 C 
BRANCH  23  24
ATOM     24  C   UNL     1      10.147  13.356  21.193  0.00  0.00    +0.000 A 
ATOM     25  C   UNL     1       9.321  12.289  21.596  0.00  0.00    +0.000 A 
ATOM     26  C   UNL     1       9.212  11.131  20.836  0.00  0.00    +0.000 A 
ATOM     27  C   UNL     1       9.904  11.030  19.639  0.00  0.00    +0.000 A 
ATOM     28  C   UNL     1      10.711  12.083  19.184  0.00  0.00    +0.000 A 
ATOM     29  C   UNL     1      11.356  11.980  17.942  0.00  0.00    +0.000 A 
ATOM     30  C   UNL     1      12.151  13.016  17.456  0.00  0.00    +0.000 A 
ATOM     31  C   UNL     1      12.333  14.159  18.218  0.00  0.00    +0.000 A 
ATOM     32  C   UNL     1      11.701  14.275  19.456  0.00  0.00    +0.000 A 
ATOM     33  C   UNL     1      10.862  13.257  19.966  0.00  0.00    +0.000 A 
ENDBRANCH  23  24
ENDBRANCH  12  23
TORSDOF 4
ENDMDL
