MODEL 1
REMARK VINA RESULT:      -8.3      0.000      0.000
REMARK  Name = 
REMARK  4 active torsions:
REMARK  status: ('A' for Active; 'I' for Inactive)
REMARK    1  A    between atoms: C_2  and  O_3
REMARK    2  A    between atoms: C_2  and  C_4
REMARK    3  A    between atoms: C_4  and  N_5
REMARK    4  A    between atoms: C_17  and  C_19
REMARK                            x       y       z     vdW  Elec       q    Type
REMARK                         _______ _______ _______ _____ _____    ______ ____
ROOT
ATOM      1  N   UNL     1       1.952   4.726  19.590  0.00  0.00    +0.000 N 
ATOM      2  C   UNL     1       2.001   6.101  19.612  0.00  0.00    +0.000 A 
ATOM      3  C   UNL     1       2.786   6.577  18.569  0.00  0.00    +0.000 A 
ATOM      4  C   UNL     1       3.404   5.365  17.997  0.00  0.00    +0.000 A 
ATOM      5  C   UNL     1       4.382   5.079  17.005  0.00  0.00    +0.000 A 
ATOM      6  C   UNL     1       4.714   3.739  16.690  0.00  0.00    +0.000 A 
ATOM      7 CL   UNL     1       5.926   3.411  15.506  0.00  0.00    +0.000 Cl
ATOM      8  C   UNL     1       4.106   2.670  17.319  0.00  0.00    +0.000 A 
ATOM      9  C   UNL     1       3.156   2.904  18.310  0.00  0.00    +0.000 A 
ATOM     10  C   UNL     1       2.837   4.250  18.644  0.00  0.00    +0.000 A 
ATOM     11  C   UNL     1       2.922   8.129  18.253  0.00  0.00    +0.000 C 
ATOM     12  N   UNL     1       1.949   8.954  19.105  0.00  0.00    +0.000 N 
ATOM     13  C   UNL     1       1.341  10.285  18.719  0.00  0.00    +0.000 C 
ATOM     14  O   UNL     1       1.852  11.004  17.896  0.00  0.00    +0.000 OA
ATOM     15  C   UNL     1       1.855   8.435  20.494  0.00  0.00    +0.000 C 
ATOM     16  C   UNL     1       1.273   6.991  20.566  0.00  0.00    +0.000 C 
ENDROOT
BRANCH  13  17
ATOM     17  C   UNL     1      -0.149  10.583  19.242  0.00  0.00    +0.000 A 
ATOM     18  C   UNL     1      -0.894  10.546  18.080  0.00  0.00    +0.000 A 
ATOM     19  C   UNL     1      -2.229  10.362  18.209  0.00  0.00    +0.000 A 
ATOM     20  C   UNL     1      -2.696  11.486  18.817  0.00  0.00    +0.000 A 
ATOM     21  C   UNL     1      -2.162  11.777  20.039  0.00  0.00    +0.000 A 
ATOM     22  C   UNL     1      -3.011  12.616  20.781  0.00  0.00    +0.000 A 
ATOM     23  C   UNL     1      -2.902  12.685  22.143  0.00  0.00    +0.000 A 
ATOM     24  C   UNL     1      -1.883  11.951  22.735  0.00  0.00    +0.000 A 
ATOM     25  C   UNL     1      -0.887  11.271  21.939  0.00  0.00    +0.000 A 
ATOM     26  C   UNL     1      -0.952  11.152  20.457  0.00  0.00    +0.000 A 
ENDBRANCH  13  17
BRANCH   1  27
ATOM     27  C   UNL     1       1.059   3.849  20.355  0.00  0.00    +0.000 C 
BRANCH  27  29
ATOM     28  O   UNL     1       2.816   3.377  21.914  0.00  0.00    +0.000 OA
ATOM     29  C   UNL     1       1.640   3.199  21.597  0.00  0.00    +0.000 C 
BRANCH  29  30
ATOM     30  O   UNL     1       0.840   2.401  22.314  0.00  0.00    +0.000 OA
ATOM     31  H   UNL     1       0.529   1.587  21.871  0.00  0.00    +0.000 HD
ENDBRANCH  29  30
ENDBRANCH  27  29
ENDBRANCH   1  27
TORSDOF 4
ENDMDL
MODEL 2
REMARK VINA RESULT:      -8.1      5.373     10.134
REMARK  Name = 
REMARK  4 active torsions:
REMARK  status: ('A' for Active; 'I' for Inactive)
REMARK    1  A    between atoms: C_2  and  O_3
REMARK    2  A    between atoms: C_2  and  C_4
REMARK    3  A    between atoms: C_4  and  N_5
REMARK    4  A    between atoms: C_17  and  C_19
REMARK                            x       y       z     vdW  Elec       q    Type
REMARK                         _______ _______ _______ _____ _____    ______ ____
ROOT
ATOM      1  N   UNL     1      -5.699  12.240  19.505  0.00  0.00    +0.000 N 
ATOM      2  C   UNL     1      -4.325  12.320  19.551  0.00  0.00    +0.000 A 
ATOM      3  C   UNL     1      -3.923  13.263  20.489  0.00  0.00    +0.000 A 
ATOM      4  C   UNL     1      -5.175  13.929  20.895  0.00  0.00    +0.000 A 
ATOM      5  C   UNL     1      -5.534  15.036  21.712  0.00  0.00    +0.000 A 
ATOM      6  C   UNL     1      -6.896  15.378  21.900  0.00  0.00    +0.000 A 
ATOM      7 CL   UNL     1      -7.311  16.744  22.870  0.00  0.00    +0.000 Cl
ATOM      8  C   UNL     1      -7.916  14.656  21.313  0.00  0.00    +0.000 A 
ATOM      9  C   UNL     1      -7.611  13.576  20.489  0.00  0.00    +0.000 A 
ATOM     10  C   UNL     1      -6.243  13.244  20.281  0.00  0.00    +0.000 A 
ATOM     11  C   UNL     1      -2.394  13.483  20.864  0.00  0.00    +0.000 C 
ATOM     12  N   UNL     1      -1.505  12.416  20.214  0.00  0.00    +0.000 N 
ATOM     13  C   UNL     1      -0.189  11.906  20.759  0.00  0.00    +0.000 C 
ATOM     14  O   UNL     1       0.473  12.551  21.533  0.00  0.00    +0.000 OA
ATOM     15  C   UNL     1      -1.942  12.103  18.829  0.00  0.00    +0.000 C 
ATOM     16  C   UNL     1      -3.370  11.481  18.766  0.00  0.00    +0.000 C 
ENDROOT
BRANCH  13  17
ATOM     17  C   UNL     1       0.163  10.362  20.481  0.00  0.00    +0.000 A 
ATOM     18  C   UNL     1      -0.166   9.754  21.677  0.00  0.00    +0.000 A 
ATOM     19  C   UNL     1      -0.367   8.416  21.653  0.00  0.00    +0.000 A 
ATOM     20  C   UNL     1       0.848   7.869  21.375  0.00  0.00    +0.000 A 
ATOM     21  C   UNL     1       1.429   8.257  20.202  0.00  0.00    +0.000 A 
ATOM     22  C   UNL     1       2.382   7.318  19.770  0.00  0.00    +0.000 A 
ATOM     23  C   UNL     1       2.764   7.272  18.456  0.00  0.00    +0.000 A 
ATOM     24  C   UNL     1       2.223   8.226  17.605  0.00  0.00    +0.000 A 
ATOM     25  C   UNL     1       1.419   9.314  18.111  0.00  0.00    +0.000 A 
ATOM     26  C   UNL     1       0.962   9.419  19.524  0.00  0.00    +0.000 A 
ENDBRANCH  13  17
BRANCH   1  27
ATOM     27  C   UNL     1      -6.515  11.222  18.836  0.00  0.00    +0.000 C 
BRANCH  27  29
ATOM     28  O   UNL     1      -7.191  10.215  20.902  0.00  0.00    +0.000 OA
ATOM     29  C   UNL     1      -7.008  10.071  19.694  0.00  0.00    +0.000 C 
BRANCH  29  30
ATOM     30  O   UNL     1      -7.206   8.890  19.096  0.00  0.00    +0.000 OA
ATOM     31  H   UNL     1      -7.508   8.159  19.670  0.00  0.00    +0.000 HD
ENDBRANCH  29  30
ENDBRANCH  27  29
ENDBRANCH   1  27
TORSDOF 4
ENDMDL
MODEL 3
REMARK VINA RESULT:      -8.0      3.895      9.097
REMARK  Name = 
REMARK  4 active torsions:
REMARK  status: ('A' for Active; 'I' for Inactive)
REMARK    1  A    between atoms: C_2  and  O_3
REMARK    2  A    between atoms: C_2  and  C_4
REMARK    3  A    between atoms: C_4  and  N_5
REMARK    4  A    between atoms: C_17  and  C_19
REMARK                            x       y       z     vdW  Elec       q    Type
REMARK                         _______ _______ _______ _____ _____    ______ ____
ROOT
ATOM      1  N   UNL     1      -2.733  10.310  17.332  0.00  0.00    +0.000 N 
ATOM      2  C   UNL     1      -1.529  10.153  17.981  0.00  0.00    +0.000 A 
ATOM      3  C   UNL     1      -1.580  10.725  19.246  0.00  0.00    +0.000 A 
ATOM      4  C   UNL     1      -2.868  11.444  19.269  0.00  0.00    +0.000 A 
ATOM      5  C   UNL     1      -3.538  12.325  20.161  0.00  0.00    +0.000 A 
ATOM      6  C   UNL     1      -4.831  12.815  19.850  0.00  0.00    +0.000 A 
ATOM      7 CL   UNL     1      -5.616  13.909  20.929  0.00  0.00    +0.000 Cl
ATOM      8  C   UNL     1      -5.486  12.456  18.688  0.00  0.00    +0.000 A 
ATOM      9  C   UNL     1      -4.859  11.610  17.777  0.00  0.00    +0.000 A 
ATOM     10  C   UNL     1      -3.552  11.134  18.077  0.00  0.00    +0.000 A 
ATOM     11  C   UNL     1      -0.384  10.586  20.284  0.00  0.00    +0.000 C 
ATOM     12  N   UNL     1       0.684   9.612  19.772  0.00  0.00    +0.000 N 
ATOM     13  C   UNL     1       1.600   8.768  20.631  0.00  0.00    +0.000 C 
ATOM     14  O   UNL     1       1.850   9.061  21.774  0.00  0.00    +0.000 OA
ATOM     15  C   UNL     1       0.918   9.766  18.313  0.00  0.00    +0.000 C 
ATOM     16  C   UNL     1      -0.337   9.422  17.455  0.00  0.00    +0.000 C 
ENDROOT
BRANCH  13  17
ATOM     17  C   UNL     1       2.012   7.325  20.055  0.00  0.00    +0.000 A 
ATOM     18  C   UNL     1       1.528   6.462  21.019  0.00  0.00    +0.000 A 
ATOM     19  C   UNL     1       1.354   5.170  20.658  0.00  0.00    +0.000 A 
ATOM     20  C   UNL     1       2.604   4.681  20.433  0.00  0.00    +0.000 A 
ATOM     21  C   UNL     1       3.338   5.321  19.476  0.00  0.00    +0.000 A 
ATOM     22  C   UNL     1       4.356   4.491  18.975  0.00  0.00    +0.000 A 
ATOM     23  C   UNL     1       4.919   4.744  17.753  0.00  0.00    +0.000 A 
ATOM     24  C   UNL     1       4.488   5.879  17.080  0.00  0.00    +0.000 A 
ATOM     25  C   UNL     1       3.604   6.834  17.707  0.00  0.00    +0.000 A 
ATOM     26  C   UNL     1       2.952   6.617  19.027  0.00  0.00    +0.000 A 
ENDBRANCH  13  17
BRANCH   1  27
ATOM     27  C   UNL     1      -3.175   9.659  16.094  0.00  0.00    +0.000 C 
BRANCH  27  29
ATOM     28  O   UNL     1      -2.629   9.935  13.778  0.00  0.00    +0.000 OA
ATOM     29  C   UNL     1      -3.035  10.461  14.813  0.00  0.00    +0.000 C 
BRANCH  29  30
ATOM     30  O   UNL     1      -3.337  11.764  14.859  0.00  0.00    +0.000 OA
ATOM     31  H   UNL     1      -4.196  11.996  15.264  0.00  0.00    +0.000 HD
ENDBRANCH  29  30
ENDBRANCH  27  29
ENDBRANCH   1  27
TORSDOF 4
ENDMDL
MODEL 4
REMARK VINA RESULT:      -7.9      3.751      8.470
REMARK  Name = 
REMARK  4 active torsions:
REMARK  status: ('A' for Active; 'I' for Inactive)
REMARK    1  A    between atoms: C_2  and  O_3
REMARK    2  A    between atoms: C_2  and  C_4
REMARK    3  A    between atoms: C_4  and  N_5
REMARK    4  A    between atoms: C_17  and  C_19
REMARK                            x       y       z     vdW  Elec       q    Type
REMARK                         _______ _______ _______ _____ _____    ______ ____
ROOT
ATOM      1  N   UNL     1       0.004  12.282  20.049  0.00  0.00    +0.000 N 
ATOM      2  C   UNL     1       0.487  11.264  19.258  0.00  0.00    +0.000 A 
ATOM      3  C   UNL     1       1.698  11.628  18.682  0.00  0.00    +0.000 A 
ATOM      4  C   UNL     1       1.844  13.057  19.017  0.00  0.00    +0.000 A 
ATOM      5  C   UNL     1       2.749  14.104  18.687  0.00  0.00    +0.000 A 
ATOM      6  C   UNL     1       2.585  15.396  19.243  0.00  0.00    +0.000 A 
ATOM      7 CL   UNL     1       3.673  16.663  18.806  0.00  0.00    +0.000 Cl
ATOM      8  C   UNL     1       1.559  15.687  20.120  0.00  0.00    +0.000 A 
ATOM      9  C   UNL     1       0.639  14.698  20.456  0.00  0.00    +0.000 A 
ATOM     10  C   UNL     1       0.788  13.405  19.882  0.00  0.00    +0.000 A 
ATOM     11  C   UNL     1       2.566  10.609  17.824  0.00  0.00    +0.000 C 
ATOM     12  N   UNL     1       1.988   9.191  17.898  0.00  0.00    +0.000 N 
ATOM     13  C   UNL     1       2.774   7.904  17.768  0.00  0.00    +0.000 C 
ATOM     14  O   UNL     1       3.843   7.866  17.212  0.00  0.00    +0.000 OA
ATOM     15  C   UNL     1       0.503   9.197  17.853  0.00  0.00    +0.000 C 
ATOM     16  C   UNL     1      -0.141   9.920  19.074  0.00  0.00    +0.000 C 
ENDROOT
BRANCH  13  17
ATOM     17  C   UNL     1       2.262   6.649  18.631  0.00  0.00    +0.000 A 
ATOM     18  C   UNL     1       2.224   7.156  19.915  0.00  0.00    +0.000 A 
ATOM     19  C   UNL     1       1.465   6.491  20.817  0.00  0.00    +0.000 A 
ATOM     20  C   UNL     1       2.080   5.291  20.999  0.00  0.00    +0.000 A 
ATOM     21  C   UNL     1       2.232   4.518  19.884  0.00  0.00    +0.000 A 
ATOM     22  C   UNL     1       2.402   3.163  20.220  0.00  0.00    +0.000 A 
ATOM     23  C   UNL     1       2.145   2.182  19.302  0.00  0.00    +0.000 A 
ATOM     24  C   UNL     1       1.783   2.589  18.025  0.00  0.00    +0.000 A 
ATOM     25  C   UNL     1       1.828   3.980  17.639  0.00  0.00    +0.000 A 
ATOM     26  C   UNL     1       2.091   5.095  18.589  0.00  0.00    +0.000 A 
ENDBRANCH  13  17
BRANCH   1  27
ATOM     27  C   UNL     1      -1.104  12.222  21.008  0.00  0.00    +0.000 C 
BRANCH  27  29
ATOM     28  O   UNL     1      -1.119  12.731  23.349  0.00  0.00    +0.000 OA
ATOM     29  C   UNL     1      -0.739  11.971  22.460  0.00  0.00    +0.000 C 
BRANCH  29  30
ATOM     30  O   UNL     1       0.037  10.915  22.732  0.00  0.00    +0.000 OA
ATOM     31  H   UNL     1      -0.045  10.536  23.629  0.00  0.00    +0.000 HD
ENDBRANCH  29  30
ENDBRANCH  27  29
ENDBRANCH   1  27
TORSDOF 4
ENDMDL
MODEL 5
REMARK VINA RESULT:      -7.8      3.826      8.870
REMARK  Name = 
REMARK  4 active torsions:
REMARK  status: ('A' for Active; 'I' for Inactive)
REMARK    1  A    between atoms: C_2  and  O_3
REMARK    2  A    between atoms: C_2  and  C_4
REMARK    3  A    between atoms: C_4  and  N_5
REMARK    4  A    between atoms: C_17  and  C_19
REMARK                            x       y       z     vdW  Elec       q    Type
REMARK                         _______ _______ _______ _____ _____    ______ ____
ROOT
ATOM      1  N   UNL     1      -2.666  10.284  17.429  0.00  0.00    +0.000 N 
ATOM      2  C   UNL     1      -1.438  10.082  18.017  0.00  0.00    +0.000 A 
ATOM      3  C   UNL     1      -1.416  10.621  19.297  0.00  0.00    +0.000 A 
ATOM      4  C   UNL     1      -2.682  11.370  19.398  0.00  0.00    +0.000 A 
ATOM      5  C   UNL     1      -3.289  12.245  20.342  0.00  0.00    +0.000 A 
ATOM      6  C   UNL     1      -4.581  12.773  20.103  0.00  0.00    +0.000 A 
ATOM      7 CL   UNL     1      -5.288  13.858  21.245  0.00  0.00    +0.000 Cl
ATOM      8  C   UNL     1      -5.298  12.461  18.965  0.00  0.00    +0.000 A 
ATOM      9  C   UNL     1      -4.735  11.624  18.005  0.00  0.00    +0.000 A 
ATOM     10  C   UNL     1      -3.428  11.109  18.231  0.00  0.00    +0.000 A 
ATOM     11  C   UNL     1      -0.178  10.426  20.275  0.00  0.00    +0.000 C 
ATOM     12  N   UNL     1       0.840   9.440  19.689  0.00  0.00    +0.000 N 
ATOM     13  C   UNL     1       1.773   8.552  20.484  0.00  0.00    +0.000 C 
ATOM     14  O   UNL     1       2.082   8.809  21.621  0.00  0.00    +0.000 OA
ATOM     15  C   UNL     1       1.011   9.627  18.226  0.00  0.00    +0.000 C 
ATOM     16  C   UNL     1      -0.290   9.335  17.419  0.00  0.00    +0.000 C 
ENDROOT
BRANCH  13  17
ATOM     17  C   UNL     1       2.121   7.115  19.853  0.00  0.00    +0.000 A 
ATOM     18  C   UNL     1       2.754   7.445  18.671  0.00  0.00    +0.000 A 
ATOM     19  C   UNL     1       3.522   6.490  18.096  0.00  0.00    +0.000 A 
ATOM     20  C   UNL     1       2.658   5.516  17.699  0.00  0.00    +0.000 A 
ATOM     21  C   UNL     1       1.898   4.950  18.681  0.00  0.00    +0.000 A 
ATOM     22  C   UNL     1       1.432   3.680  18.298  0.00  0.00    +0.000 A 
ATOM     23  C   UNL     1       1.034   2.773  19.241  0.00  0.00    +0.000 A 
ATOM     24  C   UNL     1       1.047   3.189  20.566  0.00  0.00    +0.000 A 
ATOM     25  C   UNL     1       1.318   4.563  20.919  0.00  0.00    +0.000 A 
ATOM     26  C   UNL     1       1.764   5.595  19.944  0.00  0.00    +0.000 A 
ENDBRANCH  13  17
BRANCH   1  27
ATOM     27  C   UNL     1      -3.181   9.677  16.198  0.00  0.00    +0.000 C 
BRANCH  27  29
ATOM     28  O   UNL     1      -2.603   9.966  13.890  0.00  0.00    +0.000 OA
ATOM     29  C   UNL     1      -3.028  10.486  14.922  0.00  0.00    +0.000 C 
BRANCH  29  30
ATOM     30  O   UNL     1      -3.339  11.786  14.969  0.00  0.00    +0.000 OA
ATOM     31  H   UNL     1      -3.609  12.198  14.125  0.00  0.00    +0.000 HD
ENDBRANCH  29  30
ENDBRANCH  27  29
ENDBRANCH   1  27
TORSDOF 4
ENDMDL
MODEL 6
REMARK VINA RESULT:      -7.6      3.751      8.693
REMARK  Name = 
REMARK  4 active torsions:
REMARK  status: ('A' for Active; 'I' for Inactive)
REMARK    1  A    between atoms: C_2  and  O_3
REMARK    2  A    between atoms: C_2  and  C_4
REMARK    3  A    between atoms: C_4  and  N_5
REMARK    4  A    between atoms: C_17  and  C_19
REMARK                            x       y       z     vdW  Elec       q    Type
REMARK                         _______ _______ _______ _____ _____    ______ ____
ROOT
ATOM      1  N   UNL     1      -0.117  12.301  19.876  0.00  0.00    +0.000 N 
ATOM      2  C   UNL     1       0.424  11.281  19.127  0.00  0.00    +0.000 A 
ATOM      3  C   UNL     1       1.664  11.654  18.622  0.00  0.00    +0.000 A 
ATOM      4  C   UNL     1       1.774  13.087  18.950  0.00  0.00    +0.000 A 
ATOM      5  C   UNL     1       2.687  14.141  18.664  0.00  0.00    +0.000 A 
ATOM      6  C   UNL     1       2.475  15.437  19.195  0.00  0.00    +0.000 A 
ATOM      7 CL   UNL     1       3.575  16.711  18.812  0.00  0.00    +0.000 Cl
ATOM      8  C   UNL     1       1.394  15.725  20.006  0.00  0.00    +0.000 A 
ATOM      9  C   UNL     1       0.466  14.729  20.296  0.00  0.00    +0.000 A 
ATOM     10  C   UNL     1       0.664  13.431  19.746  0.00  0.00    +0.000 A 
ATOM     11  C   UNL     1       2.593  10.636  17.829  0.00  0.00    +0.000 C 
ATOM     12  N   UNL     1       2.026   9.212  17.883  0.00  0.00    +0.000 N 
ATOM     13  C   UNL     1       2.833   7.933  17.814  0.00  0.00    +0.000 C 
ATOM     14  O   UNL     1       3.934   7.901  17.325  0.00  0.00    +0.000 OA
ATOM     15  C   UNL     1       0.547   9.201  17.748  0.00  0.00    +0.000 C 
ATOM     16  C   UNL     1      -0.177   9.929  18.919  0.00  0.00    +0.000 C 
ENDROOT
BRANCH  13  17
ATOM     17  C   UNL     1       2.282   6.680  18.658  0.00  0.00    +0.000 A 
ATOM     18  C   UNL     1       2.201   7.187  19.940  0.00  0.00    +0.000 A 
ATOM     19  C   UNL     1       1.406   6.527  20.814  0.00  0.00    +0.000 A 
ATOM     20  C   UNL     1       2.007   5.323  21.017  0.00  0.00    +0.000 A 
ATOM     21  C   UNL     1       2.195   4.550  19.908  0.00  0.00    +0.000 A 
ATOM     22  C   UNL     1       2.344   3.194  20.251  0.00  0.00    +0.000 A 
ATOM     23  C   UNL     1       2.115   2.215  19.323  0.00  0.00    +0.000 A 
ATOM     24  C   UNL     1       1.802   2.624  18.034  0.00  0.00    +0.000 A 
ATOM     25  C   UNL     1       1.869   4.015  17.650  0.00  0.00    +0.000 A 
ATOM     26  C   UNL     1       2.104   5.128  18.609  0.00  0.00    +0.000 A 
ENDBRANCH  13  17
BRANCH   1  27
ATOM     27  C   UNL     1      -1.281  12.239  20.767  0.00  0.00    +0.000 C 
BRANCH  27  29
ATOM     28  O   UNL     1      -3.412  13.330  20.850  0.00  0.00    +0.000 OA
ATOM     29  C   UNL     1      -2.612  12.676  20.182  0.00  0.00    +0.000 C 
BRANCH  29  30
ATOM     30  O   UNL     1      -2.896  12.298  18.930  0.00  0.00    +0.000 OA
ATOM     31  H   UNL     1      -2.153  12.308  18.296  0.00  0.00    +0.000 HD
ENDBRANCH  29  30
ENDBRANCH  27  29
ENDBRANCH   1  27
TORSDOF 4
ENDMDL
MODEL 7
REMARK VINA RESULT:      -7.4      4.334      9.342
REMARK  Name = 
REMARK  4 active torsions:
REMARK  status: ('A' for Active; 'I' for Inactive)
REMARK    1  A    between atoms: C_2  and  O_3
REMARK    2  A    between atoms: C_2  and  C_4
REMARK    3  A    between atoms: C_4  and  N_5
REMARK    4  A    between atoms: C_17  and  C_19
REMARK                            x       y       z     vdW  Elec       q    Type
REMARK                         _______ _______ _______ _____ _____    ______ ____
ROOT
ATOM      1  N   UNL     1      -3.745  11.284  18.156  0.00  0.00    +0.000 N 
ATOM      2  C   UNL     1      -2.453  11.186  18.622  0.00  0.00    +0.000 A 
ATOM      3  C   UNL     1      -2.334  11.805  19.860  0.00  0.00    +0.000 A 
ATOM      4  C   UNL     1      -3.627  12.489  20.050  0.00  0.00    +0.000 A 
ATOM      5  C   UNL     1      -4.186  13.386  21.002  0.00  0.00    +0.000 A 
ATOM      6  C   UNL     1      -5.525  13.828  20.871  0.00  0.00    +0.000 A 
ATOM      7 CL   UNL     1      -6.177  14.942  22.017  0.00  0.00    +0.000 Cl
ATOM      8  C   UNL     1      -6.334  13.406  19.833  0.00  0.00    +0.000 A 
ATOM      9  C   UNL     1      -5.822  12.543  18.868  0.00  0.00    +0.000 A 
ATOM     10  C   UNL     1      -4.470  12.115  18.985  0.00  0.00    +0.000 A 
ATOM     11  C   UNL     1      -0.994  11.739  20.712  0.00  0.00    +0.000 C 
ATOM     12  N   UNL     1       0.018  10.775  20.080  0.00  0.00    +0.000 N 
ATOM     13  C   UNL     1       1.078   9.990  20.821  0.00  0.00    +0.000 C 
ATOM     14  O   UNL     1       1.485  10.334  21.903  0.00  0.00    +0.000 OA
ATOM     15  C   UNL     1       0.027  10.878  18.598  0.00  0.00    +0.000 C 
ATOM     16  C   UNL     1      -1.329  10.467  17.950  0.00  0.00    +0.000 C 
ENDROOT
BRANCH  13  17
ATOM     17  C   UNL     1       1.447   8.537  20.240  0.00  0.00    +0.000 A 
ATOM     18  C   UNL     1       1.011   7.689  21.239  0.00  0.00    +0.000 A 
ATOM     19  C   UNL     1       0.808   6.394  20.903  0.00  0.00    +0.000 A 
ATOM     20  C   UNL     1       2.040   5.893  20.616  0.00  0.00    +0.000 A 
ATOM     21  C   UNL     1       2.723   6.516  19.611  0.00  0.00    +0.000 A 
ATOM     22  C   UNL     1       3.707   5.673  19.064  0.00  0.00    +0.000 A 
ATOM     23  C   UNL     1       4.202   5.907  17.810  0.00  0.00    +0.000 A 
ATOM     24  C   UNL     1       3.742   7.038  17.148  0.00  0.00    +0.000 A 
ATOM     25  C   UNL     1       2.901   8.007  17.812  0.00  0.00    +0.000 A 
ATOM     26  C   UNL     1       2.323   7.809  19.169  0.00  0.00    +0.000 A 
ENDBRANCH  13  17
BRANCH   1  27
ATOM     27  C   UNL     1      -4.344  10.574  17.021  0.00  0.00    +0.000 C 
BRANCH  27  29
ATOM     28  O   UNL     1      -3.218   9.491  15.205  0.00  0.00    +0.000 OA
ATOM     29  C   UNL     1      -3.546  10.554  15.730  0.00  0.00    +0.000 C 
BRANCH  29  30
ATOM     30  O   UNL     1      -3.187  11.731  15.203  0.00  0.00    +0.000 OA
ATOM     31  H   UNL     1      -3.914  12.346  14.981  0.00  0.00    +0.000 HD
ENDBRANCH  29  30
ENDBRANCH  27  29
ENDBRANCH   1  27
TORSDOF 4
ENDMDL
MODEL 8
REMARK VINA RESULT:      -7.3      4.096      9.135
REMARK  Name = 
REMARK  4 active torsions:
REMARK  status: ('A' for Active; 'I' for Inactive)
REMARK    1  A    between atoms: C_2  and  O_3
REMARK    2  A    between atoms: C_2  and  C_4
REMARK    3  A    between atoms: C_4  and  N_5
REMARK    4  A    between atoms: C_17  and  C_19
REMARK                            x       y       z     vdW  Elec       q    Type
REMARK                         _______ _______ _______ _____ _____    ______ ____
ROOT
ATOM      1  N   UNL     1      -2.737  11.771  18.751  0.00  0.00    +0.000 N 
ATOM      2  C   UNL     1      -1.540  11.368  19.299  0.00  0.00    +0.000 A 
ATOM      3  C   UNL     1      -1.533  11.590  20.670  0.00  0.00    +0.000 A 
ATOM      4  C   UNL     1      -2.764  12.364  20.920  0.00  0.00    +0.000 A 
ATOM      5  C   UNL     1      -3.357  13.025  22.031  0.00  0.00    +0.000 A 
ATOM      6  C   UNL     1      -4.613  13.665  21.898  0.00  0.00    +0.000 A 
ATOM      7 CL   UNL     1      -5.303  14.489  23.249  0.00  0.00    +0.000 Cl
ATOM      8  C   UNL     1      -5.307  13.669  20.704  0.00  0.00    +0.000 A 
ATOM      9  C   UNL     1      -4.755  13.051  19.585  0.00  0.00    +0.000 A 
ATOM     10  C   UNL     1      -3.483  12.425  19.710  0.00  0.00    +0.000 A 
ATOM     11  C   UNL     1      -0.339  11.103  21.599  0.00  0.00    +0.000 C 
ATOM     12  N   UNL     1       0.648  10.226  20.818  0.00  0.00    +0.000 N 
ATOM     13  C   UNL     1       1.509   9.126  21.399  0.00  0.00    +0.000 C 
ATOM     14  O   UNL     1       1.794   9.091  22.570  0.00  0.00    +0.000 OA
ATOM     15  C   UNL     1       0.875  10.741  19.443  0.00  0.00    +0.000 C 
ATOM     16  C   UNL     1      -0.411  10.720  18.564  0.00  0.00    +0.000 C 
ENDROOT
BRANCH  13  17
ATOM     17  C   UNL     1       1.807   7.860  20.454  0.00  0.00    +0.000 A 
ATOM     18  C   UNL     1       1.438   6.792  21.249  0.00  0.00    +0.000 A 
ATOM     19  C   UNL     1       1.187   5.618  20.626  0.00  0.00    +0.000 A 
ATOM     20  C   UNL     1       2.384   5.206  20.126  0.00  0.00    +0.000 A 
ATOM     21  C   UNL     1       2.995   6.057  19.251  0.00  0.00    +0.000 A 
ATOM     22  C   UNL     1       3.918   5.376  18.437  0.00  0.00    +0.000 A 
ATOM     23  C   UNL     1       4.315   5.911  17.242  0.00  0.00    +0.000 A 
ATOM     24  C   UNL     1       3.823   7.167  16.915  0.00  0.00    +0.000 A 
ATOM     25  C   UNL     1       3.054   7.942  17.860  0.00  0.00    +0.000 A 
ATOM     26  C   UNL     1       2.583   7.418  19.171  0.00  0.00    +0.000 A 
ENDBRANCH  13  17
BRANCH   1  27
ATOM     27  C   UNL     1      -3.241  11.499  17.401  0.00  0.00    +0.000 C 
BRANCH  27  29
ATOM     28  O   UNL     1      -3.701   9.189  17.835  0.00  0.00    +0.000 OA
ATOM     29  C   UNL     1      -3.384  10.041  17.006  0.00  0.00    +0.000 C 
BRANCH  29  30
ATOM     30  O   UNL     1      -3.122   9.712  15.735  0.00  0.00    +0.000 OA
ATOM     31  H   UNL     1      -2.824  10.437  15.153  0.00  0.00    +0.000 HD
ENDBRANCH  29  30
ENDBRANCH  27  29
ENDBRANCH   1  27
TORSDOF 4
ENDMDL
MODEL 9
REMARK VINA RESULT:      -7.2      3.344      8.942
REMARK  Name = 
REMARK  4 active torsions:
REMARK  status: ('A' for Active; 'I' for Inactive)
REMARK    1  A    between atoms: C_2  and  O_3
REMARK    2  A    between atoms: C_2  and  C_4
REMARK    3  A    between atoms: C_4  and  N_5
REMARK    4  A    between atoms: C_17  and  C_19
REMARK                            x       y       z     vdW  Elec       q    Type
REMARK                         _______ _______ _______ _____ _____    ______ ____
ROOT
ATOM      1  N   UNL     1      -0.677  11.170  18.863  0.00  0.00    +0.000 N 
ATOM      2  C   UNL     1       0.286  10.267  19.255  0.00  0.00    +0.000 A 
ATOM      3  C   UNL     1       0.090   9.890  20.578  0.00  0.00    +0.000 A 
ATOM      4  C   UNL     1      -0.970  10.795  21.061  0.00  0.00    +0.000 A 
ATOM      5  C   UNL     1      -1.599  11.071  22.306  0.00  0.00    +0.000 A 
ATOM      6  C   UNL     1      -2.643  12.025  22.386  0.00  0.00    +0.000 A 
ATOM      7 CL   UNL     1      -3.373  12.371  23.912  0.00  0.00    +0.000 Cl
ATOM      8  C   UNL     1      -3.091  12.712  21.275  0.00  0.00    +0.000 A 
ATOM      9  C   UNL     1      -2.490  12.487  20.039  0.00  0.00    +0.000 A 
ATOM     10  C   UNL     1      -1.427  11.545  19.959  0.00  0.00    +0.000 A 
ATOM     11  C   UNL     1       0.962   8.757  21.272  0.00  0.00    +0.000 C 
ATOM     12  N   UNL     1       1.863   8.049  20.252  0.00  0.00    +0.000 N 
ATOM     13  C   UNL     1       2.348   6.618  20.338  0.00  0.00    +0.000 C 
ATOM     14  O   UNL     1       2.400   6.026  21.387  0.00  0.00    +0.000 OA
ATOM     15  C   UNL     1       2.442   9.003  19.271  0.00  0.00    +0.000 C 
ATOM     16  C   UNL     1       1.363   9.699  18.388  0.00  0.00    +0.000 C 
ENDROOT
BRANCH  13  17
ATOM     17  C   UNL     1       2.533   5.828  18.950  0.00  0.00    +0.000 A 
ATOM     18  C   UNL     1       1.683   4.750  19.098  0.00  0.00    +0.000 A 
ATOM     19  C   UNL     1       1.299   4.109  17.969  0.00  0.00    +0.000 A 
ATOM     20  C   UNL     1       2.427   3.523  17.480  0.00  0.00    +0.000 A 
ATOM     21  C   UNL     1       3.463   4.363  17.190  0.00  0.00    +0.000 A 
ATOM     22  C   UNL     1       4.350   3.780  16.268  0.00  0.00    +0.000 A 
ATOM     23  C   UNL     1       5.190   4.563  15.523  0.00  0.00    +0.000 A 
ATOM     24  C   UNL     1       5.170   5.928  15.771  0.00  0.00    +0.000 A 
ATOM     25  C   UNL     1       4.415   6.481  16.872  0.00  0.00    +0.000 A 
ATOM     26  C   UNL     1       3.478   5.688  17.713  0.00  0.00    +0.000 A 
ENDBRANCH  13  17
BRANCH   1  27
ATOM     27  C   UNL     1      -0.973  11.629  17.502  0.00  0.00    +0.000 C 
BRANCH  27  29
ATOM     28  O   UNL     1      -2.247   9.693  16.896  0.00  0.00    +0.000 OA
ATOM     29  C   UNL     1      -2.083  10.906  16.763  0.00  0.00    +0.000 C 
BRANCH  29  30
ATOM     30  O   UNL     1      -2.854  11.625  15.939  0.00  0.00    +0.000 OA
ATOM     31  H   UNL     1      -2.388  12.220  15.319  0.00  0.00    +0.000 HD
ENDBRANCH  29  30
ENDBRANCH  27  29
ENDBRANCH   1  27
TORSDOF 4
ENDMDL
