MODEL 1
REMARK VINA RESULT:      -9.2      0.000      0.000
REMARK  Name = 
REMARK  5 active torsions:
REMARK  status: ('A' for Active; 'I' for Inactive)
REMARK    1  A    between atoms: C_1  and  C_2
REMARK    2  A    between atoms: C_4  and  N_5
REMARK    3  A    between atoms: C_6  and  C_8
REMARK    4  A    between atoms: C_10  and  C_11
REMARK    5  A    between atoms: N_22  and  C_23
REMARK                            x       y       z     vdW  Elec       q    Type
REMARK                         _______ _______ _______ _____ _____    ______ ____
ROOT
ATOM      1  N   UNL     1       5.520   6.087  18.269  0.00  0.00    +0.000 N 
ATOM      2  C   UNL     1       6.201   6.798  17.235  0.00  0.00    +0.000 C 
ATOM      3  O   UNL     1       5.838   6.786  16.070  0.00  0.00    +0.000 OA
ATOM      4  H   UNL     1       5.791   6.279  19.232  0.00  0.00    +0.000 HD
ENDROOT
BRANCH   1   8
ATOM      5  C   UNL     1       2.503   2.240  17.350  0.00  0.00    +0.000 C 
ATOM      6  C   UNL     1       3.064   3.576  17.679  0.00  0.00    +0.000 A 
ATOM      7  C   UNL     1       4.410   3.996  17.587  0.00  0.00    +0.000 A 
ATOM      8  C   UNL     1       4.404   5.299  18.024  0.00  0.00    +0.000 A 
ATOM      9  N   UNL     1       3.077   5.627  18.274  0.00  0.00    +0.000 N 
ATOM     10  N   UNL     1       2.270   4.543  18.154  0.00  0.00    +0.000 NA
BRANCH   9  11
ATOM     11  C   UNL     1       2.556   6.909  18.594  0.00  0.00    +0.000 A 
ATOM     12  C   UNL     1       2.103   7.198  19.892  0.00  0.00    +0.000 A 
ATOM     13  C   UNL     1       1.529   8.439  20.174  0.00  0.00    +0.000 A 
ATOM     14  C   UNL     1       1.413   9.394  19.169  0.00  0.00    +0.000 A 
ATOM     15  C   UNL     1       1.905   9.129  17.891  0.00  0.00    +0.000 A 
ATOM     16  C   UNL     1       2.494   7.895  17.604  0.00  0.00    +0.000 A 
ENDBRANCH   9  11
ENDBRANCH   1   8
BRANCH   2  17
ATOM     17  C   UNL     1       7.260   7.603  17.817  0.00  0.00    +0.000 A 
ATOM     18  C   UNL     1       7.493   8.992  17.647  0.00  0.00    +0.000 A 
ATOM     19  C   UNL     1       8.591   9.269  18.428  0.00  0.00    +0.000 A 
ATOM     20  O   UNL     1       8.993   8.110  19.028  0.00  0.00    +0.000 OA
ATOM     21  N   UNL     1       8.158   7.071  18.665  0.00  0.00    +0.000 NA
BRANCH  19  22
ATOM     22  C   UNL     1       9.347  10.473  18.756  0.00  0.00    +0.000 A 
ATOM     23  C   UNL     1       9.644  10.801  20.102  0.00  0.00    +0.000 A 
ATOM     24  C   UNL     1      10.320  11.982  20.432  0.00  0.00    +0.000 A 
ATOM     25  C   UNL     1      10.687  12.823  19.407  0.00  0.00    +0.000 A 
ATOM     26  C   UNL     1      10.423  12.510  18.097  0.00  0.00    +0.000 A 
ATOM     27  C   UNL     1       9.770  11.347  17.739  0.00  0.00    +0.000 A 
ATOM     28  O   UNL     1      10.861  13.469  17.237  0.00  0.00    +0.000 OA
ATOM     29  C   UNL     1      11.369  14.453  18.165  0.00  0.00    +0.000 C 
ATOM     30  O   UNL     1      11.321  14.018  19.540  0.00  0.00    +0.000 OA
ENDBRANCH  19  22
ENDBRANCH   2  17
TORSDOF 4
ENDMDL
MODEL 2
REMARK VINA RESULT:      -9.1      0.713      1.140
REMARK  Name = 
REMARK  5 active torsions:
REMARK  status: ('A' for Active; 'I' for Inactive)
REMARK    1  A    between atoms: C_1  and  C_2
REMARK    2  A    between atoms: C_4  and  N_5
REMARK    3  A    between atoms: C_6  and  C_8
REMARK    4  A    between atoms: C_10  and  C_11
REMARK    5  A    between atoms: N_22  and  C_23
REMARK                            x       y       z     vdW  Elec       q    Type
REMARK                         _______ _______ _______ _____ _____    ______ ____
ROOT
ATOM      1  N   UNL     1       5.484   6.207  18.283  0.00  0.00    +0.000 N 
ATOM      2  C   UNL     1       6.254   6.709  17.191  0.00  0.00    +0.000 C 
ATOM      3  O   UNL     1       6.003   6.450  16.026  0.00  0.00    +0.000 OA
ATOM      4  H   UNL     1       5.661   6.598  19.207  0.00  0.00    +0.000 HD
ENDROOT
BRANCH   1   8
ATOM      5  C   UNL     1       2.636   2.190  17.573  0.00  0.00    +0.000 C 
ATOM      6  C   UNL     1       3.140   3.559  17.853  0.00  0.00    +0.000 A 
ATOM      7  C   UNL     1       4.455   4.048  17.689  0.00  0.00    +0.000 A 
ATOM      8  C   UNL     1       4.401   5.356  18.105  0.00  0.00    +0.000 A 
ATOM      9  N   UNL     1       3.072   5.618  18.413  0.00  0.00    +0.000 N 
ATOM     10  N   UNL     1       2.319   4.491  18.349  0.00  0.00    +0.000 NA
BRANCH   9  11
ATOM     11  C   UNL     1       2.498   6.877  18.737  0.00  0.00    +0.000 A 
ATOM     12  C   UNL     1       2.078   7.161  20.047  0.00  0.00    +0.000 A 
ATOM     13  C   UNL     1       1.454   8.375  20.336  0.00  0.00    +0.000 A 
ATOM     14  C   UNL     1       1.253   9.310  19.325  0.00  0.00    +0.000 A 
ATOM     15  C   UNL     1       1.711   9.053  18.032  0.00  0.00    +0.000 A 
ATOM     16  C   UNL     1       2.351   7.845  17.739  0.00  0.00    +0.000 A 
ENDBRANCH   9  11
ENDBRANCH   1   8
BRANCH   2  17
ATOM     17  C   UNL     1       7.248   7.643  17.690  0.00  0.00    +0.000 A 
ATOM     18  C   UNL     1       7.376   9.023  17.387  0.00  0.00    +0.000 A 
ATOM     19  C   UNL     1       8.449   9.454  18.133  0.00  0.00    +0.000 A 
ATOM     20  O   UNL     1       8.935   8.392  18.839  0.00  0.00    +0.000 OA
ATOM     21  N   UNL     1       8.181   7.263  18.580  0.00  0.00    +0.000 NA
BRANCH  19  22
ATOM     22  C   UNL     1       9.111  10.738  18.342  0.00  0.00    +0.000 A 
ATOM     23  C   UNL     1       8.625  11.915  17.721  0.00  0.00    +0.000 A 
ATOM     24  C   UNL     1       9.283  13.142  17.869  0.00  0.00    +0.000 A 
ATOM     25  C   UNL     1      10.426  13.173  18.634  0.00  0.00    +0.000 A 
ATOM     26  C   UNL     1      10.899  12.044  19.257  0.00  0.00    +0.000 A 
ATOM     27  C   UNL     1      10.264  10.823  19.141  0.00  0.00    +0.000 A 
ATOM     28  O   UNL     1      12.039  12.280  19.961  0.00  0.00    +0.000 OA
ATOM     29  C   UNL     1      12.264  13.673  19.652  0.00  0.00    +0.000 C 
ATOM     30  O   UNL     1      11.208  14.260  18.864  0.00  0.00    +0.000 OA
ENDBRANCH  19  22
ENDBRANCH   2  17
TORSDOF 4
ENDMDL
MODEL 3
REMARK VINA RESULT:      -9.0      0.600      1.080
REMARK  Name = 
REMARK  5 active torsions:
REMARK  status: ('A' for Active; 'I' for Inactive)
REMARK    1  A    between atoms: C_1  and  C_2
REMARK    2  A    between atoms: C_4  and  N_5
REMARK    3  A    between atoms: C_6  and  C_8
REMARK    4  A    between atoms: C_10  and  C_11
REMARK    5  A    between atoms: N_22  and  C_23
REMARK                            x       y       z     vdW  Elec       q    Type
REMARK                         _______ _______ _______ _____ _____    ______ ____
ROOT
ATOM      1  N   UNL     1       5.566   6.031  18.254  0.00  0.00    +0.000 N 
ATOM      2  C   UNL     1       6.159   6.776  17.191  0.00  0.00    +0.000 C 
ATOM      3  O   UNL     1       5.750   6.737  16.043  0.00  0.00    +0.000 OA
ATOM      4  H   UNL     1       5.865   6.244  19.205  0.00  0.00    +0.000 HD
ENDROOT
BRANCH   1   8
ATOM      5  C   UNL     1       2.743   2.002  17.516  0.00  0.00    +0.000 C 
ATOM      6  C   UNL     1       3.238   3.375  17.794  0.00  0.00    +0.000 A 
ATOM      7  C   UNL     1       4.556   3.864  17.658  0.00  0.00    +0.000 A 
ATOM      8  C   UNL     1       4.489   5.177  18.058  0.00  0.00    +0.000 A 
ATOM      9  N   UNL     1       3.153   5.440  18.330  0.00  0.00    +0.000 N 
ATOM     10  N   UNL     1       2.403   4.311  18.259  0.00  0.00    +0.000 NA
BRANCH   9  11
ATOM     11  C   UNL     1       2.569   6.701  18.626  0.00  0.00    +0.000 A 
ATOM     12  C   UNL     1       2.429   7.681  17.629  0.00  0.00    +0.000 A 
ATOM     13  C   UNL     1       1.917   8.939  17.950  0.00  0.00    +0.000 A 
ATOM     14  C   UNL     1       1.538   9.221  19.259  0.00  0.00    +0.000 A 
ATOM     15  C   UNL     1       1.630   8.236  20.242  0.00  0.00    +0.000 A 
ATOM     16  C   UNL     1       2.127   6.969  19.925  0.00  0.00    +0.000 A 
ENDBRANCH   9  11
ENDBRANCH   1   8
BRANCH   2  17
ATOM     17  C   UNL     1       7.192   7.645  17.727  0.00  0.00    +0.000 A 
ATOM     18  C   UNL     1       7.343   9.043  17.532  0.00  0.00    +0.000 A 
ATOM     19  C   UNL     1       8.451   9.389  18.271  0.00  0.00    +0.000 A 
ATOM     20  O   UNL     1       8.935   8.262  18.871  0.00  0.00    +0.000 OA
ATOM     21  N   UNL     1       8.146   7.174  18.549  0.00  0.00    +0.000 NA
BRANCH  19  22
ATOM     22  C   UNL     1       9.150  10.636  18.558  0.00  0.00    +0.000 A 
ATOM     23  C   UNL     1      10.158  10.693  19.553  0.00  0.00    +0.000 A 
ATOM     24  C   UNL     1      10.797  11.896  19.876  0.00  0.00    +0.000 A 
ATOM     25  C   UNL     1      10.415  13.031  19.199  0.00  0.00    +0.000 A 
ATOM     26  C   UNL     1       9.454  12.989  18.219  0.00  0.00    +0.000 A 
ATOM     27  C   UNL     1       8.815  11.815  17.870  0.00  0.00    +0.000 A 
ATOM     28  O   UNL     1       9.217  14.213  17.674  0.00  0.00    +0.000 OA
ATOM     29  C   UNL     1      10.091  15.040  18.473  0.00  0.00    +0.000 C 
ATOM     30  O   UNL     1      10.902  14.284  19.397  0.00  0.00    +0.000 OA
ENDBRANCH  19  22
ENDBRANCH   2  17
TORSDOF 4
ENDMDL
MODEL 4
REMARK VINA RESULT:      -8.7      4.275      7.797
REMARK  Name = 
REMARK  5 active torsions:
REMARK  status: ('A' for Active; 'I' for Inactive)
REMARK    1  A    between atoms: C_1  and  C_2
REMARK    2  A    between atoms: C_4  and  N_5
REMARK    3  A    between atoms: C_6  and  C_8
REMARK    4  A    between atoms: C_10  and  C_11
REMARK    5  A    between atoms: N_22  and  C_23
REMARK                            x       y       z     vdW  Elec       q    Type
REMARK                         _______ _______ _______ _____ _____    ______ ____
ROOT
ATOM      1  N   UNL     1       4.099   5.774  17.280  0.00  0.00    +0.000 N 
ATOM      2  C   UNL     1       3.881   5.149  18.544  0.00  0.00    +0.000 C 
ATOM      3  O   UNL     1       4.490   4.158  18.910  0.00  0.00    +0.000 OA
ATOM      4  H   UNL     1       3.668   6.684  17.121  0.00  0.00    +0.000 HD
ENDROOT
BRANCH   1   8
ATOM      5  C   UNL     1       6.155   3.647  13.280  0.00  0.00    +0.000 C 
ATOM      6  C   UNL     1       5.910   4.394  14.541  0.00  0.00    +0.000 A 
ATOM      7  C   UNL     1       4.720   4.446  15.299  0.00  0.00    +0.000 A 
ATOM      8  C   UNL     1       5.006   5.284  16.350  0.00  0.00    +0.000 A 
ATOM      9  N   UNL     1       6.348   5.625  16.230  0.00  0.00    +0.000 N 
ATOM     10  N   UNL     1       6.874   5.156  15.071  0.00  0.00    +0.000 NA
BRANCH   9  11
ATOM     11  C   UNL     1       7.138   6.344  17.167  0.00  0.00    +0.000 A 
ATOM     12  C   UNL     1       7.620   5.721  18.330  0.00  0.00    +0.000 A 
ATOM     13  C   UNL     1       8.336   6.458  19.275  0.00  0.00    +0.000 A 
ATOM     14  C   UNL     1       8.579   7.811  19.060  0.00  0.00    +0.000 A 
ATOM     15  C   UNL     1       8.144   8.423  17.884  0.00  0.00    +0.000 A 
ATOM     16  C   UNL     1       7.440   7.688  16.927  0.00  0.00    +0.000 A 
ENDBRANCH   9  11
ENDBRANCH   1   8
BRANCH   2  17
ATOM     17  C   UNL     1       2.952   5.948  19.325  0.00  0.00    +0.000 A 
ATOM     18  C   UNL     1       2.601   7.309  19.136  0.00  0.00    +0.000 A 
ATOM     19  C   UNL     1       1.670   7.576  20.113  0.00  0.00    +0.000 A 
ATOM     20  O   UNL     1       1.478   6.440  20.845  0.00  0.00    +0.000 OA
ATOM     21  N   UNL     1       2.262   5.416  20.350  0.00  0.00    +0.000 NA
BRANCH  19  22
ATOM     22  C   UNL     1       0.868   8.738  20.484  0.00  0.00    +0.000 A 
ATOM     23  C   UNL     1       0.523   9.719  19.522  0.00  0.00    +0.000 A 
ATOM     24  C   UNL     1      -0.198  10.866  19.877  0.00  0.00    +0.000 A 
ATOM     25  C   UNL     1      -0.561  11.018  21.195  0.00  0.00    +0.000 A 
ATOM     26  C   UNL     1      -0.250  10.066  22.135  0.00  0.00    +0.000 A 
ATOM     27  C   UNL     1       0.449   8.919  21.813  0.00  0.00    +0.000 A 
ATOM     28  O   UNL     1      -0.691  10.402  23.377  0.00  0.00    +0.000 OA
ATOM     29  C   UNL     1      -1.256  11.707  23.121  0.00  0.00    +0.000 C 
ATOM     30  O   UNL     1      -1.234  12.072  21.725  0.00  0.00    +0.000 OA
ENDBRANCH  19  22
ENDBRANCH   2  17
TORSDOF 4
ENDMDL
MODEL 5
REMARK VINA RESULT:      -8.7      5.390      8.632
REMARK  Name = 
REMARK  5 active torsions:
REMARK  status: ('A' for Active; 'I' for Inactive)
REMARK    1  A    between atoms: C_1  and  C_2
REMARK    2  A    between atoms: C_4  and  N_5
REMARK    3  A    between atoms: C_6  and  C_8
REMARK    4  A    between atoms: C_10  and  C_11
REMARK    5  A    between atoms: N_22  and  C_23
REMARK                            x       y       z     vdW  Elec       q    Type
REMARK                         _______ _______ _______ _____ _____    ______ ____
ROOT
ATOM      1  N   UNL     1      -0.381  10.385  20.056  0.00  0.00    +0.000 N 
ATOM      2  C   UNL     1       0.830  10.552  19.319  0.00  0.00    +0.000 C 
ATOM      3  O   UNL     1       1.274  11.646  19.010  0.00  0.00    +0.000 OA
ATOM      4  H   UNL     1      -0.595   9.453  20.410  0.00  0.00    +0.000 HD
ENDROOT
BRANCH   1   8
ATOM      5  C   UNL     1      -2.171  14.361  22.449  0.00  0.00    +0.000 C 
ATOM      6  C   UNL     1      -1.924  13.261  21.483  0.00  0.00    +0.000 A 
ATOM      7  C   UNL     1      -1.043  12.165  21.625  0.00  0.00    +0.000 A 
ATOM      8  C   UNL     1      -1.168  11.457  20.455  0.00  0.00    +0.000 A 
ATOM      9  N   UNL     1      -2.156  12.091  19.712  0.00  0.00    +0.000 N 
ATOM     10  N   UNL     1      -2.549  13.248  20.301  0.00  0.00    +0.000 NA
BRANCH   9  11
ATOM     11  C   UNL     1      -2.744  11.637  18.501  0.00  0.00    +0.000 A 
ATOM     12  C   UNL     1      -1.947  11.326  17.386  0.00  0.00    +0.000 A 
ATOM     13  C   UNL     1      -2.544  10.948  16.182  0.00  0.00    +0.000 A 
ATOM     14  C   UNL     1      -3.930  10.870  16.088  0.00  0.00    +0.000 A 
ATOM     15  C   UNL     1      -4.723  11.130  17.206  0.00  0.00    +0.000 A 
ATOM     16  C   UNL     1      -4.133  11.495  18.419  0.00  0.00    +0.000 A 
ENDBRANCH   9  11
ENDBRANCH   1   8
BRANCH   2  17
ATOM     17  C   UNL     1       1.470   9.261  19.139  0.00  0.00    +0.000 A 
ATOM     18  C   UNL     1       2.150   8.778  17.991  0.00  0.00    +0.000 A 
ATOM     19  C   UNL     1       2.593   7.523  18.341  0.00  0.00    +0.000 A 
ATOM     20  O   UNL     1       2.197   7.270  19.623  0.00  0.00    +0.000 OA
ATOM     21  N   UNL     1       1.510   8.355  20.132  0.00  0.00    +0.000 NA
BRANCH  19  22
ATOM     22  C   UNL     1       3.379   6.486  17.681  0.00  0.00    +0.000 A 
ATOM     23  C   UNL     1       3.018   5.120  17.791  0.00  0.00    +0.000 A 
ATOM     24  C   UNL     1       3.796   4.111  17.209  0.00  0.00    +0.000 A 
ATOM     25  C   UNL     1       4.930   4.485  16.526  0.00  0.00    +0.000 A 
ATOM     26  C   UNL     1       5.282   5.805  16.394  0.00  0.00    +0.000 A 
ATOM     27  C   UNL     1       4.529   6.823  16.946  0.00  0.00    +0.000 A 
ATOM     28  O   UNL     1       6.435   5.966  15.689  0.00  0.00    +0.000 OA
ATOM     29  C   UNL     1       6.801   4.589  15.452  0.00  0.00    +0.000 C 
ATOM     30  O   UNL     1       5.815   3.648  15.924  0.00  0.00    +0.000 OA
ENDBRANCH  19  22
ENDBRANCH   2  17
TORSDOF 4
ENDMDL
MODEL 6
REMARK VINA RESULT:      -8.6      2.503      3.315
REMARK  Name = 
REMARK  5 active torsions:
REMARK  status: ('A' for Active; 'I' for Inactive)
REMARK    1  A    between atoms: C_1  and  C_2
REMARK    2  A    between atoms: C_4  and  N_5
REMARK    3  A    between atoms: C_6  and  C_8
REMARK    4  A    between atoms: C_10  and  C_11
REMARK    5  A    between atoms: N_22  and  C_23
REMARK                            x       y       z     vdW  Elec       q    Type
REMARK                         _______ _______ _______ _____ _____    ______ ____
ROOT
ATOM      1  N   UNL     1       7.349   6.090  16.081  0.00  0.00    +0.000 N 
ATOM      2  C   UNL     1       6.655   7.180  16.686  0.00  0.00    +0.000 C 
ATOM      3  O   UNL     1       5.457   7.364  16.550  0.00  0.00    +0.000 OA
ATOM      4  H   UNL     1       8.310   5.919  16.374  0.00  0.00    +0.000 HD
ENDROOT
BRANCH   1   8
ATOM      5  C   UNL     1       6.162   3.102  12.284  0.00  0.00    +0.000 C 
ATOM      6  C   UNL     1       6.232   3.794  13.597  0.00  0.00    +0.000 A 
ATOM      7  C   UNL     1       6.977   4.947  13.930  0.00  0.00    +0.000 A 
ATOM      8  C   UNL     1       6.717   5.164  15.261  0.00  0.00    +0.000 A 
ATOM      9  N   UNL     1       5.784   4.208  15.643  0.00  0.00    +0.000 N 
ATOM     10  N   UNL     1       5.561   3.312  14.650  0.00  0.00    +0.000 NA
BRANCH   9  11
ATOM     11  C   UNL     1       5.095   4.128  16.883  0.00  0.00    +0.000 A 
ATOM     12  C   UNL     1       3.694   4.031  16.923  0.00  0.00    +0.000 A 
ATOM     13  C   UNL     1       3.027   4.023  18.149  0.00  0.00    +0.000 A 
ATOM     14  C   UNL     1       3.751   4.104  19.334  0.00  0.00    +0.000 A 
ATOM     15  C   UNL     1       5.145   4.152  19.301  0.00  0.00    +0.000 A 
ATOM     16  C   UNL     1       5.822   4.145  18.078  0.00  0.00    +0.000 A 
ENDBRANCH   9  11
ENDBRANCH   1   8
BRANCH   2  17
ATOM     17  C   UNL     1       7.562   7.908  17.557  0.00  0.00    +0.000 A 
ATOM     18  C   UNL     1       7.886   9.288  17.520  0.00  0.00    +0.000 A 
ATOM     19  C   UNL     1       8.759   9.478  18.566  0.00  0.00    +0.000 A 
ATOM     20  O   UNL     1       8.948   8.279  19.190  0.00  0.00    +0.000 OA
ATOM     21  N   UNL     1       8.192   7.298  18.576  0.00  0.00    +0.000 NA
BRANCH  19  22
ATOM     22  C   UNL     1       9.454  10.628  19.134  0.00  0.00    +0.000 A 
ATOM     23  C   UNL     1       9.344  10.936  20.512  0.00  0.00    +0.000 A 
ATOM     24  C   UNL     1       9.961  12.069  21.058  0.00  0.00    +0.000 A 
ATOM     25  C   UNL     1      10.678  12.883  20.212  0.00  0.00    +0.000 A 
ATOM     26  C   UNL     1      10.809  12.588  18.878  0.00  0.00    +0.000 A 
ATOM     27  C   UNL     1      10.224  11.471  18.313  0.00  0.00    +0.000 A 
ATOM     28  O   UNL     1      11.550  13.515  18.212  0.00  0.00    +0.000 OA
ATOM     29  C   UNL     1      11.812  14.463  19.271  0.00  0.00    +0.000 C 
ATOM     30  O   UNL     1      11.316  14.033  20.556  0.00  0.00    +0.000 OA
ENDBRANCH  19  22
ENDBRANCH   2  17
TORSDOF 4
ENDMDL
MODEL 7
REMARK VINA RESULT:      -8.5      5.390      8.404
REMARK  Name = 
REMARK  5 active torsions:
REMARK  status: ('A' for Active; 'I' for Inactive)
REMARK    1  A    between atoms: C_1  and  C_2
REMARK    2  A    between atoms: C_4  and  N_5
REMARK    3  A    between atoms: C_6  and  C_8
REMARK    4  A    between atoms: C_10  and  C_11
REMARK    5  A    between atoms: N_22  and  C_23
REMARK                            x       y       z     vdW  Elec       q    Type
REMARK                         _______ _______ _______ _____ _____    ______ ____
ROOT
ATOM      1  N   UNL     1       1.240  10.778  19.236  0.00  0.00    +0.000 N 
ATOM      2  C   UNL     1       0.896   9.730  20.142  0.00  0.00    +0.000 C 
ATOM      3  O   UNL     1       0.072   9.864  21.031  0.00  0.00    +0.000 OA
ATOM      4  H   UNL     1       1.814  10.536  18.429  0.00  0.00    +0.000 HD
ENDROOT
BRANCH   1   8
ATOM      5  C   UNL     1       0.592  15.678  19.796  0.00  0.00    +0.000 C 
ATOM      6  C   UNL     1       0.416  14.233  19.503  0.00  0.00    +0.000 A 
ATOM      7  C   UNL     1       1.294  13.172  19.817  0.00  0.00    +0.000 A 
ATOM      8  C   UNL     1       0.684  12.047  19.315  0.00  0.00    +0.000 A 
ATOM      9  N   UNL     1      -0.543  12.456  18.808  0.00  0.00    +0.000 N 
ATOM     10  N   UNL     1      -0.664  13.806  18.838  0.00  0.00    +0.000 NA
BRANCH   9  11
ATOM     11  C   UNL     1      -1.592  11.627  18.328  0.00  0.00    +0.000 A 
ATOM     12  C   UNL     1      -1.326  10.570  17.440  0.00  0.00    +0.000 A 
ATOM     13  C   UNL     1      -2.374   9.808  16.923  0.00  0.00    +0.000 A 
ATOM     14  C   UNL     1      -3.686  10.090  17.292  0.00  0.00    +0.000 A 
ATOM     15  C   UNL     1      -3.951  11.106  18.211  0.00  0.00    +0.000 A 
ATOM     16  C   UNL     1      -2.906  11.864  18.745  0.00  0.00    +0.000 A 
ENDBRANCH   9  11
ENDBRANCH   1   8
BRANCH   2  17
ATOM     17  C   UNL     1       1.566   8.505  19.742  0.00  0.00    +0.000 A 
ATOM     18  C   UNL     1       2.212   8.226  18.510  0.00  0.00    +0.000 A 
ATOM     19  C   UNL     1       2.707   6.950  18.647  0.00  0.00    +0.000 A 
ATOM     20  O   UNL     1       2.373   6.491  19.889  0.00  0.00    +0.000 OA
ATOM     21  N   UNL     1       1.676   7.461  20.583  0.00  0.00    +0.000 NA
BRANCH  19  22
ATOM     22  C   UNL     1       3.496   6.054  17.808  0.00  0.00    +0.000 A 
ATOM     23  C   UNL     1       3.205   4.669  17.750  0.00  0.00    +0.000 A 
ATOM     24  C   UNL     1       3.988   3.790  16.991  0.00  0.00    +0.000 A 
ATOM     25  C   UNL     1       5.060   4.312  16.303  0.00  0.00    +0.000 A 
ATOM     26  C   UNL     1       5.343   5.655  16.335  0.00  0.00    +0.000 A 
ATOM     27  C   UNL     1       4.581   6.548  17.063  0.00  0.00    +0.000 A 
ATOM     28  O   UNL     1       6.440   5.970  15.595  0.00  0.00    +0.000 OA
ATOM     29  C   UNL     1       6.853   4.659  15.150  0.00  0.00    +0.000 C 
ATOM     30  O   UNL     1       5.942   3.612  15.543  0.00  0.00    +0.000 OA
ENDBRANCH  19  22
ENDBRANCH   2  17
TORSDOF 4
ENDMDL
MODEL 8
REMARK VINA RESULT:      -8.5      5.542      8.656
REMARK  Name = 
REMARK  5 active torsions:
REMARK  status: ('A' for Active; 'I' for Inactive)
REMARK    1  A    between atoms: C_1  and  C_2
REMARK    2  A    between atoms: C_4  and  N_5
REMARK    3  A    between atoms: C_6  and  C_8
REMARK    4  A    between atoms: C_10  and  C_11
REMARK    5  A    between atoms: N_22  and  C_23
REMARK                            x       y       z     vdW  Elec       q    Type
REMARK                         _______ _______ _______ _____ _____    ______ ____
ROOT
ATOM      1  N   UNL     1       2.744   7.521  18.951  0.00  0.00    +0.000 N 
ATOM      2  C   UNL     1       1.926   8.607  18.516  0.00  0.00    +0.000 C 
ATOM      3  O   UNL     1       1.708   8.845  17.339  0.00  0.00    +0.000 OA
ATOM      4  H   UNL     1       2.744   7.297  19.945  0.00  0.00    +0.000 HD
ENDROOT
BRANCH   1   8
ATOM      5  C   UNL     1       5.730   5.643  15.443  0.00  0.00    +0.000 C 
ATOM      6  C   UNL     1       4.757   5.826  16.550  0.00  0.00    +0.000 A 
ATOM      7  C   UNL     1       4.201   7.035  17.024  0.00  0.00    +0.000 A 
ATOM      8  C   UNL     1       3.384   6.665  18.065  0.00  0.00    +0.000 A 
ATOM      9  N   UNL     1       3.414   5.277  18.117  0.00  0.00    +0.000 N 
ATOM     10  N   UNL     1       4.328   4.770  17.252  0.00  0.00    +0.000 NA
BRANCH   9  11
ATOM     11  C   UNL     1       2.608   4.431  18.926  0.00  0.00    +0.000 A 
ATOM     12  C   UNL     1       1.633   3.600  18.349  0.00  0.00    +0.000 A 
ATOM     13  C   UNL     1       0.802   2.826  19.161  0.00  0.00    +0.000 A 
ATOM     14  C   UNL     1       0.945   2.872  20.544  0.00  0.00    +0.000 A 
ATOM     15  C   UNL     1       1.944   3.658  21.119  0.00  0.00    +0.000 A 
ATOM     16  C   UNL     1       2.790   4.424  20.312  0.00  0.00    +0.000 A 
ENDBRANCH   9  11
ENDBRANCH   1   8
BRANCH   2  17
ATOM     17  C   UNL     1       1.323   9.251  19.669  0.00  0.00    +0.000 A 
ATOM     18  C   UNL     1       0.631  10.489  19.714  0.00  0.00    +0.000 A 
ATOM     19  C   UNL     1       0.236  10.630  21.024  0.00  0.00    +0.000 A 
ATOM     20  O   UNL     1       0.671   9.541  21.723  0.00  0.00    +0.000 OA
ATOM     21  N   UNL     1       1.335   8.669  20.882  0.00  0.00    +0.000 NA
BRANCH  19  22
ATOM     22  C   UNL     1      -0.532  11.622  21.768  0.00  0.00    +0.000 A 
ATOM     23  C   UNL     1      -0.097  12.968  21.848  0.00  0.00    +0.000 A 
ATOM     24  C   UNL     1      -0.795  13.917  22.604  0.00  0.00    +0.000 A 
ATOM     25  C   UNL     1      -1.922  13.503  23.277  0.00  0.00    +0.000 A 
ATOM     26  C   UNL     1      -2.367  12.207  23.194  0.00  0.00    +0.000 A 
ATOM     27  C   UNL     1      -1.706  11.252  22.446  0.00  0.00    +0.000 A 
ATOM     28  O   UNL     1      -3.490  11.997  23.932  0.00  0.00    +0.000 OA
ATOM     29  C   UNL     1      -3.660  13.296  24.542  0.00  0.00    +0.000 C 
ATOM     30  O   UNL     1      -2.705  14.272  24.078  0.00  0.00    +0.000 OA
ENDBRANCH  19  22
ENDBRANCH   2  17
TORSDOF 4
ENDMDL
MODEL 9
REMARK VINA RESULT:      -8.4      4.297      7.637
REMARK  Name = 
REMARK  5 active torsions:
REMARK  status: ('A' for Active; 'I' for Inactive)
REMARK    1  A    between atoms: C_1  and  C_2
REMARK    2  A    between atoms: C_4  and  N_5
REMARK    3  A    between atoms: C_6  and  C_8
REMARK    4  A    between atoms: C_10  and  C_11
REMARK    5  A    between atoms: N_22  and  C_23
REMARK                            x       y       z     vdW  Elec       q    Type
REMARK                         _______ _______ _______ _____ _____    ______ ____
ROOT
ATOM      1  N   UNL     1       4.102   5.683  17.322  0.00  0.00    +0.000 N 
ATOM      2  C   UNL     1       3.888   4.989  18.551  0.00  0.00    +0.000 C 
ATOM      3  O   UNL     1       4.492   3.974  18.855  0.00  0.00    +0.000 OA
ATOM      4  H   UNL     1       3.678   6.603  17.217  0.00  0.00    +0.000 HD
ENDROOT
BRANCH   1   8
ATOM      5  C   UNL     1       6.112   3.712  13.220  0.00  0.00    +0.000 C 
ATOM      6  C   UNL     1       5.880   4.418  14.506  0.00  0.00    +0.000 A 
ATOM      7  C   UNL     1       4.706   4.424  15.291  0.00  0.00    +0.000 A 
ATOM      8  C   UNL     1       4.998   5.238  16.359  0.00  0.00    +0.000 A 
ATOM      9  N   UNL     1       6.330   5.611  16.220  0.00  0.00    +0.000 N 
ATOM     10  N   UNL     1       6.839   5.186  15.036  0.00  0.00    +0.000 NA
BRANCH   9  11
ATOM     11  C   UNL     1       7.125   6.320  17.159  0.00  0.00    +0.000 A 
ATOM     12  C   UNL     1       7.604   5.689  18.319  0.00  0.00    +0.000 A 
ATOM     13  C   UNL     1       8.326   6.417  19.266  0.00  0.00    +0.000 A 
ATOM     14  C   UNL     1       8.578   7.769  19.057  0.00  0.00    +0.000 A 
ATOM     15  C   UNL     1       8.146   8.389  17.884  0.00  0.00    +0.000 A 
ATOM     16  C   UNL     1       7.436   7.663  16.924  0.00  0.00    +0.000 A 
ENDBRANCH   9  11
ENDBRANCH   1   8
BRANCH   2  17
ATOM     17  C   UNL     1       2.972   5.750  19.383  0.00  0.00    +0.000 A 
ATOM     18  C   UNL     1       2.688   7.139  19.321  0.00  0.00    +0.000 A 
ATOM     19  C   UNL     1       1.739   7.352  20.294  0.00  0.00    +0.000 A 
ATOM     20  O   UNL     1       1.475   6.160  20.905  0.00  0.00    +0.000 OA
ATOM     21  N   UNL     1       2.228   5.154  20.330  0.00  0.00    +0.000 NA
BRANCH  19  22
ATOM     22  C   UNL     1       0.979   8.508  20.757  0.00  0.00    +0.000 A 
ATOM     23  C   UNL     1       0.449   8.551  22.071  0.00  0.00    +0.000 A 
ATOM     24  C   UNL     1      -0.330   9.630  22.508  0.00  0.00    +0.000 A 
ATOM     25  C   UNL     1      -0.571  10.653  21.621  0.00  0.00    +0.000 A 
ATOM     26  C   UNL     1      -0.047  10.635  20.351  0.00  0.00    +0.000 A 
ATOM     27  C   UNL     1       0.734   9.591  19.896  0.00  0.00    +0.000 A 
ATOM     28  O   UNL     1      -0.403  11.732  19.630  0.00  0.00    +0.000 OA
ATOM     29  C   UNL     1      -1.266  12.408  20.571  0.00  0.00    +0.000 C 
ATOM     30  O   UNL     1      -1.322  11.760  21.858  0.00  0.00    +0.000 OA
ENDBRANCH  19  22
ENDBRANCH   2  17
TORSDOF 4
ENDMDL
