MODEL 1
REMARK VINA RESULT:      -6.6      0.000      0.000
REMARK  Name = 
REMARK  6 active torsions:
REMARK  status: ('A' for Active; 'I' for Inactive)
REMARK    1  A    between atoms: C_1  and  C_2
REMARK    2  A    between atoms: C_2  and  O_3
REMARK    3  A    between atoms: O_3  and  C_4
REMARK    4  A    between atoms: N_7  and  C_8
REMARK    5  A    between atoms: C_16  and  C_17
REMARK    6  A    between atoms: C_16  and  C_23
REMARK                            x       y       z     vdW  Elec       q    Type
REMARK                         _______ _______ _______ _____ _____    ______ ____
ROOT
ATOM      1  C   UNL     1      -1.540  10.536  18.669  0.00  0.00    +0.000 C 
ATOM      2  O   UNL     1      -1.929   9.466  18.221  0.00  0.00    +0.000 OA
ATOM      3  N   UNL     1      -0.427  10.717  19.441  0.00  0.00    +0.000 N 
ATOM      4  N   UNL     1       0.240   9.706  20.124  0.00  0.00    +0.000 N 
ATOM      5  C   UNL     1       0.634  10.563  21.132  0.00  0.00    +0.000 C 
ATOM      6  O   UNL     1       1.358  10.418  22.089  0.00  0.00    +0.000 OA
ATOM      7  C   UNL     1      -0.146  11.749  20.443  0.00  0.00    +0.000 C 
ENDROOT
BRANCH   4   8
ATOM      8  C   UNL     1       1.202   8.840  19.549  0.00  0.00    +0.000 A 
ATOM      9  C   UNL     1       1.691   9.124  18.265  0.00  0.00    +0.000 A 
ATOM     10  C   UNL     1       2.578   8.253  17.629  0.00  0.00    +0.000 A 
ATOM     11  C   UNL     1       2.985   7.087  18.271  0.00  0.00    +0.000 A 
ATOM     12  C   UNL     1       2.520   6.801  19.553  0.00  0.00    +0.000 A 
ATOM     13  C   UNL     1       1.642   7.679  20.197  0.00  0.00    +0.000 A 
ENDBRANCH   4   8
BRANCH   7  14
ATOM     14  C   UNL     1       0.898  12.873  19.971  0.00  0.00    +0.000 A 
ATOM     15  C   UNL     1       1.323  12.992  18.627  0.00  0.00    +0.000 A 
ATOM     16  C   UNL     1       2.357  13.849  18.238  0.00  0.00    +0.000 A 
ATOM     17  C   UNL     1       2.997  14.631  19.190  0.00  0.00    +0.000 A 
ATOM     18  C   UNL     1       2.569  14.590  20.512  0.00  0.00    +0.000 A 
ATOM     19  C   UNL     1       1.527  13.739  20.887  0.00  0.00    +0.000 A 
ENDBRANCH   7  14
BRANCH   7  20
ATOM     20  C   UNL     1      -1.316  12.303  21.397  0.00  0.00    +0.000 A 
ATOM     21  C   UNL     1      -1.754  11.616  22.556  0.00  0.00    +0.000 A 
ATOM     22  C   UNL     1      -2.766  12.098  23.390  0.00  0.00    +0.000 A 
ATOM     23  C   UNL     1      -3.395  13.298  23.095  0.00  0.00    +0.000 A 
ATOM     24  C   UNL     1      -3.007  14.010  21.967  0.00  0.00    +0.000 A 
ATOM     25  C   UNL     1      -1.985  13.521  21.140  0.00  0.00    +0.000 A 
ENDBRANCH   7  20
BRANCH   1  26
ATOM     26  O   UNL     1      -2.062  11.745  18.323  0.00  0.00    +0.000 OA
BRANCH  26  28
ATOM     27  C   UNL     1      -4.374  11.909  18.886  0.00  0.00    +0.000 C 
ATOM     28  C   UNL     1      -3.377  11.724  17.756  0.00  0.00    +0.000 C 
ENDBRANCH  26  28
ENDBRANCH   1  26
TORSDOF 5
ENDMDL
MODEL 2
REMARK VINA RESULT:      -6.5      1.644      4.478
REMARK  Name = 
REMARK  6 active torsions:
REMARK  status: ('A' for Active; 'I' for Inactive)
REMARK    1  A    between atoms: C_1  and  C_2
REMARK    2  A    between atoms: C_2  and  O_3
REMARK    3  A    between atoms: O_3  and  C_4
REMARK    4  A    between atoms: N_7  and  C_8
REMARK    5  A    between atoms: C_16  and  C_17
REMARK    6  A    between atoms: C_16  and  C_23
REMARK                            x       y       z     vdW  Elec       q    Type
REMARK                         _______ _______ _______ _____ _____    ______ ____
ROOT
ATOM      1  C   UNL     1       0.670  10.359  21.591  0.00  0.00    +0.000 C 
ATOM      2  O   UNL     1       1.362   9.812  22.439  0.00  0.00    +0.000 OA
ATOM      3  N   UNL     1       0.675  10.073  20.254  0.00  0.00    +0.000 N 
ATOM      4  N   UNL     1       1.684   9.378  19.594  0.00  0.00    +0.000 N 
ATOM      5  C   UNL     1       1.472  10.070  18.418  0.00  0.00    +0.000 C 
ATOM      6  O   UNL     1       1.937   9.952  17.308  0.00  0.00    +0.000 OA
ATOM      7  C   UNL     1       0.352  10.935  19.115  0.00  0.00    +0.000 C 
ENDROOT
BRANCH   4   8
ATOM      8  C   UNL     1       1.797   7.967  19.546  0.00  0.00    +0.000 A 
ATOM      9  C   UNL     1       1.429   7.218  20.674  0.00  0.00    +0.000 A 
ATOM     10  C   UNL     1       1.600   5.832  20.698  0.00  0.00    +0.000 A 
ATOM     11  C   UNL     1       2.144   5.181  19.594  0.00  0.00    +0.000 A 
ATOM     12  C   UNL     1       2.500   5.912  18.462  0.00  0.00    +0.000 A 
ATOM     13  C   UNL     1       2.315   7.299  18.431  0.00  0.00    +0.000 A 
ENDBRANCH   4   8
BRANCH   7  14
ATOM     14  C   UNL     1      -1.065  10.631  18.427  0.00  0.00    +0.000 A 
ATOM     15  C   UNL     1      -1.189   9.805  17.285  0.00  0.00    +0.000 A 
ATOM     16  C   UNL     1      -2.387   9.674  16.578  0.00  0.00    +0.000 A 
ATOM     17  C   UNL     1      -3.515  10.363  17.001  0.00  0.00    +0.000 A 
ATOM     18  C   UNL     1      -3.453  11.137  18.154  0.00  0.00    +0.000 A 
ATOM     19  C   UNL     1      -2.253  11.251  18.861  0.00  0.00    +0.000 A 
ENDBRANCH   7  14
BRANCH   7  20
ATOM     20  C   UNL     1       0.751  12.493  19.130  0.00  0.00    +0.000 A 
ATOM     21  C   UNL     1       2.052  12.951  19.455  0.00  0.00    +0.000 A 
ATOM     22  C   UNL     1       2.403  14.304  19.461  0.00  0.00    +0.000 A 
ATOM     23  C   UNL     1       1.457  15.267  19.147  0.00  0.00    +0.000 A 
ATOM     24  C   UNL     1       0.165  14.873  18.825  0.00  0.00    +0.000 A 
ATOM     25  C   UNL     1      -0.176  13.512  18.814  0.00  0.00    +0.000 A 
ENDBRANCH   7  20
BRANCH   1  26
ATOM     26  O   UNL     1      -0.341  11.226  21.873  0.00  0.00    +0.000 OA
BRANCH  26  28
ATOM     27  C   UNL     1      -2.274  11.925  23.083  0.00  0.00    +0.000 C 
ATOM     28  C   UNL     1      -1.164  10.891  22.994  0.00  0.00    +0.000 C 
ENDBRANCH  26  28
ENDBRANCH   1  26
TORSDOF 5
ENDMDL
MODEL 3
REMARK VINA RESULT:      -6.5      1.684      4.431
REMARK  Name = 
REMARK  6 active torsions:
REMARK  status: ('A' for Active; 'I' for Inactive)
REMARK    1  A    between atoms: C_1  and  C_2
REMARK    2  A    between atoms: C_2  and  O_3
REMARK    3  A    between atoms: O_3  and  C_4
REMARK    4  A    between atoms: N_7  and  C_8
REMARK    5  A    between atoms: C_16  and  C_17
REMARK    6  A    between atoms: C_16  and  C_23
REMARK                            x       y       z     vdW  Elec       q    Type
REMARK                         _______ _______ _______ _____ _____    ______ ____
ROOT
ATOM      1  C   UNL     1       0.757  10.340  21.651  0.00  0.00    +0.000 C 
ATOM      2  O   UNL     1       1.464   9.794  22.488  0.00  0.00    +0.000 OA
ATOM      3  N   UNL     1       0.757  10.069  20.312  0.00  0.00    +0.000 N 
ATOM      4  N   UNL     1       1.771   9.398  19.636  0.00  0.00    +0.000 N 
ATOM      5  C   UNL     1       1.540  10.100  18.469  0.00  0.00    +0.000 C 
ATOM      6  O   UNL     1       1.998  10.002  17.355  0.00  0.00    +0.000 OA
ATOM      7  C   UNL     1       0.411  10.939  19.185  0.00  0.00    +0.000 C 
ENDROOT
BRANCH   4   8
ATOM      8  C   UNL     1       1.906   7.990  19.571  0.00  0.00    +0.000 A 
ATOM      9  C   UNL     1       2.337   7.404  18.371  0.00  0.00    +0.000 A 
ATOM     10  C   UNL     1       2.407   6.016  18.238  0.00  0.00    +0.000 A 
ATOM     11  C   UNL     1       2.042   5.198  19.304  0.00  0.00    +0.000 A 
ATOM     12  C   UNL     1       1.627   5.767  20.507  0.00  0.00    +0.000 A 
ATOM     13  C   UNL     1       1.571   7.159  20.646  0.00  0.00    +0.000 A 
ENDBRANCH   4   8
BRANCH   7  14
ATOM     14  C   UNL     1      -1.006  10.620  18.503  0.00  0.00    +0.000 A 
ATOM     15  C   UNL     1      -1.124   9.810  17.350  0.00  0.00    +0.000 A 
ATOM     16  C   UNL     1      -2.326   9.668  16.650  0.00  0.00    +0.000 A 
ATOM     17  C   UNL     1      -3.463  10.331  17.094  0.00  0.00    +0.000 A 
ATOM     18  C   UNL     1      -3.405  11.088  18.259  0.00  0.00    +0.000 A 
ATOM     19  C   UNL     1      -2.201  11.212  18.957  0.00  0.00    +0.000 A 
ENDBRANCH   7  14
BRANCH   7  20
ATOM     20  C   UNL     1       0.786  12.503  19.215  0.00  0.00    +0.000 A 
ATOM     21  C   UNL     1      -0.080  13.512  18.725  0.00  0.00    +0.000 A 
ATOM     22  C   UNL     1       0.241  14.872  18.758  0.00  0.00    +0.000 A 
ATOM     23  C   UNL     1       1.457  15.285  19.281  0.00  0.00    +0.000 A 
ATOM     24  C   UNL     1       2.345  14.336  19.771  0.00  0.00    +0.000 A 
ATOM     25  C   UNL     1       2.011  12.974  19.741  0.00  0.00    +0.000 A 
ENDBRANCH   7  20
BRANCH   1  26
ATOM     26  O   UNL     1      -0.266  11.188  21.951  0.00  0.00    +0.000 OA
BRANCH  26  28
ATOM     27  C   UNL     1      -2.223  11.823  23.157  0.00  0.00    +0.000 C 
ATOM     28  C   UNL     1      -1.103  10.803  23.046  0.00  0.00    +0.000 C 
ENDBRANCH  26  28
ENDBRANCH   1  26
TORSDOF 5
ENDMDL
MODEL 4
REMARK VINA RESULT:      -6.5      0.197      1.294
REMARK  Name = 
REMARK  6 active torsions:
REMARK  status: ('A' for Active; 'I' for Inactive)
REMARK    1  A    between atoms: C_1  and  C_2
REMARK    2  A    between atoms: C_2  and  O_3
REMARK    3  A    between atoms: O_3  and  C_4
REMARK    4  A    between atoms: N_7  and  C_8
REMARK    5  A    between atoms: C_16  and  C_17
REMARK    6  A    between atoms: C_16  and  C_23
REMARK                            x       y       z     vdW  Elec       q    Type
REMARK                         _______ _______ _______ _____ _____    ______ ____
ROOT
ATOM      1  C   UNL     1      -1.371  10.524  18.673  0.00  0.00    +0.000 C 
ATOM      2  O   UNL     1      -1.790   9.471  18.211  0.00  0.00    +0.000 OA
ATOM      3  N   UNL     1      -0.263  10.663  19.461  0.00  0.00    +0.000 N 
ATOM      4  N   UNL     1       0.362   9.624  20.143  0.00  0.00    +0.000 N 
ATOM      5  C   UNL     1       0.771  10.461  21.163  0.00  0.00    +0.000 C 
ATOM      6  O   UNL     1       1.478  10.285  22.127  0.00  0.00    +0.000 OA
ATOM      7  C   UNL     1       0.039  11.677  20.474  0.00  0.00    +0.000 C 
ENDROOT
BRANCH   4   8
ATOM      8  C   UNL     1       1.302   8.732  19.573  0.00  0.00    +0.000 A 
ATOM      9  C   UNL     1       1.826   9.017  18.303  0.00  0.00    +0.000 A 
ATOM     10  C   UNL     1       2.693   8.124  17.670  0.00  0.00    +0.000 A 
ATOM     11  C   UNL     1       3.044   6.934  18.301  0.00  0.00    +0.000 A 
ATOM     12  C   UNL     1       2.543   6.645  19.569  0.00  0.00    +0.000 A 
ATOM     13  C   UNL     1       1.685   7.546  20.210  0.00  0.00    +0.000 A 
ENDBRANCH   4   8
BRANCH   7  14
ATOM     14  C   UNL     1       1.125  12.769  20.024  0.00  0.00    +0.000 A 
ATOM     15  C   UNL     1       1.689  13.694  20.934  0.00  0.00    +0.000 A 
ATOM     16  C   UNL     1       2.499  14.756  20.522  0.00  0.00    +0.000 A 
ATOM     17  C   UNL     1       2.783  14.922  19.173  0.00  0.00    +0.000 A 
ATOM     18  C   UNL     1       2.300  14.000  18.252  0.00  0.00    +0.000 A 
ATOM     19  C   UNL     1       1.501  12.935  18.676  0.00  0.00    +0.000 A 
ENDBRANCH   7  14
BRANCH   7  20
ATOM     20  C   UNL     1      -1.124  12.261  21.418  0.00  0.00    +0.000 A 
ATOM     21  C   UNL     1      -1.741  13.516  21.193  0.00  0.00    +0.000 A 
ATOM     22  C   UNL     1      -2.758  14.022  22.009  0.00  0.00    +0.000 A 
ATOM     23  C   UNL     1      -3.202  13.290  23.098  0.00  0.00    +0.000 A 
ATOM     24  C   UNL     1      -2.628  12.053  23.367  0.00  0.00    +0.000 A 
ATOM     25  C   UNL     1      -1.613  11.550  22.538  0.00  0.00    +0.000 A 
ENDBRANCH   7  20
BRANCH   1  26
ATOM     26  O   UNL     1      -1.850  11.752  18.330  0.00  0.00    +0.000 OA
BRANCH  26  28
ATOM     27  C   UNL     1      -4.137  11.950  18.980  0.00  0.00    +0.000 C 
ATOM     28  C   UNL     1      -3.183  11.786  17.809  0.00  0.00    +0.000 C 
ENDBRANCH  26  28
ENDBRANCH   1  26
TORSDOF 5
ENDMDL
MODEL 5
REMARK VINA RESULT:      -6.3      0.308      1.319
REMARK  Name = 
REMARK  6 active torsions:
REMARK  status: ('A' for Active; 'I' for Inactive)
REMARK    1  A    between atoms: C_1  and  C_2
REMARK    2  A    between atoms: C_2  and  O_3
REMARK    3  A    between atoms: O_3  and  C_4
REMARK    4  A    between atoms: N_7  and  C_8
REMARK    5  A    between atoms: C_16  and  C_17
REMARK    6  A    between atoms: C_16  and  C_23
REMARK                            x       y       z     vdW  Elec       q    Type
REMARK                         _______ _______ _______ _____ _____    ______ ____
ROOT
ATOM      1  C   UNL     1      -1.516  10.656  18.807  0.00  0.00    +0.000 C 
ATOM      2  O   UNL     1      -1.971   9.619  18.343  0.00  0.00    +0.000 OA
ATOM      3  N   UNL     1      -0.364  10.763  19.535  0.00  0.00    +0.000 N 
ATOM      4  N   UNL     1       0.285   9.702  20.157  0.00  0.00    +0.000 N 
ATOM      5  C   UNL     1       0.759  10.508  21.173  0.00  0.00    +0.000 C 
ATOM      6  O   UNL     1       1.515  10.300  22.093  0.00  0.00    +0.000 OA
ATOM      7  C   UNL     1       0.004  11.749  20.555  0.00  0.00    +0.000 C 
ENDROOT
BRANCH   4   8
ATOM      8  C   UNL     1       1.182   8.814  19.514  0.00  0.00    +0.000 A 
ATOM      9  C   UNL     1       1.590   7.654  20.190  0.00  0.00    +0.000 A 
ATOM     10  C   UNL     1       2.535   6.794  19.626  0.00  0.00    +0.000 A 
ATOM     11  C   UNL     1       3.085   7.087  18.381  0.00  0.00    +0.000 A 
ATOM     12  C   UNL     1       2.677   8.228  17.693  0.00  0.00    +0.000 A 
ATOM     13  C   UNL     1       1.719   9.083  18.250  0.00  0.00    +0.000 A 
ENDBRANCH   4   8
BRANCH   7  14
ATOM     14  C   UNL     1       1.076  12.841  20.073  0.00  0.00    +0.000 A 
ATOM     15  C   UNL     1       1.751  13.690  20.981  0.00  0.00    +0.000 A 
ATOM     16  C   UNL     1       2.552  14.756  20.562  0.00  0.00    +0.000 A 
ATOM     17  C   UNL     1       2.714  15.002  19.205  0.00  0.00    +0.000 A 
ATOM     18  C   UNL     1       2.118  14.155  18.278  0.00  0.00    +0.000 A 
ATOM     19  C   UNL     1       1.330  13.085  18.709  0.00  0.00    +0.000 A 
ENDBRANCH   7  14
BRANCH   7  20
ATOM     20  C   UNL     1      -1.099  12.320  21.576  0.00  0.00    +0.000 A 
ATOM     21  C   UNL     1      -1.694  11.529  22.589  0.00  0.00    +0.000 A 
ATOM     22  C   UNL     1      -2.648  12.026  23.482  0.00  0.00    +0.000 A 
ATOM     23  C   UNL     1      -3.057  13.347  23.395  0.00  0.00    +0.000 A 
ATOM     24  C   UNL     1      -2.508  14.167  22.416  0.00  0.00    +0.000 A 
ATOM     25  C   UNL     1      -1.546  13.661  21.529  0.00  0.00    +0.000 A 
ENDBRANCH   7  20
BRANCH   1  26
ATOM     26  O   UNL     1      -1.998  11.897  18.521  0.00  0.00    +0.000 OA
BRANCH  26  28
ATOM     27  C   UNL     1      -4.177  12.244  19.429  0.00  0.00    +0.000 C 
ATOM     28  C   UNL     1      -3.382  11.968  18.163  0.00  0.00    +0.000 C 
ENDBRANCH  26  28
ENDBRANCH   1  26
TORSDOF 5
ENDMDL
MODEL 6
REMARK VINA RESULT:      -6.3      2.046      5.949
REMARK  Name = 
REMARK  6 active torsions:
REMARK  status: ('A' for Active; 'I' for Inactive)
REMARK    1  A    between atoms: C_1  and  C_2
REMARK    2  A    between atoms: C_2  and  O_3
REMARK    3  A    between atoms: O_3  and  C_4
REMARK    4  A    between atoms: N_7  and  C_8
REMARK    5  A    between atoms: C_16  and  C_17
REMARK    6  A    between atoms: C_16  and  C_23
REMARK                            x       y       z     vdW  Elec       q    Type
REMARK                         _______ _______ _______ _____ _____    ______ ____
ROOT
ATOM      1  C   UNL     1      -0.832  10.909  22.399  0.00  0.00    +0.000 C 
ATOM      2  O   UNL     1      -1.351  10.501  23.429  0.00  0.00    +0.000 OA
ATOM      3  N   UNL     1      -0.982  12.163  21.875  0.00  0.00    +0.000 N 
ATOM      4  N   UNL     1      -1.994  13.052  22.221  0.00  0.00    +0.000 N 
ATOM      5  C   UNL     1      -2.006  13.620  20.962  0.00  0.00    +0.000 C 
ATOM      6  O   UNL     1      -2.596  14.569  20.502  0.00  0.00    +0.000 OA
ATOM      7  C   UNL     1      -0.895  12.607  20.482  0.00  0.00    +0.000 C 
ENDROOT
BRANCH   4   8
ATOM      8  C   UNL     1      -1.972  13.902  23.353  0.00  0.00    +0.000 A 
ATOM      9  C   UNL     1      -3.080  13.913  24.215  0.00  0.00    +0.000 A 
ATOM     10  C   UNL     1      -3.134  14.794  25.297  0.00  0.00    +0.000 A 
ATOM     11  C   UNL     1      -2.082  15.675  25.528  0.00  0.00    +0.000 A 
ATOM     12  C   UNL     1      -0.969  15.664  24.689  0.00  0.00    +0.000 A 
ATOM     13  C   UNL     1      -0.907  14.772  23.612  0.00  0.00    +0.000 A 
ENDBRANCH   4   8
BRANCH   7  14
ATOM     14  C   UNL     1       0.444  13.413  20.119  0.00  0.00    +0.000 A 
ATOM     15  C   UNL     1       0.532  14.265  18.993  0.00  0.00    +0.000 A 
ATOM     16  C   UNL     1       1.737  14.832  18.571  0.00  0.00    +0.000 A 
ATOM     17  C   UNL     1       2.904  14.572  19.277  0.00  0.00    +0.000 A 
ATOM     18  C   UNL     1       2.852  13.790  20.425  0.00  0.00    +0.000 A 
ATOM     19  C   UNL     1       1.639  13.238  20.845  0.00  0.00    +0.000 A 
ENDBRANCH   7  14
BRANCH   7  20
ATOM     20  C   UNL     1      -1.441  11.674  19.291  0.00  0.00    +0.000 A 
ATOM     21  C   UNL     1      -2.786  11.701  18.847  0.00  0.00    +0.000 A 
ATOM     22  C   UNL     1      -3.260  10.896  17.807  0.00  0.00    +0.000 A 
ATOM     23  C   UNL     1      -2.403  10.016  17.165  0.00  0.00    +0.000 A 
ATOM     24  C   UNL     1      -1.074   9.946  17.564  0.00  0.00    +0.000 A 
ATOM     25  C   UNL     1      -0.606  10.764  18.604  0.00  0.00    +0.000 A 
ENDBRANCH   7  20
BRANCH   1  26
ATOM     26  O   UNL     1       0.117  10.227  21.699  0.00  0.00    +0.000 OA
BRANCH  26  28
ATOM     27  C   UNL     1       1.180   8.234  20.934  0.00  0.00    +0.000 C 
ATOM     28  C   UNL     1      -0.009   8.802  21.690  0.00  0.00    +0.000 C 
ENDBRANCH  26  28
ENDBRANCH   1  26
TORSDOF 5
ENDMDL
MODEL 7
REMARK VINA RESULT:      -6.3      2.361      5.983
REMARK  Name = 
REMARK  6 active torsions:
REMARK  status: ('A' for Active; 'I' for Inactive)
REMARK    1  A    between atoms: C_1  and  C_2
REMARK    2  A    between atoms: C_2  and  O_3
REMARK    3  A    between atoms: O_3  and  C_4
REMARK    4  A    between atoms: N_7  and  C_8
REMARK    5  A    between atoms: C_16  and  C_17
REMARK    6  A    between atoms: C_16  and  C_23
REMARK                            x       y       z     vdW  Elec       q    Type
REMARK                         _______ _______ _______ _____ _____    ______ ____
ROOT
ATOM      1  C   UNL     1       1.525  11.972  18.633  0.00  0.00    +0.000 C 
ATOM      2  O   UNL     1       2.636  12.461  18.475  0.00  0.00    +0.000 OA
ATOM      3  N   UNL     1       0.409  12.648  19.042  0.00  0.00    +0.000 N 
ATOM      4  N   UNL     1       0.418  13.889  19.668  0.00  0.00    +0.000 N 
ATOM      5  C   UNL     1      -0.724  13.600  20.390  0.00  0.00    +0.000 C 
ATOM      6  O   UNL     1      -1.412  14.265  21.128  0.00  0.00    +0.000 OA
ATOM      7  C   UNL     1      -0.768  12.153  19.761  0.00  0.00    +0.000 C 
ENDROOT
BRANCH   4   8
ATOM      8  C   UNL     1       0.504  15.133  18.996  0.00  0.00    +0.000 A 
ATOM      9  C   UNL     1       1.769  15.697  18.770  0.00  0.00    +0.000 A 
ATOM     10  C   UNL     1       1.895  16.958  18.184  0.00  0.00    +0.000 A 
ATOM     11  C   UNL     1       0.756  17.671  17.821  0.00  0.00    +0.000 A 
ATOM     12  C   UNL     1      -0.506  17.117  18.026  0.00  0.00    +0.000 A 
ATOM     13  C   UNL     1      -0.633  15.846  18.600  0.00  0.00    +0.000 A 
ENDBRANCH   4   8
BRANCH   7  14
ATOM     14  C   UNL     1      -2.087  12.002  18.860  0.00  0.00    +0.000 A 
ATOM     15  C   UNL     1      -3.388  12.166  19.391  0.00  0.00    +0.000 A 
ATOM     16  C   UNL     1      -4.541  11.867  18.660  0.00  0.00    +0.000 A 
ATOM     17  C   UNL     1      -4.430  11.400  17.358  0.00  0.00    +0.000 A 
ATOM     18  C   UNL     1      -3.172  11.283  16.777  0.00  0.00    +0.000 A 
ATOM     19  C   UNL     1      -2.026  11.597  17.512  0.00  0.00    +0.000 A 
ENDBRANCH   7  14
BRANCH   7  20
ATOM     20  C   UNL     1      -0.618  11.025  20.897  0.00  0.00    +0.000 A 
ATOM     21  C   UNL     1      -0.734  11.306  22.281  0.00  0.00    +0.000 A 
ATOM     22  C   UNL     1      -0.611  10.325  23.269  0.00  0.00    +0.000 A 
ATOM     23  C   UNL     1      -0.357   9.010  22.913  0.00  0.00    +0.000 A 
ATOM     24  C   UNL     1      -0.229   8.681  21.570  0.00  0.00    +0.000 A 
ATOM     25  C   UNL     1      -0.362   9.671  20.584  0.00  0.00    +0.000 A 
ENDBRANCH   7  20
BRANCH   1  26
ATOM     26  O   UNL     1       1.187  10.707  18.258  0.00  0.00    +0.000 OA
BRANCH  26  28
ATOM     27  C   UNL     1       1.832   8.424  18.006  0.00  0.00    +0.000 C 
ATOM     28  C   UNL     1       2.262   9.870  17.823  0.00  0.00    +0.000 C 
ENDBRANCH  26  28
ENDBRANCH   1  26
TORSDOF 5
ENDMDL
MODEL 8
REMARK VINA RESULT:      -6.2      2.619      6.274
REMARK  Name = 
REMARK  6 active torsions:
REMARK  status: ('A' for Active; 'I' for Inactive)
REMARK    1  A    between atoms: C_1  and  C_2
REMARK    2  A    between atoms: C_2  and  O_3
REMARK    3  A    between atoms: O_3  and  C_4
REMARK    4  A    between atoms: N_7  and  C_8
REMARK    5  A    between atoms: C_16  and  C_17
REMARK    6  A    between atoms: C_16  and  C_23
REMARK                            x       y       z     vdW  Elec       q    Type
REMARK                         _______ _______ _______ _____ _____    ______ ____
ROOT
ATOM      1  C   UNL     1      -1.491  12.382  18.791  0.00  0.00    +0.000 C 
ATOM      2  O   UNL     1      -1.047  12.724  17.703  0.00  0.00    +0.000 OA
ATOM      3  N   UNL     1      -1.466  13.134  19.932  0.00  0.00    +0.000 N 
ATOM      4  N   UNL     1      -0.646  14.238  20.138  0.00  0.00    +0.000 N 
ATOM      5  C   UNL     1      -0.566  14.000  21.496  0.00  0.00    +0.000 C 
ATOM      6  O   UNL     1      -0.070  14.625  22.405  0.00  0.00    +0.000 OA
ATOM      7  C   UNL     1      -1.447  12.702  21.332  0.00  0.00    +0.000 C 
ENDROOT
BRANCH   4   8
ATOM      8  C   UNL     1      -0.930  15.551  19.691  0.00  0.00    +0.000 A 
ATOM      9  C   UNL     1      -2.013  16.242  20.256  0.00  0.00    +0.000 A 
ATOM     10  C   UNL     1      -2.377  17.506  19.787  0.00  0.00    +0.000 A 
ATOM     11  C   UNL     1      -1.663  18.092  18.746  0.00  0.00    +0.000 A 
ATOM     12  C   UNL     1      -0.576  17.424  18.186  0.00  0.00    +0.000 A 
ATOM     13  C   UNL     1      -0.201  16.163  18.664  0.00  0.00    +0.000 A 
ENDBRANCH   4   8
BRANCH   7  14
ATOM     14  C   UNL     1      -2.837  12.897  22.110  0.00  0.00    +0.000 A 
ATOM     15  C   UNL     1      -2.915  12.924  23.522  0.00  0.00    +0.000 A 
ATOM     16  C   UNL     1      -4.132  12.918  24.209  0.00  0.00    +0.000 A 
ATOM     17  C   UNL     1      -5.324  12.897  23.497  0.00  0.00    +0.000 A 
ATOM     18  C   UNL     1      -5.293  12.933  22.107  0.00  0.00    +0.000 A 
ATOM     19  C   UNL     1      -4.070  12.950  21.432  0.00  0.00    +0.000 A 
ENDBRANCH   7  14
BRANCH   7  20
ATOM     20  C   UNL     1      -0.629  11.389  21.771  0.00  0.00    +0.000 A 
ATOM     21  C   UNL     1      -0.914  10.665  22.956  0.00  0.00    +0.000 A 
ATOM     22  C   UNL     1      -0.208   9.519  23.336  0.00  0.00    +0.000 A 
ATOM     23  C   UNL     1       0.826   9.047  22.543  0.00  0.00    +0.000 A 
ATOM     24  C   UNL     1       1.150   9.722  21.373  0.00  0.00    +0.000 A 
ATOM     25  C   UNL     1       0.431  10.867  20.996  0.00  0.00    +0.000 A 
ENDBRANCH   7  20
BRANCH   1  26
ATOM     26  O   UNL     1      -2.237  11.261  18.993  0.00  0.00    +0.000 OA
BRANCH  26  28
ATOM     27  C   UNL     1      -3.208   9.793  17.383  0.00  0.00    +0.000 C 
ATOM     28  C   UNL     1      -1.942  10.146  18.145  0.00  0.00    +0.000 C 
ENDBRANCH  26  28
ENDBRANCH   1  26
TORSDOF 5
ENDMDL
MODEL 9
REMARK VINA RESULT:      -6.2      1.652      4.543
REMARK  Name = 
REMARK  6 active torsions:
REMARK  status: ('A' for Active; 'I' for Inactive)
REMARK    1  A    between atoms: C_1  and  C_2
REMARK    2  A    between atoms: C_2  and  O_3
REMARK    3  A    between atoms: O_3  and  C_4
REMARK    4  A    between atoms: N_7  and  C_8
REMARK    5  A    between atoms: C_16  and  C_17
REMARK    6  A    between atoms: C_16  and  C_23
REMARK                            x       y       z     vdW  Elec       q    Type
REMARK                         _______ _______ _______ _____ _____    ______ ____
ROOT
ATOM      1  C   UNL     1       0.630  10.400  21.596  0.00  0.00    +0.000 C 
ATOM      2  O   UNL     1       1.288   9.805  22.439  0.00  0.00    +0.000 OA
ATOM      3  N   UNL     1       0.681  10.182  20.247  0.00  0.00    +0.000 N 
ATOM      4  N   UNL     1       1.709   9.515  19.589  0.00  0.00    +0.000 N 
ATOM      5  C   UNL     1       1.544  10.268  18.443  0.00  0.00    +0.000 C 
ATOM      6  O   UNL     1       2.048  10.203  17.346  0.00  0.00    +0.000 OA
ATOM      7  C   UNL     1       0.404  11.105  19.143  0.00  0.00    +0.000 C 
ENDROOT
BRANCH   4   8
ATOM      8  C   UNL     1       1.816   8.108  19.472  0.00  0.00    +0.000 A 
ATOM      9  C   UNL     1       1.522   7.309  20.588  0.00  0.00    +0.000 A 
ATOM     10  C   UNL     1       1.692   5.924  20.540  0.00  0.00    +0.000 A 
ATOM     11  C   UNL     1       2.160   5.322  19.376  0.00  0.00    +0.000 A 
ATOM     12  C   UNL     1       2.440   6.102  18.255  0.00  0.00    +0.000 A 
ATOM     13  C   UNL     1       2.257   7.489  18.297  0.00  0.00    +0.000 A 
ENDBRANCH   4   8
BRANCH   7  14
ATOM     14  C   UNL     1      -0.989  10.847  18.390  0.00  0.00    +0.000 A 
ATOM     15  C   UNL     1      -2.194  11.464  18.798  0.00  0.00    +0.000 A 
ATOM     16  C   UNL     1      -3.437  11.115  18.263  0.00  0.00    +0.000 A 
ATOM     17  C   UNL     1      -3.514  10.135  17.283  0.00  0.00    +0.000 A 
ATOM     18  C   UNL     1      -2.346   9.546  16.809  0.00  0.00    +0.000 A 
ATOM     19  C   UNL     1      -1.108   9.912  17.343  0.00  0.00    +0.000 A 
ENDBRANCH   7  14
BRANCH   7  20
ATOM     20  C   UNL     1       0.812  12.656  19.253  0.00  0.00    +0.000 A 
ATOM     21  C   UNL     1      -0.115  13.711  19.064  0.00  0.00    +0.000 A 
ATOM     22  C   UNL     1       0.236  15.060  19.166  0.00  0.00    +0.000 A 
ATOM     23  C   UNL     1       1.543  15.417  19.459  0.00  0.00    +0.000 A 
ATOM     24  C   UNL     1       2.493  14.422  19.649  0.00  0.00    +0.000 A 
ATOM     25  C   UNL     1       2.130  13.070  19.552  0.00  0.00    +0.000 A 
ENDBRANCH   7  20
BRANCH   1  26
ATOM     26  O   UNL     1      -0.386  11.259  21.886  0.00  0.00    +0.000 OA
BRANCH  26  28
ATOM     27  C   UNL     1      -2.317  11.936  23.111  0.00  0.00    +0.000 C 
ATOM     28  C   UNL     1      -1.177  10.935  23.034  0.00  0.00    +0.000 C 
ENDBRANCH  26  28
ENDBRANCH   1  26
TORSDOF 5
ENDMDL
