MODEL 1
REMARK VINA RESULT:      -7.7      0.000      0.000
REMARK  Name = 
REMARK  7 active torsions:
REMARK  status: ('A' for Active; 'I' for Inactive)
REMARK    1  A    between atoms: C_2  and  C_3
REMARK    2  A    between atoms: C_3  and  S_4
REMARK    3  A    between atoms: S_4  and  C_5
REMARK    4  A    between atoms: C_7  and  C_8
REMARK    5  A    between atoms: C_14  and  C_15
REMARK    6  A    between atoms: N_20  and  C_21
REMARK    7  A    between atoms: C_21  and  C_22
REMARK                            x       y       z     vdW  Elec       q    Type
REMARK                         _______ _______ _______ _____ _____    ______ ____
ROOT
ATOM      1  C   UNL     1       4.844   3.825  17.353  0.00  0.00    +0.000 A 
ATOM      2  N   UNL     1       5.091   3.887  16.039  0.00  0.00    +0.000 NA
ATOM      3  C   UNL     1       6.201   4.558  15.669  0.00  0.00    +0.000 A 
ATOM      4  C   UNL     1       7.037   5.186  16.569  0.00  0.00    +0.000 A 
ATOM      5  C   UNL     1       6.713   5.067  17.905  0.00  0.00    +0.000 A 
ATOM      6  N   UNL     1       5.606   4.394  18.300  0.00  0.00    +0.000 NA
ENDROOT
BRANCH   3   7
ATOM      7  C   UNL     1       6.527   4.488  14.249  0.00  0.00    +0.000 A 
ATOM      8  C   UNL     1       6.139   3.670  13.210  0.00  0.00    +0.000 A 
ATOM      9  C   UNL     1       6.917   4.048  12.085  0.00  0.00    +0.000 A 
ATOM     10  C   UNL     1       7.710   5.092  12.501  0.00  0.00    +0.000 A 
ATOM     11  O   UNL     1       7.474   5.372  13.805  0.00  0.00    +0.000 OA
ENDBRANCH   3   7
BRANCH   5  12
ATOM     12  C   UNL     1       7.647   5.635  18.959  0.00  0.00    +0.000 C 
ATOM     13  F   UNL     1       8.114   6.880  18.647  0.00  0.00    +0.000 F 
ATOM     14  F   UNL     1       7.061   5.762  20.183  0.00  0.00    +0.000 F 
ATOM     15  F   UNL     1       8.760   4.870  19.145  0.00  0.00    +0.000 F 
ENDBRANCH   5  12
BRANCH   1  16
ATOM     16  S   UNL     1       3.471   2.882  17.950  0.00  0.00    +0.000 S 
BRANCH  16  17
ATOM     17  C   UNL     1       3.642   3.133  19.746  0.00  0.00    +0.000 C 
BRANCH  17  19
ATOM     18  O   UNL     1       1.549   3.616  20.826  0.00  0.00    +0.000 OA
ATOM     19  C   UNL     1       2.569   4.062  20.304  0.00  0.00    +0.000 C 
ATOM     20  N   UNL     1       2.771   5.407  20.108  0.00  0.00    +0.000 N 
ATOM     21  H   UNL     1       3.643   5.708  19.687  0.00  0.00    +0.000 HD
BRANCH  20  22
ATOM     22  C   UNL     1       1.860   6.448  20.554  0.00  0.00    +0.000 C 
BRANCH  22  23
ATOM     23  C   UNL     1       2.179   7.798  19.908  0.00  0.00    +0.000 C 
ATOM     24  C   UNL     1       1.088   8.845  20.075  0.00  0.00    +0.000 C 
ATOM     25  C   UNL     1       1.288   9.708  18.856  0.00  0.00    +0.000 C 
ATOM     26  C   UNL     1       1.702   8.698  17.807  0.00  0.00    +0.000 C 
ATOM     27  O   UNL     1       2.383   7.637  18.488  0.00  0.00    +0.000 OA
ENDBRANCH  22  23
ENDBRANCH  20  22
ENDBRANCH  17  19
ENDBRANCH  16  17
ENDBRANCH   1  16
TORSDOF 7
ENDMDL
MODEL 2
REMARK VINA RESULT:      -7.7      4.291      6.950
REMARK  Name = 
REMARK  7 active torsions:
REMARK  status: ('A' for Active; 'I' for Inactive)
REMARK    1  A    between atoms: C_2  and  C_3
REMARK    2  A    between atoms: C_3  and  S_4
REMARK    3  A    between atoms: S_4  and  C_5
REMARK    4  A    between atoms: C_7  and  C_8
REMARK    5  A    between atoms: C_14  and  C_15
REMARK    6  A    between atoms: N_20  and  C_21
REMARK    7  A    between atoms: C_21  and  C_22
REMARK                            x       y       z     vdW  Elec       q    Type
REMARK                         _______ _______ _______ _____ _____    ______ ____
ROOT
ATOM      1  C   UNL     1       5.444   4.915  17.795  0.00  0.00    +0.000 A 
ATOM      2  N   UNL     1       4.770   6.064  17.927  0.00  0.00    +0.000 NA
ATOM      3  C   UNL     1       3.458   5.957  18.221  0.00  0.00    +0.000 A 
ATOM      4  C   UNL     1       2.810   4.746  18.351  0.00  0.00    +0.000 A 
ATOM      5  C   UNL     1       3.581   3.612  18.204  0.00  0.00    +0.000 A 
ATOM      6  N   UNL     1       4.902   3.694  17.915  0.00  0.00    +0.000 NA
ENDROOT
BRANCH   3   7
ATOM      7  C   UNL     1       2.779   7.217  18.503  0.00  0.00    +0.000 A 
ATOM      8  C   UNL     1       2.023   7.691  19.554  0.00  0.00    +0.000 A 
ATOM      9  C   UNL     1       1.543   8.968  19.164  0.00  0.00    +0.000 A 
ATOM     10  C   UNL     1       2.058   9.205  17.911  0.00  0.00    +0.000 A 
ATOM     11  O   UNL     1       2.816   8.157  17.508  0.00  0.00    +0.000 OA
ENDBRANCH   3   7
BRANCH   5  12
ATOM     12  C   UNL     1       2.962   2.245  18.446  0.00  0.00    +0.000 C 
ATOM     13  F   UNL     1       2.232   1.793  17.383  0.00  0.00    +0.000 F 
ATOM     14  F   UNL     1       3.885   1.274  18.692  0.00  0.00    +0.000 F 
ATOM     15  F   UNL     1       2.102   2.234  19.504  0.00  0.00    +0.000 F 
ENDBRANCH   5  12
BRANCH   1  16
ATOM     16  S   UNL     1       7.191   4.944  17.512  0.00  0.00    +0.000 S 
BRANCH  16  17
ATOM     17  C   UNL     1       7.707   6.217  18.708  0.00  0.00    +0.000 C 
BRANCH  17  19
ATOM     18  O   UNL     1       7.573   7.777  16.883  0.00  0.00    +0.000 OA
ATOM     19  C   UNL     1       7.902   7.580  18.052  0.00  0.00    +0.000 C 
ATOM     20  N   UNL     1       8.541   8.530  18.811  0.00  0.00    +0.000 N 
ATOM     21  H   UNL     1       8.769   8.308  19.773  0.00  0.00    +0.000 HD
BRANCH  20  22
ATOM     22  C   UNL     1       8.830   9.882  18.361  0.00  0.00    +0.000 C 
BRANCH  22  23
ATOM     23  C   UNL     1       9.870  10.568  19.249  0.00  0.00    +0.000 C 
ATOM     24  C   UNL     1       9.348  10.989  20.614  0.00  0.00    +0.000 C 
ATOM     25  C   UNL     1      10.231  12.165  20.942  0.00  0.00    +0.000 C 
ATOM     26  C   UNL     1      10.431  12.809  19.587  0.00  0.00    +0.000 C 
ATOM     27  O   UNL     1      10.363  11.764  18.608  0.00  0.00    +0.000 OA
ENDBRANCH  22  23
ENDBRANCH  20  22
ENDBRANCH  17  19
ENDBRANCH  16  17
ENDBRANCH   1  16
TORSDOF 7
ENDMDL
MODEL 3
REMARK VINA RESULT:      -7.6      2.929      7.759
REMARK  Name = 
REMARK  7 active torsions:
REMARK  status: ('A' for Active; 'I' for Inactive)
REMARK    1  A    between atoms: C_2  and  C_3
REMARK    2  A    between atoms: C_3  and  S_4
REMARK    3  A    between atoms: S_4  and  C_5
REMARK    4  A    between atoms: C_7  and  C_8
REMARK    5  A    between atoms: C_14  and  C_15
REMARK    6  A    between atoms: N_20  and  C_21
REMARK    7  A    between atoms: C_21  and  C_22
REMARK                            x       y       z     vdW  Elec       q    Type
REMARK                         _______ _______ _______ _____ _____    ______ ____
ROOT
ATOM      1  C   UNL     1       4.369   5.045  19.180  0.00  0.00    +0.000 A 
ATOM      2  N   UNL     1       3.741   6.227  19.218  0.00  0.00    +0.000 NA
ATOM      3  C   UNL     1       2.535   6.244  19.822  0.00  0.00    +0.000 A 
ATOM      4  C   UNL     1       1.939   5.117  20.350  0.00  0.00    +0.000 A 
ATOM      5  C   UNL     1       2.659   3.942  20.273  0.00  0.00    +0.000 A 
ATOM      6  N   UNL     1       3.874   3.901  19.677  0.00  0.00    +0.000 NA
ENDROOT
BRANCH   3   7
ATOM      7  C   UNL     1       1.936   7.565  19.981  0.00  0.00    +0.000 A 
ATOM      8  C   UNL     1       1.289   8.212  21.011  0.00  0.00    +0.000 A 
ATOM      9  C   UNL     1       0.835   9.451  20.488  0.00  0.00    +0.000 A 
ATOM     10  C   UNL     1       1.259   9.494  19.181  0.00  0.00    +0.000 A 
ATOM     11  O   UNL     1       1.935   8.363  18.868  0.00  0.00    +0.000 OA
ENDBRANCH   3   7
BRANCH   5  12
ATOM     12  C   UNL     1       2.118   2.684  20.933  0.00  0.00    +0.000 C 
ATOM     13  F   UNL     1       2.957   2.176  21.884  0.00  0.00    +0.000 F 
ATOM     14  F   UNL     1       0.927   2.880  21.565  0.00  0.00    +0.000 F 
ATOM     15  F   UNL     1       1.920   1.667  20.048  0.00  0.00    +0.000 F 
ENDBRANCH   5  12
BRANCH   1  16
ATOM     16  S   UNL     1       6.000   4.935  18.503  0.00  0.00    +0.000 S 
BRANCH  16  17
ATOM     17  C   UNL     1       5.676   3.969  16.993  0.00  0.00    +0.000 C 
BRANCH  17  19
ATOM     18  O   UNL     1       7.847   4.600  16.176  0.00  0.00    +0.000 OA
ATOM     19  C   UNL     1       6.703   4.245  15.900  0.00  0.00    +0.000 C 
ATOM     20  N   UNL     1       6.248   4.159  14.607  0.00  0.00    +0.000 N 
ATOM     21  H   UNL     1       5.297   3.842  14.448  0.00  0.00    +0.000 HD
BRANCH  20  22
ATOM     22  C   UNL     1       7.067   4.397  13.430  0.00  0.00    +0.000 C 
BRANCH  22  23
ATOM     23  C   UNL     1       6.394   3.887  12.155  0.00  0.00    +0.000 C 
ATOM     24  C   UNL     1       4.879   3.772  12.249  0.00  0.00    +0.000 C 
ATOM     25  C   UNL     1       4.584   2.670  11.265  0.00  0.00    +0.000 C 
ATOM     26  C   UNL     1       5.775   1.752  11.437  0.00  0.00    +0.000 C 
ATOM     27  O   UNL     1       6.887   2.572  11.820  0.00  0.00    +0.000 OA
ENDBRANCH  22  23
ENDBRANCH  20  22
ENDBRANCH  17  19
ENDBRANCH  16  17
ENDBRANCH   1  16
TORSDOF 7
ENDMDL
MODEL 4
REMARK VINA RESULT:      -7.6      0.590      1.104
REMARK  Name = 
REMARK  7 active torsions:
REMARK  status: ('A' for Active; 'I' for Inactive)
REMARK    1  A    between atoms: C_2  and  C_3
REMARK    2  A    between atoms: C_3  and  S_4
REMARK    3  A    between atoms: S_4  and  C_5
REMARK    4  A    between atoms: C_7  and  C_8
REMARK    5  A    between atoms: C_14  and  C_15
REMARK    6  A    between atoms: N_20  and  C_21
REMARK    7  A    between atoms: C_21  and  C_22
REMARK                            x       y       z     vdW  Elec       q    Type
REMARK                         _______ _______ _______ _____ _____    ______ ____
ROOT
ATOM      1  C   UNL     1       4.901   3.907  17.407  0.00  0.00    +0.000 A 
ATOM      2  N   UNL     1       5.129   3.956  16.088  0.00  0.00    +0.000 NA
ATOM      3  C   UNL     1       6.252   4.595  15.699  0.00  0.00    +0.000 A 
ATOM      4  C   UNL     1       7.119   5.203  16.583  0.00  0.00    +0.000 A 
ATOM      5  C   UNL     1       6.811   5.099  17.924  0.00  0.00    +0.000 A 
ATOM      6  N   UNL     1       5.692   4.458  18.339  0.00  0.00    +0.000 NA
ENDROOT
BRANCH   3   7
ATOM      7  C   UNL     1       6.555   4.510  14.275  0.00  0.00    +0.000 A 
ATOM      8  C   UNL     1       6.157   3.676  13.253  0.00  0.00    +0.000 A 
ATOM      9  C   UNL     1       6.912   4.048  12.109  0.00  0.00    +0.000 A 
ATOM     10  C   UNL     1       7.702   5.103  12.499  0.00  0.00    +0.000 A 
ATOM     11  O   UNL     1       7.485   5.398  13.803  0.00  0.00    +0.000 OA
ENDBRANCH   3   7
BRANCH   5  12
ATOM     12  C   UNL     1       7.777   5.645  18.962  0.00  0.00    +0.000 C 
ATOM     13  F   UNL     1       7.202   5.819  20.189  0.00  0.00    +0.000 F 
ATOM     14  F   UNL     1       8.851   4.833  19.176  0.00  0.00    +0.000 F 
ATOM     15  F   UNL     1       8.281   6.866  18.625  0.00  0.00    +0.000 F 
ENDBRANCH   5  12
BRANCH   1  16
ATOM     16  S   UNL     1       3.512   3.004  18.028  0.00  0.00    +0.000 S 
BRANCH  16  17
ATOM     17  C   UNL     1       3.685   3.304  19.816  0.00  0.00    +0.000 C 
BRANCH  17  19
ATOM     18  O   UNL     1       1.611   4.012  20.805  0.00  0.00    +0.000 OA
ATOM     19  C   UNL     1       2.694   4.345  20.326  0.00  0.00    +0.000 C 
ATOM     20  N   UNL     1       3.046   5.659  20.137  0.00  0.00    +0.000 N 
ATOM     21  H   UNL     1       3.962   5.864  19.754  0.00  0.00    +0.000 HD
BRANCH  20  22
ATOM     22  C   UNL     1       2.232   6.793  20.542  0.00  0.00    +0.000 C 
BRANCH  22  23
ATOM     23  C   UNL     1       1.643   7.530  19.337  0.00  0.00    +0.000 C 
ATOM     24  C   UNL     1       2.640   7.802  18.220  0.00  0.00    +0.000 C 
ATOM     25  C   UNL     1       2.071   9.044  17.585  0.00  0.00    +0.000 C 
ATOM     26  C   UNL     1       1.512   9.793  18.775  0.00  0.00    +0.000 C 
ATOM     27  O   UNL     1       1.118   8.812  19.743  0.00  0.00    +0.000 OA
ENDBRANCH  22  23
ENDBRANCH  20  22
ENDBRANCH  17  19
ENDBRANCH  16  17
ENDBRANCH   1  16
TORSDOF 7
ENDMDL
MODEL 5
REMARK VINA RESULT:      -7.5      0.774      1.115
REMARK  Name = 
REMARK  7 active torsions:
REMARK  status: ('A' for Active; 'I' for Inactive)
REMARK    1  A    between atoms: C_2  and  C_3
REMARK    2  A    between atoms: C_3  and  S_4
REMARK    3  A    between atoms: S_4  and  C_5
REMARK    4  A    between atoms: C_7  and  C_8
REMARK    5  A    between atoms: C_14  and  C_15
REMARK    6  A    between atoms: N_20  and  C_21
REMARK    7  A    between atoms: C_21  and  C_22
REMARK                            x       y       z     vdW  Elec       q    Type
REMARK                         _______ _______ _______ _____ _____    ______ ____
ROOT
ATOM      1  C   UNL     1       4.851   3.768  17.317  0.00  0.00    +0.000 A 
ATOM      2  N   UNL     1       5.108   3.837  16.005  0.00  0.00    +0.000 NA
ATOM      3  C   UNL     1       6.203   4.538  15.646  0.00  0.00    +0.000 A 
ATOM      4  C   UNL     1       7.015   5.186  16.553  0.00  0.00    +0.000 A 
ATOM      5  C   UNL     1       6.682   5.058  17.886  0.00  0.00    +0.000 A 
ATOM      6  N   UNL     1       5.590   4.355  18.271  0.00  0.00    +0.000 NA
ENDROOT
BRANCH   3   7
ATOM      7  C   UNL     1       6.543   4.478  14.229  0.00  0.00    +0.000 A 
ATOM      8  C   UNL     1       6.172   3.662  13.182  0.00  0.00    +0.000 A 
ATOM      9  C   UNL     1       6.957   4.053  12.066  0.00  0.00    +0.000 A 
ATOM     10  C   UNL     1       7.738   5.101  12.495  0.00  0.00    +0.000 A 
ATOM     11  O   UNL     1       7.486   5.373  13.798  0.00  0.00    +0.000 OA
ENDBRANCH   3   7
BRANCH   5  12
ATOM     12  C   UNL     1       7.592   5.649  18.949  0.00  0.00    +0.000 C 
ATOM     13  F   UNL     1       8.744   4.935  19.124  0.00  0.00    +0.000 F 
ATOM     14  F   UNL     1       7.992   6.921  18.667  0.00  0.00    +0.000 F 
ATOM     15  F   UNL     1       7.007   5.695  20.180  0.00  0.00    +0.000 F 
ENDBRANCH   5  12
BRANCH   1  16
ATOM     16  S   UNL     1       3.499   2.788  17.901  0.00  0.00    +0.000 S 
BRANCH  16  17
ATOM     17  C   UNL     1       2.139   3.997  17.807  0.00  0.00    +0.000 C 
BRANCH  17  19
ATOM     18  O   UNL     1       1.069   3.802  19.951  0.00  0.00    +0.000 OA
ATOM     19  C   UNL     1       1.723   4.506  19.182  0.00  0.00    +0.000 C 
ATOM     20  N   UNL     1       2.042   5.812  19.467  0.00  0.00    +0.000 N 
ATOM     21  H   UNL     1       2.599   6.330  18.796  0.00  0.00    +0.000 HD
BRANCH  20  22
ATOM     22  C   UNL     1       1.722   6.482  20.716  0.00  0.00    +0.000 C 
BRANCH  22  23
ATOM     23  C   UNL     1       1.763   8.005  20.571  0.00  0.00    +0.000 C 
ATOM     24  C   UNL     1       0.485   8.710  21.000  0.00  0.00    +0.000 C 
ATOM     25  C   UNL     1       0.508   9.952  20.148  0.00  0.00    +0.000 C 
ATOM     26  C   UNL     1       1.114   9.450  18.856  0.00  0.00    +0.000 C 
ATOM     27  O   UNL     1       1.995   8.370  19.194  0.00  0.00    +0.000 OA
ENDBRANCH  22  23
ENDBRANCH  20  22
ENDBRANCH  17  19
ENDBRANCH  16  17
ENDBRANCH   1  16
TORSDOF 7
ENDMDL
MODEL 6
REMARK VINA RESULT:      -7.5      4.368      6.978
REMARK  Name = 
REMARK  7 active torsions:
REMARK  status: ('A' for Active; 'I' for Inactive)
REMARK    1  A    between atoms: C_2  and  C_3
REMARK    2  A    between atoms: C_3  and  S_4
REMARK    3  A    between atoms: S_4  and  C_5
REMARK    4  A    between atoms: C_7  and  C_8
REMARK    5  A    between atoms: C_14  and  C_15
REMARK    6  A    between atoms: N_20  and  C_21
REMARK    7  A    between atoms: C_21  and  C_22
REMARK                            x       y       z     vdW  Elec       q    Type
REMARK                         _______ _______ _______ _____ _____    ______ ____
ROOT
ATOM      1  C   UNL     1       5.112   4.943  17.811  0.00  0.00    +0.000 A 
ATOM      2  N   UNL     1       4.483   6.120  17.926  0.00  0.00    +0.000 NA
ATOM      3  C   UNL     1       3.178   6.069  18.265  0.00  0.00    +0.000 A 
ATOM      4  C   UNL     1       2.493   4.887  18.456  0.00  0.00    +0.000 A 
ATOM      5  C   UNL     1       3.219   3.721  18.323  0.00  0.00    +0.000 A 
ATOM      6  N   UNL     1       4.532   3.747  17.989  0.00  0.00    +0.000 NA
ENDROOT
BRANCH   3   7
ATOM      7  C   UNL     1       2.553   7.361  18.528  0.00  0.00    +0.000 A 
ATOM      8  C   UNL     1       1.850   7.895  19.586  0.00  0.00    +0.000 A 
ATOM      9  C   UNL     1       1.401   9.175  19.169  0.00  0.00    +0.000 A 
ATOM     10  C   UNL     1       1.881   9.353  17.893  0.00  0.00    +0.000 A 
ATOM     11  O   UNL     1       2.589   8.267  17.501  0.00  0.00    +0.000 OA
ENDBRANCH   3   7
BRANCH   5  12
ATOM     12  C   UNL     1       2.561   2.386  18.630  0.00  0.00    +0.000 C 
ATOM     13  F   UNL     1       1.299   2.282  18.117  0.00  0.00    +0.000 F 
ATOM     14  F   UNL     1       3.248   1.322  18.126  0.00  0.00    +0.000 F 
ATOM     15  F   UNL     1       2.427   2.158  19.967  0.00  0.00    +0.000 F 
ENDBRANCH   5  12
BRANCH   1  16
ATOM     16  S   UNL     1       6.848   4.901  17.471  0.00  0.00    +0.000 S 
BRANCH  16  17
ATOM     17  C   UNL     1       7.138   6.628  16.972  0.00  0.00    +0.000 C 
BRANCH  17  19
ATOM     18  O   UNL     1       8.368   6.855  19.025  0.00  0.00    +0.000 OA
ATOM     19  C   UNL     1       7.926   7.408  18.019  0.00  0.00    +0.000 C 
ATOM     20  N   UNL     1       8.031   8.762  17.813  0.00  0.00    +0.000 N 
ATOM     21  H   UNL     1       7.661   9.151  16.953  0.00  0.00    +0.000 HD
BRANCH  20  22
ATOM     22  C   UNL     1       8.730   9.676  18.702  0.00  0.00    +0.000 C 
BRANCH  22  23
ATOM     23  C   UNL     1       9.423  10.801  17.931  0.00  0.00    +0.000 C 
ATOM     24  C   UNL     1      10.630  11.396  18.641  0.00  0.00    +0.000 C 
ATOM     25  C   UNL     1      10.654  12.802  18.100  0.00  0.00    +0.000 C 
ATOM     26  C   UNL     1       9.181  13.123  17.962  0.00  0.00    +0.000 C 
ATOM     27  O   UNL     1       8.502  11.888  17.699  0.00  0.00    +0.000 OA
ENDBRANCH  22  23
ENDBRANCH  20  22
ENDBRANCH  17  19
ENDBRANCH  16  17
ENDBRANCH   1  16
TORSDOF 7
ENDMDL
MODEL 7
REMARK VINA RESULT:      -7.5      0.635      1.038
REMARK  Name = 
REMARK  7 active torsions:
REMARK  status: ('A' for Active; 'I' for Inactive)
REMARK    1  A    between atoms: C_2  and  C_3
REMARK    2  A    between atoms: C_3  and  S_4
REMARK    3  A    between atoms: S_4  and  C_5
REMARK    4  A    between atoms: C_7  and  C_8
REMARK    5  A    between atoms: C_14  and  C_15
REMARK    6  A    between atoms: N_20  and  C_21
REMARK    7  A    between atoms: C_21  and  C_22
REMARK                            x       y       z     vdW  Elec       q    Type
REMARK                         _______ _______ _______ _____ _____    ______ ____
ROOT
ATOM      1  C   UNL     1       4.823   3.842  17.175  0.00  0.00    +0.000 A 
ATOM      2  N   UNL     1       5.105   3.912  15.868  0.00  0.00    +0.000 NA
ATOM      3  C   UNL     1       6.224   4.585  15.532  0.00  0.00    +0.000 A 
ATOM      4  C   UNL     1       7.036   5.208  16.458  0.00  0.00    +0.000 A 
ATOM      5  C   UNL     1       6.676   5.082  17.784  0.00  0.00    +0.000 A 
ATOM      6  N   UNL     1       5.559   4.406  18.145  0.00  0.00    +0.000 NA
ENDROOT
BRANCH   3   7
ATOM      7  C   UNL     1       6.588   4.524  14.121  0.00  0.00    +0.000 A 
ATOM      8  C   UNL     1       6.232   3.710  13.068  0.00  0.00    +0.000 A 
ATOM      9  C   UNL     1       7.038   4.097  11.966  0.00  0.00    +0.000 A 
ATOM     10  C   UNL     1       7.815   5.141  12.408  0.00  0.00    +0.000 A 
ATOM     11  O   UNL     1       7.543   5.415  13.706  0.00  0.00    +0.000 OA
ENDBRANCH   3   7
BRANCH   5  12
ATOM     12  C   UNL     1       7.582   5.643  18.866  0.00  0.00    +0.000 C 
ATOM     13  F   UNL     1       8.710   4.898  19.060  0.00  0.00    +0.000 F 
ATOM     14  F   UNL     1       8.021   6.905  18.597  0.00  0.00    +0.000 F 
ATOM     15  F   UNL     1       6.975   5.701  20.086  0.00  0.00    +0.000 F 
ENDBRANCH   5  12
BRANCH   1  16
ATOM     16  S   UNL     1       3.435   2.896  17.729  0.00  0.00    +0.000 S 
BRANCH  16  17
ATOM     17  C   UNL     1       3.877   2.636  19.477  0.00  0.00    +0.000 C 
BRANCH  17  19
ATOM     18  O   UNL     1       2.760   3.031  21.569  0.00  0.00    +0.000 OA
ATOM     19  C   UNL     1       2.977   3.423  20.423  0.00  0.00    +0.000 C 
ATOM     20  N   UNL     1       2.364   4.532  19.894  0.00  0.00    +0.000 N 
ATOM     21  H   UNL     1       2.602   4.811  18.948  0.00  0.00    +0.000 HD
BRANCH  20  22
ATOM     22  C   UNL     1       1.464   5.403  20.630  0.00  0.00    +0.000 C 
BRANCH  22  23
ATOM     23  C   UNL     1       1.929   6.860  20.599  0.00  0.00    +0.000 C 
ATOM     24  C   UNL     1       0.892   7.860  21.089  0.00  0.00    +0.000 C 
ATOM     25  C   UNL     1       1.271   9.106  20.331  0.00  0.00    +0.000 C 
ATOM     26  C   UNL     1       1.731   8.551  19.000  0.00  0.00    +0.000 C 
ATOM     27  O   UNL     1       2.271   7.247  19.251  0.00  0.00    +0.000 OA
ENDBRANCH  22  23
ENDBRANCH  20  22
ENDBRANCH  17  19
ENDBRANCH  16  17
ENDBRANCH   1  16
TORSDOF 7
ENDMDL
MODEL 8
REMARK VINA RESULT:      -7.4      3.101      7.388
REMARK  Name = 
REMARK  7 active torsions:
REMARK  status: ('A' for Active; 'I' for Inactive)
REMARK    1  A    between atoms: C_2  and  C_3
REMARK    2  A    between atoms: C_3  and  S_4
REMARK    3  A    between atoms: S_4  and  C_5
REMARK    4  A    between atoms: C_7  and  C_8
REMARK    5  A    between atoms: C_14  and  C_15
REMARK    6  A    between atoms: N_20  and  C_21
REMARK    7  A    between atoms: C_21  and  C_22
REMARK                            x       y       z     vdW  Elec       q    Type
REMARK                         _______ _______ _______ _____ _____    ______ ____
ROOT
ATOM      1  C   UNL     1       4.293   4.868  18.622  0.00  0.00    +0.000 A 
ATOM      2  N   UNL     1       3.838   6.121  18.495  0.00  0.00    +0.000 NA
ATOM      3  C   UNL     1       2.575   6.344  18.912  0.00  0.00    +0.000 A 
ATOM      4  C   UNL     1       1.760   5.351  19.415  0.00  0.00    +0.000 A 
ATOM      5  C   UNL     1       2.310   4.089  19.517  0.00  0.00    +0.000 A 
ATOM      6  N   UNL     1       3.578   3.842  19.109  0.00  0.00    +0.000 NA
ENDROOT
BRANCH   3   7
ATOM      7  C   UNL     1       2.153   7.740  18.901  0.00  0.00    +0.000 A 
ATOM      8  C   UNL     1       1.492   8.555  19.794  0.00  0.00    +0.000 A 
ATOM      9  C   UNL     1       1.277   9.792  19.131  0.00  0.00    +0.000 A 
ATOM     10  C   UNL     1       1.845   9.663  17.886  0.00  0.00    +0.000 A 
ATOM     11  O   UNL     1       2.388   8.430  17.741  0.00  0.00    +0.000 OA
ENDBRANCH   3   7
BRANCH   5  12
ATOM     12  C   UNL     1       1.512   2.971  20.165  0.00  0.00    +0.000 C 
ATOM     13  F   UNL     1       0.304   2.757  19.565  0.00  0.00    +0.000 F 
ATOM     14  F   UNL     1       2.152   1.768  20.134  0.00  0.00    +0.000 F 
ATOM     15  F   UNL     1       1.225   3.218  21.475  0.00  0.00    +0.000 F 
ENDBRANCH   5  12
BRANCH   1  16
ATOM     16  S   UNL     1       5.969   4.490  18.200  0.00  0.00    +0.000 S 
BRANCH  16  17
ATOM     17  C   UNL     1       6.476   6.045  17.398  0.00  0.00    +0.000 C 
BRANCH  17  19
ATOM     18  O   UNL     1       5.364   6.602  15.340  0.00  0.00    +0.000 OA
ATOM     19  C   UNL     1       6.290   6.003  15.885  0.00  0.00    +0.000 C 
ATOM     20  N   UNL     1       7.156   5.193  15.191  0.00  0.00    +0.000 N 
ATOM     21  H   UNL     1       7.908   4.742  15.700  0.00  0.00    +0.000 HD
BRANCH  20  22
ATOM     22  C   UNL     1       7.132   5.010  13.750  0.00  0.00    +0.000 C 
BRANCH  22  23
ATOM     23  C   UNL     1       6.394   3.731  13.350  0.00  0.00    +0.000 C 
ATOM     24  C   UNL     1       6.868   3.117  12.041  0.00  0.00    +0.000 C 
ATOM     25  C   UNL     1       5.630   2.406  11.559  0.00  0.00    +0.000 C 
ATOM     26  C   UNL     1       4.524   3.336  12.009  0.00  0.00    +0.000 C 
ATOM     27  O   UNL     1       4.983   3.995  13.196  0.00  0.00    +0.000 OA
ENDBRANCH  22  23
ENDBRANCH  20  22
ENDBRANCH  17  19
ENDBRANCH  16  17
ENDBRANCH   1  16
TORSDOF 7
ENDMDL
MODEL 9
REMARK VINA RESULT:      -7.4      1.196      1.406
REMARK  Name = 
REMARK  7 active torsions:
REMARK  status: ('A' for Active; 'I' for Inactive)
REMARK    1  A    between atoms: C_2  and  C_3
REMARK    2  A    between atoms: C_3  and  S_4
REMARK    3  A    between atoms: S_4  and  C_5
REMARK    4  A    between atoms: C_7  and  C_8
REMARK    5  A    between atoms: C_14  and  C_15
REMARK    6  A    between atoms: N_20  and  C_21
REMARK    7  A    between atoms: C_21  and  C_22
REMARK                            x       y       z     vdW  Elec       q    Type
REMARK                         _______ _______ _______ _____ _____    ______ ____
ROOT
ATOM      1  C   UNL     1       4.900   3.778  17.343  0.00  0.00    +0.000 A 
ATOM      2  N   UNL     1       5.136   3.855  16.027  0.00  0.00    +0.000 NA
ATOM      3  C   UNL     1       6.235   4.543  15.655  0.00  0.00    +0.000 A 
ATOM      4  C   UNL     1       7.071   5.173  16.554  0.00  0.00    +0.000 A 
ATOM      5  C   UNL     1       6.758   5.038  17.892  0.00  0.00    +0.000 A 
ATOM      6  N   UNL     1       5.662   4.347  18.289  0.00  0.00    +0.000 NA
ENDROOT
BRANCH   3   7
ATOM      7  C   UNL     1       6.551   4.490  14.232  0.00  0.00    +0.000 A 
ATOM      8  C   UNL     1       6.154   3.686  13.186  0.00  0.00    +0.000 A 
ATOM      9  C   UNL     1       6.925   4.077  12.060  0.00  0.00    +0.000 A 
ATOM     10  C   UNL     1       7.723   5.114  12.483  0.00  0.00    +0.000 A 
ATOM     11  O   UNL     1       7.496   5.379  13.792  0.00  0.00    +0.000 OA
ENDBRANCH   3   7
BRANCH   5  12
ATOM     12  C   UNL     1       7.694   5.607  18.944  0.00  0.00    +0.000 C 
ATOM     13  F   UNL     1       8.193   6.833  18.610  0.00  0.00    +0.000 F 
ATOM     14  F   UNL     1       7.097   5.776  20.158  0.00  0.00    +0.000 F 
ATOM     15  F   UNL     1       8.786   4.820  19.161  0.00  0.00    +0.000 F 
ENDBRANCH   5  12
BRANCH   1  16
ATOM     16  S   UNL     1       3.543   2.813  17.941  0.00  0.00    +0.000 S 
BRANCH  16  17
ATOM     17  C   UNL     1       2.190   4.029  17.838  0.00  0.00    +0.000 C 
BRANCH  17  19
ATOM     18  O   UNL     1       2.500   5.224  19.900  0.00  0.00    +0.000 OA
ATOM     19  C   UNL     1       2.468   5.274  18.672  0.00  0.00    +0.000 C 
ATOM     20  N   UNL     1       2.589   6.454  17.978  0.00  0.00    +0.000 N 
ATOM     21  H   UNL     1       2.572   6.422  16.964  0.00  0.00    +0.000 HD
BRANCH  20  22
ATOM     22  C   UNL     1       2.842   7.746  18.592  0.00  0.00    +0.000 C 
BRANCH  22  23
ATOM     23  C   UNL     1       1.590   8.626  18.603  0.00  0.00    +0.000 C 
ATOM     24  C   UNL     1       1.780   9.994  17.964  0.00  0.00    +0.000 C 
ATOM     25  C   UNL     1       0.764  10.830  18.697  0.00  0.00    +0.000 C 
ATOM     26  C   UNL     1       0.807  10.245  20.092  0.00  0.00    +0.000 C 
ATOM     27  O   UNL     1       1.156   8.861  19.960  0.00  0.00    +0.000 OA
ENDBRANCH  22  23
ENDBRANCH  20  22
ENDBRANCH  17  19
ENDBRANCH  16  17
ENDBRANCH   1  16
TORSDOF 7
ENDMDL
