MODEL 1
REMARK VINA RESULT:      -8.7      0.000      0.000
REMARK  Name = 
REMARK  7 active torsions:
REMARK  status: ('A' for Active; 'I' for Inactive)
REMARK    1  A    between atoms: C_1  and  C_2
REMARK    2  A    between atoms: C_5  and  C_6
REMARK    3  A    between atoms: C_6  and  C_8
REMARK    4  A    between atoms: N_15  and  C_16
REMARK    5  A    between atoms: C_16  and  C_17
REMARK    6  A    between atoms: C_20  and  C_21
REMARK    7  A    between atoms: N_23  and  O_24
REMARK                            x       y       z     vdW  Elec       q    Type
REMARK                         _______ _______ _______ _____ _____    ______ ____
ROOT
ATOM      1  C   UNL     1       0.707  10.052  20.544  0.00  0.00    +0.000 A 
ATOM      2  C   UNL     1       0.769   8.945  21.414  0.00  0.00    +0.000 A 
ATOM      3  C   UNL     1       1.405   7.750  21.053  0.00  0.00    +0.000 A 
ATOM      4  C   UNL     1       1.904   7.690  19.744  0.00  0.00    +0.000 A 
ATOM      5  C   UNL     1       1.956   8.820  18.917  0.00  0.00    +0.000 A 
ATOM      6  C   UNL     1       2.530   8.408  17.688  0.00  0.00    +0.000 A 
ATOM      7  C   UNL     1       2.339   7.046  17.656  0.00  0.00    +0.000 A 
ATOM      8  N   UNL     1       2.439   6.665  18.981  0.00  0.00    +0.000 N 
ATOM      9  C   UNL     1       1.427  10.047  19.348  0.00  0.00    +0.000 A 
ENDROOT
BRANCH   1  10
ATOM     10  C   UNL     1      -0.344  11.103  20.712  0.00  0.00    +0.000 C 
ATOM     11  O   UNL     1      -0.339  11.866  21.672  0.00  0.00    +0.000 OA
BRANCH  10  16
ATOM     12  C   UNL     1      -4.859  11.031  17.117  0.00  0.00    +0.000 C 
ATOM     13  C   UNL     1      -3.623  11.126  17.960  0.00  0.00    +0.000 A 
ATOM     14  C   UNL     1      -2.592  10.198  17.805  0.00  0.00    +0.000 A 
ATOM     15  C   UNL     1      -1.467  10.262  18.619  0.00  0.00    +0.000 A 
ATOM     16  C   UNL     1      -1.395  11.215  19.650  0.00  0.00    +0.000 A 
ATOM     17  C   UNL     1      -2.378  12.193  19.764  0.00  0.00    +0.000 A 
ATOM     18  C   UNL     1      -3.492  12.144  18.920  0.00  0.00    +0.000 A 
ENDBRANCH  10  16
ENDBRANCH   1  10
BRANCH   8  19
ATOM     19  C   UNL     1       3.566   5.818  19.361  0.00  0.00    +0.000 C 
BRANCH  19  20
ATOM     20  C   UNL     1       4.458   5.364  18.249  0.00  0.00    +0.000 A 
ATOM     21  C   UNL     1       4.171   4.239  17.466  0.00  0.00    +0.000 A 
ATOM     22  C   UNL     1       4.909   3.982  16.305  0.00  0.00    +0.000 A 
ATOM     23  C   UNL     1       5.930   4.854  15.900  0.00  0.00    +0.000 A 
ATOM     24  C   UNL     1       6.232   5.964  16.695  0.00  0.00    +0.000 A 
ATOM     25  C   UNL     1       5.505   6.208  17.860  0.00  0.00    +0.000 A 
BRANCH  23  26
ATOM     26  C   UNL     1       6.612   4.587  14.604  0.00  0.00    +0.000 C 
ATOM     27  O   UNL     1       7.587   5.263  14.238  0.00  0.00    +0.000 OA
ATOM     28  N   UNL     1       6.130   3.574  13.811  0.00  0.00    +0.000 N 
ATOM     29  H   UNL     1       5.299   3.021  13.962  0.00  0.00    +0.000 HD
BRANCH  28  30
ATOM     30  O   UNL     1       6.809   3.360  12.589  0.00  0.00    +0.000 OA
ATOM     31  H   UNL     1       6.808   2.380  12.523  0.00  0.00    +0.000 HD
ENDBRANCH  28  30
ENDBRANCH  23  26
ENDBRANCH  19  20
ENDBRANCH   8  19
TORSDOF 6
ENDMDL
MODEL 2
REMARK VINA RESULT:      -8.5      3.491     10.545
REMARK  Name = 
REMARK  7 active torsions:
REMARK  status: ('A' for Active; 'I' for Inactive)
REMARK    1  A    between atoms: C_1  and  C_2
REMARK    2  A    between atoms: C_5  and  C_6
REMARK    3  A    between atoms: C_6  and  C_8
REMARK    4  A    between atoms: N_15  and  C_16
REMARK    5  A    between atoms: C_16  and  C_17
REMARK    6  A    between atoms: C_20  and  C_21
REMARK    7  A    between atoms: N_23  and  O_24
REMARK                            x       y       z     vdW  Elec       q    Type
REMARK                         _______ _______ _______ _____ _____    ______ ____
ROOT
ATOM      1  C   UNL     1       2.374   7.078  18.691  0.00  0.00    +0.000 A 
ATOM      2  C   UNL     1       2.046   8.169  17.860  0.00  0.00    +0.000 A 
ATOM      3  C   UNL     1       1.405   9.312  18.353  0.00  0.00    +0.000 A 
ATOM      4  C   UNL     1       1.033   9.275  19.705  0.00  0.00    +0.000 A 
ATOM      5  C   UNL     1       1.458   8.253  20.564  0.00  0.00    +0.000 A 
ATOM      6  C   UNL     1       0.921   8.537  21.844  0.00  0.00    +0.000 A 
ATOM      7  C   UNL     1      -0.141   9.375  21.596  0.00  0.00    +0.000 A 
ATOM      8  N   UNL     1       0.266  10.111  20.499  0.00  0.00    +0.000 N 
ATOM      9  C   UNL     1       2.214   7.175  20.074  0.00  0.00    +0.000 A 
ENDROOT
BRANCH   1  10
ATOM     10  C   UNL     1       2.597   5.715  18.116  0.00  0.00    +0.000 C 
ATOM     11  O   UNL     1       1.755   4.830  18.220  0.00  0.00    +0.000 OA
BRANCH  10  16
ATOM     12  C   UNL     1       7.074   4.852  14.576  0.00  0.00    +0.000 C 
ATOM     13  C   UNL     1       5.996   5.057  15.598  0.00  0.00    +0.000 A 
ATOM     14  C   UNL     1       5.267   3.968  16.081  0.00  0.00    +0.000 A 
ATOM     15  C   UNL     1       4.239   4.167  16.995  0.00  0.00    +0.000 A 
ATOM     16  C   UNL     1       3.879   5.470  17.380  0.00  0.00    +0.000 A 
ATOM     17  C   UNL     1       4.646   6.555  16.967  0.00  0.00    +0.000 A 
ATOM     18  C   UNL     1       5.702   6.345  16.074  0.00  0.00    +0.000 A 
ENDBRANCH  10  16
ENDBRANCH   1  10
BRANCH   8  19
ATOM     19  C   UNL     1       0.481  11.543  20.685  0.00  0.00    +0.000 C 
BRANCH  19  20
ATOM     20  C   UNL     1      -0.701  12.337  21.145  0.00  0.00    +0.000 A 
ATOM     21  C   UNL     1      -1.877  12.441  20.392  0.00  0.00    +0.000 A 
ATOM     22  C   UNL     1      -3.026  13.004  20.956  0.00  0.00    +0.000 A 
ATOM     23  C   UNL     1      -3.024  13.452  22.286  0.00  0.00    +0.000 A 
ATOM     24  C   UNL     1      -1.843  13.370  23.029  0.00  0.00    +0.000 A 
ATOM     25  C   UNL     1      -0.694  12.823  22.458  0.00  0.00    +0.000 A 
BRANCH  23  26
ATOM     26  C   UNL     1      -4.303  13.947  22.865  0.00  0.00    +0.000 C 
ATOM     27  O   UNL     1      -5.400  13.575  22.414  0.00  0.00    +0.000 OA
ATOM     28  N   UNL     1      -4.246  14.836  23.910  0.00  0.00    +0.000 N 
ATOM     29  H   UNL     1      -3.422  15.272  24.297  0.00  0.00    +0.000 HD
BRANCH  28  30
ATOM     30  O   UNL     1      -5.487  15.278  24.424  0.00  0.00    +0.000 OA
ATOM     31  H   UNL     1      -5.945  14.429  24.610  0.00  0.00    +0.000 HD
ENDBRANCH  28  30
ENDBRANCH  23  26
ENDBRANCH  19  20
ENDBRANCH   8  19
TORSDOF 6
ENDMDL
MODEL 3
REMARK VINA RESULT:      -8.5      1.573      2.576
REMARK  Name = 
REMARK  7 active torsions:
REMARK  status: ('A' for Active; 'I' for Inactive)
REMARK    1  A    between atoms: C_1  and  C_2
REMARK    2  A    between atoms: C_5  and  C_6
REMARK    3  A    between atoms: C_6  and  C_8
REMARK    4  A    between atoms: N_15  and  C_16
REMARK    5  A    between atoms: C_16  and  C_17
REMARK    6  A    between atoms: C_20  and  C_21
REMARK    7  A    between atoms: N_23  and  O_24
REMARK                            x       y       z     vdW  Elec       q    Type
REMARK                         _______ _______ _______ _____ _____    ______ ____
ROOT
ATOM      1  C   UNL     1       1.749   8.622  18.353  0.00  0.00    +0.000 A 
ATOM      2  C   UNL     1       2.870   8.185  17.618  0.00  0.00    +0.000 A 
ATOM      3  C   UNL     1       3.532   6.986  17.914  0.00  0.00    +0.000 A 
ATOM      4  C   UNL     1       3.066   6.287  19.037  0.00  0.00    +0.000 A 
ATOM      5  C   UNL     1       1.884   6.647  19.699  0.00  0.00    +0.000 A 
ATOM      6  C   UNL     1       1.707   5.726  20.760  0.00  0.00    +0.000 A 
ATOM      7  C   UNL     1       2.961   5.208  20.984  0.00  0.00    +0.000 A 
ATOM      8  N   UNL     1       3.539   5.183  19.728  0.00  0.00    +0.000 N 
ATOM      9  C   UNL     1       1.161   7.784  19.303  0.00  0.00    +0.000 A 
ENDROOT
BRANCH   1  10
ATOM     10  C   UNL     1       1.357  10.065  18.369  0.00  0.00    +0.000 C 
ATOM     11  O   UNL     1       2.183  10.956  18.203  0.00  0.00    +0.000 OA
BRANCH  10  16
ATOM     12  C   UNL     1      -4.076  11.996  18.646  0.00  0.00    +0.000 C 
ATOM     13  C   UNL     1      -2.703  11.394  18.656  0.00  0.00    +0.000 A 
ATOM     14  C   UNL     1      -1.780  11.763  19.637  0.00  0.00    +0.000 A 
ATOM     15  C   UNL     1      -0.493  11.237  19.617  0.00  0.00    +0.000 A 
ATOM     16  C   UNL     1      -0.092  10.392  18.568  0.00  0.00    +0.000 A 
ATOM     17  C   UNL     1      -1.024   9.956  17.630  0.00  0.00    +0.000 A 
ATOM     18  C   UNL     1      -2.327  10.462  17.675  0.00  0.00    +0.000 A 
ENDBRANCH  10  16
ENDBRANCH   1  10
BRANCH   8  19
ATOM     19  C   UNL     1       3.841   3.879  19.146  0.00  0.00    +0.000 C 
BRANCH  19  20
ATOM     20  C   UNL     1       4.676   3.886  17.903  0.00  0.00    +0.000 A 
ATOM     21  C   UNL     1       4.132   3.668  16.631  0.00  0.00    +0.000 A 
ATOM     22  C   UNL     1       4.902   3.901  15.487  0.00  0.00    +0.000 A 
ATOM     23  C   UNL     1       6.218   4.374  15.597  0.00  0.00    +0.000 A 
ATOM     24  C   UNL     1       6.768   4.569  16.867  0.00  0.00    +0.000 A 
ATOM     25  C   UNL     1       6.003   4.320  18.006  0.00  0.00    +0.000 A 
BRANCH  23  26
ATOM     26  C   UNL     1       6.954   4.703  14.345  0.00  0.00    +0.000 C 
ATOM     27  O   UNL     1       6.636   4.192  13.258  0.00  0.00    +0.000 OA
ATOM     28  N   UNL     1       8.006   5.583  14.418  0.00  0.00    +0.000 N 
ATOM     29  H   UNL     1       8.407   5.988  15.252  0.00  0.00    +0.000 HD
BRANCH  28  30
ATOM     30  O   UNL     1       8.675   5.861  13.204  0.00  0.00    +0.000 OA
ATOM     31  H   UNL     1       8.030   6.441  12.743  0.00  0.00    +0.000 HD
ENDBRANCH  28  30
ENDBRANCH  23  26
ENDBRANCH  19  20
ENDBRANCH   8  19
TORSDOF 6
ENDMDL
MODEL 4
REMARK VINA RESULT:      -8.4      3.380      8.646
REMARK  Name = 
REMARK  7 active torsions:
REMARK  status: ('A' for Active; 'I' for Inactive)
REMARK    1  A    between atoms: C_1  and  C_2
REMARK    2  A    between atoms: C_5  and  C_6
REMARK    3  A    between atoms: C_6  and  C_8
REMARK    4  A    between atoms: N_15  and  C_16
REMARK    5  A    between atoms: C_16  and  C_17
REMARK    6  A    between atoms: C_20  and  C_21
REMARK    7  A    between atoms: N_23  and  O_24
REMARK                            x       y       z     vdW  Elec       q    Type
REMARK                         _______ _______ _______ _____ _____    ______ ____
ROOT
ATOM      1  C   UNL     1       2.546   6.636  19.271  0.00  0.00    +0.000 A 
ATOM      2  C   UNL     1       1.881   6.862  20.494  0.00  0.00    +0.000 A 
ATOM      3  C   UNL     1       1.232   8.071  20.774  0.00  0.00    +0.000 A 
ATOM      4  C   UNL     1       1.353   9.075  19.803  0.00  0.00    +0.000 A 
ATOM      5  C   UNL     1       1.904   8.822  18.539  0.00  0.00    +0.000 A 
ATOM      6  C   UNL     1       1.851  10.038  17.814  0.00  0.00    +0.000 A 
ATOM      7  C   UNL     1       1.748  11.014  18.778  0.00  0.00    +0.000 A 
ATOM      8  N   UNL     1       1.003  10.415  19.777  0.00  0.00    +0.000 N 
ATOM      9  C   UNL     1       2.436   7.560  18.230  0.00  0.00    +0.000 A 
ENDROOT
BRANCH   1  10
ATOM     10  C   UNL     1       3.612   5.593  19.158  0.00  0.00    +0.000 C 
ATOM     11  O   UNL     1       3.847   4.814  20.076  0.00  0.00    +0.000 OA
BRANCH  10  16
ATOM     12  C   UNL     1       7.058   4.745  14.605  0.00  0.00    +0.000 C 
ATOM     13  C   UNL     1       6.092   5.050  15.711  0.00  0.00    +0.000 A 
ATOM     14  C   UNL     1       6.323   6.125  16.571  0.00  0.00    +0.000 A 
ATOM     15  C   UNL     1       5.450   6.378  17.623  0.00  0.00    +0.000 A 
ATOM     16  C   UNL     1       4.372   5.510  17.870  0.00  0.00    +0.000 A 
ATOM     17  C   UNL     1       4.087   4.483  16.975  0.00  0.00    +0.000 A 
ATOM     18  C   UNL     1       4.950   4.254  15.899  0.00  0.00    +0.000 A 
ENDBRANCH  10  16
ENDBRANCH   1  10
BRANCH   8  19
ATOM     19  C   UNL     1      -0.326  10.954  20.049  0.00  0.00    +0.000 C 
BRANCH  19  20
ATOM     20  C   UNL     1      -1.296  10.931  18.910  0.00  0.00    +0.000 A 
ATOM     21  C   UNL     1      -1.433  12.000  18.016  0.00  0.00    +0.000 A 
ATOM     22  C   UNL     1      -2.185  11.849  16.846  0.00  0.00    +0.000 A 
ATOM     23  C   UNL     1      -2.794  10.622  16.543  0.00  0.00    +0.000 A 
ATOM     24  C   UNL     1      -2.677   9.562  17.447  0.00  0.00    +0.000 A 
ATOM     25  C   UNL     1      -1.940   9.721  18.620  0.00  0.00    +0.000 A 
BRANCH  23  26
ATOM     26  C   UNL     1      -3.494  10.488  15.236  0.00  0.00    +0.000 C 
ATOM     27  O   UNL     1      -4.699  10.768  15.119  0.00  0.00    +0.000 OA
ATOM     28  N   UNL     1      -2.778  10.036  14.155  0.00  0.00    +0.000 N 
ATOM     29  H   UNL     1      -1.826   9.698  14.150  0.00  0.00    +0.000 HD
BRANCH  28  30
ATOM     30  O   UNL     1      -3.487   9.924  12.937  0.00  0.00    +0.000 OA
ATOM     31  H   UNL     1      -2.758   9.864  12.280  0.00  0.00    +0.000 HD
ENDBRANCH  28  30
ENDBRANCH  23  26
ENDBRANCH  19  20
ENDBRANCH   8  19
TORSDOF 6
ENDMDL
MODEL 5
REMARK VINA RESULT:      -8.4      3.971      8.770
REMARK  Name = 
REMARK  7 active torsions:
REMARK  status: ('A' for Active; 'I' for Inactive)
REMARK    1  A    between atoms: C_1  and  C_2
REMARK    2  A    between atoms: C_5  and  C_6
REMARK    3  A    between atoms: C_6  and  C_8
REMARK    4  A    between atoms: N_15  and  C_16
REMARK    5  A    between atoms: C_16  and  C_17
REMARK    6  A    between atoms: C_20  and  C_21
REMARK    7  A    between atoms: N_23  and  O_24
REMARK                            x       y       z     vdW  Elec       q    Type
REMARK                         _______ _______ _______ _____ _____    ______ ____
ROOT
ATOM      1  C   UNL     1       2.189   7.724  19.164  0.00  0.00    +0.000 A 
ATOM      2  C   UNL     1       1.921   8.418  17.967  0.00  0.00    +0.000 A 
ATOM      3  C   UNL     1       1.164   9.596  17.944  0.00  0.00    +0.000 A 
ATOM      4  C   UNL     1       0.617  10.000  19.171  0.00  0.00    +0.000 A 
ATOM      5  C   UNL     1       0.975   9.389  20.380  0.00  0.00    +0.000 A 
ATOM      6  C   UNL     1       0.259  10.053  21.407  0.00  0.00    +0.000 A 
ATOM      7  C   UNL     1      -0.802  10.647  20.762  0.00  0.00    +0.000 A 
ATOM      8  N   UNL     1      -0.289  10.986  19.524  0.00  0.00    +0.000 N 
ATOM      9  C   UNL     1       1.842   8.285  20.395  0.00  0.00    +0.000 A 
ENDROOT
BRANCH   1  10
ATOM     10  C   UNL     1       2.554   6.273  19.146  0.00  0.00    +0.000 C 
ATOM     11  O   UNL     1       2.185   5.508  20.030  0.00  0.00    +0.000 OA
BRANCH  10  16
ATOM     12  C   UNL     1       6.240   4.085  15.280  0.00  0.00    +0.000 C 
ATOM     13  C   UNL     1       5.207   4.693  16.180  0.00  0.00    +0.000 A 
ATOM     14  C   UNL     1       5.295   6.037  16.546  0.00  0.00    +0.000 A 
ATOM     15  C   UNL     1       4.360   6.587  17.417  0.00  0.00    +0.000 A 
ATOM     16  C   UNL     1       3.368   5.774  17.991  0.00  0.00    +0.000 A 
ATOM     17  C   UNL     1       3.222   4.454  17.575  0.00  0.00    +0.000 A 
ATOM     18  C   UNL     1       4.145   3.916  16.672  0.00  0.00    +0.000 A 
ENDBRANCH  10  16
ENDBRANCH   1  10
BRANCH   8  19
ATOM     19  C   UNL     1      -0.172  12.406  19.204  0.00  0.00    +0.000 C 
BRANCH  19  20
ATOM     20  C   UNL     1       1.207  12.985  19.256  0.00  0.00    +0.000 A 
ATOM     21  C   UNL     1       1.924  13.325  18.102  0.00  0.00    +0.000 A 
ATOM     22  C   UNL     1       3.108  14.063  18.201  0.00  0.00    +0.000 A 
ATOM     23  C   UNL     1       3.581  14.489  19.451  0.00  0.00    +0.000 A 
ATOM     24  C   UNL     1       2.877  14.130  20.604  0.00  0.00    +0.000 A 
ATOM     25  C   UNL     1       1.706  13.380  20.503  0.00  0.00    +0.000 A 
BRANCH  23  26
ATOM     26  C   UNL     1       4.789  15.359  19.487  0.00  0.00    +0.000 C 
ATOM     27  O   UNL     1       5.771  15.068  20.190  0.00  0.00    +0.000 OA
ATOM     28  N   UNL     1       4.793  16.503  18.727  0.00  0.00    +0.000 N 
ATOM     29  H   UNL     1       4.026  16.883  18.191  0.00  0.00    +0.000 HD
BRANCH  28  30
ATOM     30  O   UNL     1       5.960  17.296  18.796  0.00  0.00    +0.000 OA
ATOM     31  H   UNL     1       6.645  16.633  19.035  0.00  0.00    +0.000 HD
ENDBRANCH  28  30
ENDBRANCH  23  26
ENDBRANCH  19  20
ENDBRANCH   8  19
TORSDOF 6
ENDMDL
MODEL 6
REMARK VINA RESULT:      -8.4      1.835      2.709
REMARK  Name = 
REMARK  7 active torsions:
REMARK  status: ('A' for Active; 'I' for Inactive)
REMARK    1  A    between atoms: C_1  and  C_2
REMARK    2  A    between atoms: C_5  and  C_6
REMARK    3  A    between atoms: C_6  and  C_8
REMARK    4  A    between atoms: N_15  and  C_16
REMARK    5  A    between atoms: C_16  and  C_17
REMARK    6  A    between atoms: C_20  and  C_21
REMARK    7  A    between atoms: N_23  and  O_24
REMARK                            x       y       z     vdW  Elec       q    Type
REMARK                         _______ _______ _______ _____ _____    ______ ____
ROOT
ATOM      1  C   UNL     1       0.863   8.968  20.774  0.00  0.00    +0.000 A 
ATOM      2  C   UNL     1       1.423   9.169  19.497  0.00  0.00    +0.000 A 
ATOM      3  C   UNL     1       2.062   8.139  18.795  0.00  0.00    +0.000 A 
ATOM      4  C   UNL     1       2.186   6.917  19.471  0.00  0.00    +0.000 A 
ATOM      5  C   UNL     1       1.530   6.671  20.685  0.00  0.00    +0.000 A 
ATOM      6  C   UNL     1       1.855   5.347  21.071  0.00  0.00    +0.000 A 
ATOM      7  C   UNL     1       3.012   5.060  20.384  0.00  0.00    +0.000 A 
ATOM      8  N   UNL     1       2.869   5.744  19.192  0.00  0.00    +0.000 N 
ATOM      9  C   UNL     1       0.784   7.682  21.313  0.00  0.00    +0.000 A 
ENDROOT
BRANCH   1  10
ATOM     10  C   UNL     1       0.630  10.119  21.701  0.00  0.00    +0.000 C 
ATOM     11  O   UNL     1       0.683   9.984  22.918  0.00  0.00    +0.000 OA
BRANCH  10  16
ATOM     12  C   UNL     1      -0.259  14.913  18.610  0.00  0.00    +0.000 C 
ATOM     13  C   UNL     1      -0.054  13.742  19.523  0.00  0.00    +0.000 A 
ATOM     14  C   UNL     1       1.207  13.483  20.064  0.00  0.00    +0.000 A 
ATOM     15  C   UNL     1       1.405  12.371  20.874  0.00  0.00    +0.000 A 
ATOM     16  C   UNL     1       0.356  11.460  21.091  0.00  0.00    +0.000 A 
ATOM     17  C   UNL     1      -0.923  11.747  20.622  0.00  0.00    +0.000 A 
ATOM     18  C   UNL     1      -1.123  12.887  19.836  0.00  0.00    +0.000 A 
ENDBRANCH  10  16
ENDBRANCH   1  10
BRANCH   8  19
ATOM     19  C   UNL     1       2.746   4.959  17.968  0.00  0.00    +0.000 C 
BRANCH  19  20
ATOM     20  C   UNL     1       3.959   4.900  17.094  0.00  0.00    +0.000 A 
ATOM     21  C   UNL     1       4.432   3.704  16.541  0.00  0.00    +0.000 A 
ATOM     22  C   UNL     1       5.428   3.726  15.560  0.00  0.00    +0.000 A 
ATOM     23  C   UNL     1       5.951   4.944  15.101  0.00  0.00    +0.000 A 
ATOM     24  C   UNL     1       5.496   6.137  15.670  0.00  0.00    +0.000 A 
ATOM     25  C   UNL     1       4.515   6.110  16.660  0.00  0.00    +0.000 A 
BRANCH  23  26
ATOM     26  C   UNL     1       6.934   4.912  13.983  0.00  0.00    +0.000 C 
ATOM     27  O   UNL     1       7.988   5.566  14.034  0.00  0.00    +0.000 OA
ATOM     28  N   UNL     1       6.644   4.144  12.882  0.00  0.00    +0.000 N 
ATOM     29  H   UNL     1       5.786   3.645  12.693  0.00  0.00    +0.000 HD
BRANCH  28  30
ATOM     30  O   UNL     1       7.606   4.148  11.846  0.00  0.00    +0.000 OA
ATOM     31  H   UNL     1       7.649   3.197  11.603  0.00  0.00    +0.000 HD
ENDBRANCH  28  30
ENDBRANCH  23  26
ENDBRANCH  19  20
ENDBRANCH   8  19
TORSDOF 6
ENDMDL
MODEL 7
REMARK VINA RESULT:      -8.4      3.837      8.605
REMARK  Name = 
REMARK  7 active torsions:
REMARK  status: ('A' for Active; 'I' for Inactive)
REMARK    1  A    between atoms: C_1  and  C_2
REMARK    2  A    between atoms: C_5  and  C_6
REMARK    3  A    between atoms: C_6  and  C_8
REMARK    4  A    between atoms: N_15  and  C_16
REMARK    5  A    between atoms: C_16  and  C_17
REMARK    6  A    between atoms: C_20  and  C_21
REMARK    7  A    between atoms: N_23  and  O_24
REMARK                            x       y       z     vdW  Elec       q    Type
REMARK                         _______ _______ _______ _____ _____    ______ ____
ROOT
ATOM      1  C   UNL     1       2.252   7.512  18.913  0.00  0.00    +0.000 A 
ATOM      2  C   UNL     1       1.893   8.283  17.789  0.00  0.00    +0.000 A 
ATOM      3  C   UNL     1       1.138   9.458  17.904  0.00  0.00    +0.000 A 
ATOM      4  C   UNL     1       0.690   9.778  19.194  0.00  0.00    +0.000 A 
ATOM      5  C   UNL     1       1.140   9.090  20.329  0.00  0.00    +0.000 A 
ATOM      6  C   UNL     1       0.508   9.681  21.450  0.00  0.00    +0.000 A 
ATOM      7  C   UNL     1      -0.598  10.313  20.931  0.00  0.00    +0.000 A 
ATOM      8  N   UNL     1      -0.184  10.736  19.682  0.00  0.00    +0.000 N 
ATOM      9  C   UNL     1       2.003   7.989  20.201  0.00  0.00    +0.000 A 
ENDROOT
BRANCH   1  10
ATOM     10  C   UNL     1       2.612   6.067  18.770  0.00  0.00    +0.000 C 
ATOM     11  O   UNL     1       1.998   5.191  19.370  0.00  0.00    +0.000 OA
BRANCH  10  16
ATOM     12  C   UNL     1       6.390   4.873  14.572  0.00  0.00    +0.000 C 
ATOM     13  C   UNL     1       5.506   5.151  15.750  0.00  0.00    +0.000 A 
ATOM     14  C   UNL     1       4.743   4.127  16.316  0.00  0.00    +0.000 A 
ATOM     15  C   UNL     1       3.890   4.398  17.380  0.00  0.00    +0.000 A 
ATOM     16  C   UNL     1       3.735   5.717  17.842  0.00  0.00    +0.000 A 
ATOM     17  C   UNL     1       4.545   6.730  17.340  0.00  0.00    +0.000 A 
ATOM     18  C   UNL     1       5.427   6.445  16.292  0.00  0.00    +0.000 A 
ENDBRANCH  10  16
ENDBRANCH   1  10
BRANCH   8  19
ATOM     19  C   UNL     1      -0.089  12.174  19.449  0.00  0.00    +0.000 C 
BRANCH  19  20
ATOM     20  C   UNL     1       1.291  12.753  19.431  0.00  0.00    +0.000 A 
ATOM     21  C   UNL     1       1.949  13.093  18.242  0.00  0.00    +0.000 A 
ATOM     22  C   UNL     1       3.136  13.831  18.281  0.00  0.00    +0.000 A 
ATOM     23  C   UNL     1       3.673  14.256  19.505  0.00  0.00    +0.000 A 
ATOM     24  C   UNL     1       3.029  13.896  20.693  0.00  0.00    +0.000 A 
ATOM     25  C   UNL     1       1.854  13.146  20.651  0.00  0.00    +0.000 A 
BRANCH  23  26
ATOM     26  C   UNL     1       4.882  15.125  19.480  0.00  0.00    +0.000 C 
ATOM     27  O   UNL     1       5.148  15.885  20.425  0.00  0.00    +0.000 OA
ATOM     28  N   UNL     1       5.699  15.074  18.377  0.00  0.00    +0.000 N 
ATOM     29  H   UNL     1       5.538  14.565  17.520  0.00  0.00    +0.000 HD
BRANCH  28  30
ATOM     30  O   UNL     1       6.832  15.919  18.399  0.00  0.00    +0.000 OA
ATOM     31  H   UNL     1       6.439  16.795  18.193  0.00  0.00    +0.000 HD
ENDBRANCH  28  30
ENDBRANCH  23  26
ENDBRANCH  19  20
ENDBRANCH   8  19
TORSDOF 6
ENDMDL
MODEL 8
REMARK VINA RESULT:      -8.3      3.730      5.100
REMARK  Name = 
REMARK  7 active torsions:
REMARK  status: ('A' for Active; 'I' for Inactive)
REMARK    1  A    between atoms: C_1  and  C_2
REMARK    2  A    between atoms: C_5  and  C_6
REMARK    3  A    between atoms: C_6  and  C_8
REMARK    4  A    between atoms: N_15  and  C_16
REMARK    5  A    between atoms: C_16  and  C_17
REMARK    6  A    between atoms: C_20  and  C_21
REMARK    7  A    between atoms: N_23  and  O_24
REMARK                            x       y       z     vdW  Elec       q    Type
REMARK                         _______ _______ _______ _____ _____    ______ ____
ROOT
ATOM      1  C   UNL     1      -1.163  11.464  22.660  0.00  0.00    +0.000 A 
ATOM      2  C   UNL     1      -0.837  10.195  23.181  0.00  0.00    +0.000 A 
ATOM      3  C   UNL     1      -0.088   9.262  22.452  0.00  0.00    +0.000 A 
ATOM      4  C   UNL     1       0.248   9.631  21.142  0.00  0.00    +0.000 A 
ATOM      5  C   UNL     1       0.035  10.929  20.658  0.00  0.00    +0.000 A 
ATOM      6  C   UNL     1       0.505  10.955  19.321  0.00  0.00    +0.000 A 
ATOM      7  C   UNL     1       0.506   9.636  18.928  0.00  0.00    +0.000 A 
ATOM      8  N   UNL     1       0.823   8.947  20.083  0.00  0.00    +0.000 N 
ATOM      9  C   UNL     1      -0.604  11.893  21.454  0.00  0.00    +0.000 A 
ENDROOT
BRANCH   1  10
ATOM     10  C   UNL     1      -2.323  12.240  23.197  0.00  0.00    +0.000 C 
ATOM     11  O   UNL     1      -3.300  11.680  23.682  0.00  0.00    +0.000 OA
BRANCH  10  16
ATOM     12  C   UNL     1      -2.552  17.989  23.669  0.00  0.00    +0.000 C 
ATOM     13  C   UNL     1      -2.410  16.514  23.442  0.00  0.00    +0.000 A 
ATOM     14  C   UNL     1      -3.275  15.849  22.570  0.00  0.00    +0.000 A 
ATOM     15  C   UNL     1      -3.170  14.474  22.395  0.00  0.00    +0.000 A 
ATOM     16  C   UNL     1      -2.243  13.736  23.151  0.00  0.00    +0.000 A 
ATOM     17  C   UNL     1      -1.324  14.395  23.963  0.00  0.00    +0.000 A 
ATOM     18  C   UNL     1      -1.413  15.783  24.109  0.00  0.00    +0.000 A 
ENDBRANCH  10  16
ENDBRANCH   1  10
BRANCH   8  19
ATOM     19  C   UNL     1       2.097   8.235  20.121  0.00  0.00    +0.000 C 
BRANCH  19  20
ATOM     20  C   UNL     1       2.062   6.792  19.724  0.00  0.00    +0.000 A 
ATOM     21  C   UNL     1       2.593   6.333  18.512  0.00  0.00    +0.000 A 
ATOM     22  C   UNL     1       2.738   4.961  18.282  0.00  0.00    +0.000 A 
ATOM     23  C   UNL     1       2.374   4.030  19.266  0.00  0.00    +0.000 A 
ATOM     24  C   UNL     1       1.823   4.488  20.466  0.00  0.00    +0.000 A 
ATOM     25  C   UNL     1       1.664   5.856  20.685  0.00  0.00    +0.000 A 
BRANCH  23  26
ATOM     26  C   UNL     1       2.647   2.589  19.007  0.00  0.00    +0.000 C 
ATOM     27  O   UNL     1       1.759   1.731  19.144  0.00  0.00    +0.000 OA
ATOM     28  N   UNL     1       3.912   2.224  18.618  0.00  0.00    +0.000 N 
ATOM     29  H   UNL     1       4.729   2.816  18.559  0.00  0.00    +0.000 HD
BRANCH  28  30
ATOM     30  O   UNL     1       4.123   0.846  18.386  0.00  0.00    +0.000 OA
ATOM     31  H   UNL     1       4.512   0.846  17.484  0.00  0.00    +0.000 HD
ENDBRANCH  28  30
ENDBRANCH  23  26
ENDBRANCH  19  20
ENDBRANCH   8  19
TORSDOF 6
ENDMDL
MODEL 9
REMARK VINA RESULT:      -8.3      3.903      8.827
REMARK  Name = 
REMARK  7 active torsions:
REMARK  status: ('A' for Active; 'I' for Inactive)
REMARK    1  A    between atoms: C_1  and  C_2
REMARK    2  A    between atoms: C_5  and  C_6
REMARK    3  A    between atoms: C_6  and  C_8
REMARK    4  A    between atoms: N_15  and  C_16
REMARK    5  A    between atoms: C_16  and  C_17
REMARK    6  A    between atoms: C_20  and  C_21
REMARK    7  A    between atoms: N_23  and  O_24
REMARK                            x       y       z     vdW  Elec       q    Type
REMARK                         _______ _______ _______ _____ _____    ______ ____
ROOT
ATOM      1  C   UNL     1       2.232   7.479  19.523  0.00  0.00    +0.000 A 
ATOM      2  C   UNL     1       2.126   7.944  18.197  0.00  0.00    +0.000 A 
ATOM      3  C   UNL     1       1.409   9.102  17.870  0.00  0.00    +0.000 A 
ATOM      4  C   UNL     1       0.735   9.728  18.928  0.00  0.00    +0.000 A 
ATOM      5  C   UNL     1       0.931   9.346  20.263  0.00  0.00    +0.000 A 
ATOM      6  C   UNL     1       0.119  10.191  21.059  0.00  0.00    +0.000 A 
ATOM      7  C   UNL     1      -0.842  10.663  20.195  0.00  0.00    +0.000 A 
ATOM      8  N   UNL     1      -0.179  10.767  18.986  0.00  0.00    +0.000 N 
ATOM      9  C   UNL     1       1.759   8.258  20.581  0.00  0.00    +0.000 A 
ENDROOT
BRANCH   1  10
ATOM     10  C   UNL     1       2.557   6.047  19.812  0.00  0.00    +0.000 C 
ATOM     11  O   UNL     1       2.061   5.458  20.765  0.00  0.00    +0.000 OA
BRANCH  10  16
ATOM     12  C   UNL     1       6.020   3.979  15.683  0.00  0.00    +0.000 C 
ATOM     13  C   UNL     1       5.149   4.405  16.826  0.00  0.00    +0.000 A 
ATOM     14  C   UNL     1       3.808   4.018  16.871  0.00  0.00    +0.000 A 
ATOM     15  C   UNL     1       2.991   4.452  17.909  0.00  0.00    +0.000 A 
ATOM     16  C   UNL     1       3.491   5.342  18.876  0.00  0.00    +0.000 A 
ATOM     17  C   UNL     1       4.843   5.671  18.886  0.00  0.00    +0.000 A 
ATOM     18  C   UNL     1       5.668   5.204  17.858  0.00  0.00    +0.000 A 
ENDBRANCH  10  16
ENDBRANCH   1  10
BRANCH   8  19
ATOM     19  C   UNL     1       0.014  12.103  18.431  0.00  0.00    +0.000 C 
BRANCH  19  20
ATOM     20  C   UNL     1       1.264  12.817  18.841  0.00  0.00    +0.000 A 
ATOM     21  C   UNL     1       2.403  12.867  18.028  0.00  0.00    +0.000 A 
ATOM     22  C   UNL     1       3.461  13.724  18.350  0.00  0.00    +0.000 A 
ATOM     23  C   UNL     1       3.387  14.558  19.476  0.00  0.00    +0.000 A 
ATOM     24  C   UNL     1       2.260  14.491  20.299  0.00  0.00    +0.000 A 
ATOM     25  C   UNL     1       1.214  13.623  19.985  0.00  0.00    +0.000 A 
BRANCH  23  26
ATOM     26  C   UNL     1       4.496  15.523  19.711  0.00  0.00    +0.000 C 
ATOM     27  O   UNL     1       5.443  15.244  20.464  0.00  0.00    +0.000 OA
ATOM     28  N   UNL     1       4.446  16.741  19.079  0.00  0.00    +0.000 N 
ATOM     29  H   UNL     1       3.690  17.109  18.519  0.00  0.00    +0.000 HD
BRANCH  28  30
ATOM     30  O   UNL     1       5.520  17.624  19.335  0.00  0.00    +0.000 OA
ATOM     31  H   UNL     1       6.283  17.134  18.956  0.00  0.00    +0.000 HD
ENDBRANCH  28  30
ENDBRANCH  23  26
ENDBRANCH  19  20
ENDBRANCH   8  19
TORSDOF 6
ENDMDL
