MODEL 1
REMARK VINA RESULT:      -7.6      0.000      0.000
REMARK  Name = 
REMARK  5 active torsions:
REMARK  status: ('A' for Active; 'I' for Inactive)
REMARK    1  A    between atoms: C_1  and  N_2
REMARK    2  A    between atoms: N_2  and  C_18
REMARK    3  A    between atoms: N_5  and  C_6
REMARK    4  A    between atoms: C_9  and  C_10
REMARK    5  A    between atoms: N_21  and  C_22
REMARK                            x       y       z     vdW  Elec       q    Type
REMARK                         _______ _______ _______ _____ _____    ______ ____
ROOT
ATOM      1  C   UNL     1       7.836   5.740  19.438  0.00  0.00    +0.000 C 
ATOM      2  N   UNL     1       7.577   6.504  18.221  0.00  0.00    +0.000 N 
ATOM      3  C   UNL     1       7.894   7.848  18.020  0.00  0.00    +0.000 C 
ATOM      4  O   UNL     1       7.457   8.430  17.028  0.00  0.00    +0.000 OA
ATOM      5  N   UNL     1       8.702   8.435  18.970  0.00  0.00    +0.000 N 
ATOM      6  H   UNL     1       9.227   7.827  19.573  0.00  0.00    +0.000 HD
ENDROOT
BRANCH   5   7
ATOM      7  C   UNL     1       9.080   9.798  19.009  0.00  0.00    +0.000 A 
ATOM      8  C   UNL     1       9.096  10.616  17.883  0.00  0.00    +0.000 A 
ATOM      9  C   UNL     1       9.513  11.947  17.965  0.00  0.00    +0.000 A 
ATOM     10  C   UNL     1       9.892  12.531  19.182  0.00  0.00    +0.000 A 
ATOM     11  C   UNL     1       9.853  11.702  20.318  0.00  0.00    +0.000 A 
ATOM     12  C   UNL     1       9.454  10.356  20.235  0.00  0.00    +0.000 A 
BRANCH  10  13
ATOM     13  C   UNL     1      10.292  13.957  19.243  0.00  0.00    +0.000 A 
ATOM     14  C   UNL     1      10.029  14.830  18.168  0.00  0.00    +0.000 A 
ATOM     15  C   UNL     1      10.411  16.174  18.199  0.00  0.00    +0.000 A 
ATOM     16  C   UNL     1      11.055  16.684  19.319  0.00  0.00    +0.000 A 
ATOM     17  C   UNL     1      11.322  15.850  20.402  0.00  0.00    +0.000 A 
ATOM     18  C   UNL     1      10.951  14.501  20.360  0.00  0.00    +0.000 A 
ENDBRANCH  10  13
ENDBRANCH   5   7
BRANCH   2  19
ATOM     19  C   UNL     1       6.717   5.892  17.185  0.00  0.00    +0.000 C 
ATOM     20  C   UNL     1       7.166   4.533  16.654  0.00  0.00    +0.000 C 
ATOM     21  C   UNL     1       5.903   3.972  16.020  0.00  0.00    +0.000 C 
ATOM     22  N   UNL     1       4.818   4.418  16.925  0.00  0.00    +0.000 N 
ATOM     23  C   UNL     1       5.261   5.647  17.644  0.00  0.00    +0.000 C 
BRANCH  22  24
ATOM     24  C   UNL     1       3.616   3.840  17.036  0.00  0.00    +0.000 C 
ATOM     25  N   UNL     1       2.587   3.323  17.129  0.00  0.00    +0.000 NA
ENDBRANCH  22  24
ENDBRANCH   2  19
TORSDOF 4
ENDMDL
MODEL 2
REMARK VINA RESULT:      -7.5      0.140      1.381
REMARK  Name = 
REMARK  5 active torsions:
REMARK  status: ('A' for Active; 'I' for Inactive)
REMARK    1  A    between atoms: C_1  and  N_2
REMARK    2  A    between atoms: N_2  and  C_18
REMARK    3  A    between atoms: N_5  and  C_6
REMARK    4  A    between atoms: C_9  and  C_10
REMARK    5  A    between atoms: N_21  and  C_22
REMARK                            x       y       z     vdW  Elec       q    Type
REMARK                         _______ _______ _______ _____ _____    ______ ____
ROOT
ATOM      1  C   UNL     1       7.901   5.731  19.392  0.00  0.00    +0.000 C 
ATOM      2  N   UNL     1       7.607   6.537  18.212  0.00  0.00    +0.000 N 
ATOM      3  C   UNL     1       7.914   7.889  18.051  0.00  0.00    +0.000 C 
ATOM      4  O   UNL     1       7.449   8.505  17.093  0.00  0.00    +0.000 OA
ATOM      5  N   UNL     1       8.746   8.444  18.998  0.00  0.00    +0.000 N 
ATOM      6  H   UNL     1       9.289   7.816  19.564  0.00  0.00    +0.000 HD
ENDROOT
BRANCH   5   7
ATOM      7  C   UNL     1       9.122   9.806  19.076  0.00  0.00    +0.000 A 
ATOM      8  C   UNL     1       9.338  10.468  20.281  0.00  0.00    +0.000 A 
ATOM      9  C   UNL     1       9.672  11.824  20.307  0.00  0.00    +0.000 A 
ATOM     10  C   UNL     1       9.846  12.568  19.131  0.00  0.00    +0.000 A 
ATOM     11  C   UNL     1       9.645  11.885  17.918  0.00  0.00    +0.000 A 
ATOM     12  C   UNL     1       9.289  10.525  17.888  0.00  0.00    +0.000 A 
BRANCH  10  13
ATOM     13  C   UNL     1      10.239  13.996  19.192  0.00  0.00    +0.000 A 
ATOM     14  C   UNL     1      10.692  14.572  20.396  0.00  0.00    +0.000 A 
ATOM     15  C   UNL     1      11.052  15.920  20.479  0.00  0.00    +0.000 A 
ATOM     16  C   UNL     1      10.984  16.725  19.349  0.00  0.00    +0.000 A 
ATOM     17  C   UNL     1      10.548  16.184  18.142  0.00  0.00    +0.000 A 
ATOM     18  C   UNL     1      10.173  14.838  18.068  0.00  0.00    +0.000 A 
ENDBRANCH  10  13
ENDBRANCH   5   7
BRANCH   2  19
ATOM     19  C   UNL     1       6.719   5.960  17.178  0.00  0.00    +0.000 C 
ATOM     20  C   UNL     1       7.146   4.612  16.600  0.00  0.00    +0.000 C 
ATOM     21  C   UNL     1       5.866   4.079  15.979  0.00  0.00    +0.000 C 
ATOM     22  N   UNL     1       4.804   4.508  16.918  0.00  0.00    +0.000 N 
ATOM     23  C   UNL     1       5.272   5.713  17.660  0.00  0.00    +0.000 C 
BRANCH  22  24
ATOM     24  C   UNL     1       3.599   3.936  17.040  0.00  0.00    +0.000 C 
ATOM     25  N   UNL     1       2.558   3.443  17.124  0.00  0.00    +0.000 NA
ENDBRANCH  22  24
ENDBRANCH   2  19
TORSDOF 4
ENDMDL
MODEL 3
REMARK VINA RESULT:      -7.3      7.042      8.221
REMARK  Name = 
REMARK  5 active torsions:
REMARK  status: ('A' for Active; 'I' for Inactive)
REMARK    1  A    between atoms: C_1  and  N_2
REMARK    2  A    between atoms: N_2  and  C_18
REMARK    3  A    between atoms: N_5  and  C_6
REMARK    4  A    between atoms: C_9  and  C_10
REMARK    5  A    between atoms: N_21  and  C_22
REMARK                            x       y       z     vdW  Elec       q    Type
REMARK                         _______ _______ _______ _____ _____    ______ ____
ROOT
ATOM      1  C   UNL     1       4.583   3.786  17.621  0.00  0.00    +0.000 C 
ATOM      2  N   UNL     1       4.724   5.136  17.085  0.00  0.00    +0.000 N 
ATOM      3  C   UNL     1       4.024   6.263  17.519  0.00  0.00    +0.000 C 
ATOM      4  O   UNL     1       4.090   7.304  16.867  0.00  0.00    +0.000 OA
ATOM      5  N   UNL     1       3.301   6.122  18.684  0.00  0.00    +0.000 N 
ATOM      6  H   UNL     1       3.529   5.347  19.281  0.00  0.00    +0.000 HD
ENDROOT
BRANCH   5   7
ATOM      7  C   UNL     1       2.459   7.102  19.260  0.00  0.00    +0.000 A 
ATOM      8  C   UNL     1       2.107   8.281  18.610  0.00  0.00    +0.000 A 
ATOM      9  C   UNL     1       1.302   9.236  19.236  0.00  0.00    +0.000 A 
ATOM     10  C   UNL     1       0.779   9.037  20.522  0.00  0.00    +0.000 A 
ATOM     11  C   UNL     1       1.123   7.834  21.163  0.00  0.00    +0.000 A 
ATOM     12  C   UNL     1       1.951   6.879  20.544  0.00  0.00    +0.000 A 
BRANCH  10  13
ATOM     13  C   UNL     1      -0.105  10.053  21.142  0.00  0.00    +0.000 A 
ATOM     14  C   UNL     1      -0.387  10.021  22.523  0.00  0.00    +0.000 A 
ATOM     15  C   UNL     1      -1.230  10.959  23.125  0.00  0.00    +0.000 A 
ATOM     16  C   UNL     1      -1.802  11.967  22.359  0.00  0.00    +0.000 A 
ATOM     17  C   UNL     1      -1.536  12.032  20.994  0.00  0.00    +0.000 A 
ATOM     18  C   UNL     1      -0.704  11.080  20.393  0.00  0.00    +0.000 A 
ENDBRANCH  10  13
ENDBRANCH   5   7
BRANCH   2  19
ATOM     19  C   UNL     1       5.501   5.312  15.838  0.00  0.00    +0.000 C 
ATOM     20  C   UNL     1       6.984   4.957  15.913  0.00  0.00    +0.000 C 
ATOM     21  C   UNL     1       7.372   4.772  14.455  0.00  0.00    +0.000 C 
ATOM     22  N   UNL     1       6.186   4.126  13.846  0.00  0.00    +0.000 N 
ATOM     23  C   UNL     1       4.979   4.474  14.650  0.00  0.00    +0.000 C 
BRANCH  22  24
ATOM     24  C   UNL     1       6.192   3.394  12.725  0.00  0.00    +0.000 C 
ATOM     25  N   UNL     1       6.185   2.776  11.749  0.00  0.00    +0.000 NA
ENDBRANCH  22  24
ENDBRANCH   2  19
TORSDOF 4
ENDMDL
MODEL 4
REMARK VINA RESULT:      -7.3      7.067      8.196
REMARK  Name = 
REMARK  5 active torsions:
REMARK  status: ('A' for Active; 'I' for Inactive)
REMARK    1  A    between atoms: C_1  and  N_2
REMARK    2  A    between atoms: N_2  and  C_18
REMARK    3  A    between atoms: N_5  and  C_6
REMARK    4  A    between atoms: C_9  and  C_10
REMARK    5  A    between atoms: N_21  and  C_22
REMARK                            x       y       z     vdW  Elec       q    Type
REMARK                         _______ _______ _______ _____ _____    ______ ____
ROOT
ATOM      1  C   UNL     1       4.264   3.778  17.644  0.00  0.00    +0.000 C 
ATOM      2  N   UNL     1       4.556   5.148  17.231  0.00  0.00    +0.000 N 
ATOM      3  C   UNL     1       3.921   6.295  17.708  0.00  0.00    +0.000 C 
ATOM      4  O   UNL     1       4.121   7.373  17.149  0.00  0.00    +0.000 OA
ATOM      5  N   UNL     1       3.104   6.131  18.806  0.00  0.00    +0.000 N 
ATOM      6  H   UNL     1       3.223   5.296  19.352  0.00  0.00    +0.000 HD
ENDROOT
BRANCH   5   7
ATOM      7  C   UNL     1       2.306   7.136  19.402  0.00  0.00    +0.000 A 
ATOM      8  C   UNL     1       1.840   7.060  20.711  0.00  0.00    +0.000 A 
ATOM      9  C   UNL     1       1.023   8.060  21.244  0.00  0.00    +0.000 A 
ATOM     10  C   UNL     1       0.670   9.200  20.507  0.00  0.00    +0.000 A 
ATOM     11  C   UNL     1       1.162   9.277  19.192  0.00  0.00    +0.000 A 
ATOM     12  C   UNL     1       1.968   8.262  18.645  0.00  0.00    +0.000 A 
BRANCH  10  13
ATOM     13  C   UNL     1      -0.166  10.263  21.114  0.00  0.00    +0.000 A 
ATOM     14  C   UNL     1      -0.679  11.317  20.332  0.00  0.00    +0.000 A 
ATOM     15  C   UNL     1      -1.455  12.338  20.889  0.00  0.00    +0.000 A 
ATOM     16  C   UNL     1      -1.753  12.319  22.245  0.00  0.00    +0.000 A 
ATOM     17  C   UNL     1      -1.269  11.286  23.044  0.00  0.00    +0.000 A 
ATOM     18  C   UNL     1      -0.478  10.275  22.485  0.00  0.00    +0.000 A 
ENDBRANCH  10  13
ENDBRANCH   5   7
BRANCH   2  19
ATOM     19  C   UNL     1       5.435   5.348  16.058  0.00  0.00    +0.000 C 
ATOM     20  C   UNL     1       6.886   4.900  16.220  0.00  0.00    +0.000 C 
ATOM     21  C   UNL     1       7.374   4.777  14.786  0.00  0.00    +0.000 C 
ATOM     22  N   UNL     1       6.205   4.240  14.053  0.00  0.00    +0.000 N 
ATOM     23  C   UNL     1       4.961   4.612  14.785  0.00  0.00    +0.000 C 
BRANCH  22  24
ATOM     24  C   UNL     1       6.257   3.574  12.892  0.00  0.00    +0.000 C 
ATOM     25  N   UNL     1       6.322   3.001  11.892  0.00  0.00    +0.000 NA
ENDBRANCH  22  24
ENDBRANCH   2  19
TORSDOF 4
ENDMDL
MODEL 5
REMARK VINA RESULT:      -7.2      6.999      8.034
REMARK  Name = 
REMARK  5 active torsions:
REMARK  status: ('A' for Active; 'I' for Inactive)
REMARK    1  A    between atoms: C_1  and  N_2
REMARK    2  A    between atoms: N_2  and  C_18
REMARK    3  A    between atoms: N_5  and  C_6
REMARK    4  A    between atoms: C_9  and  C_10
REMARK    5  A    between atoms: N_21  and  C_22
REMARK                            x       y       z     vdW  Elec       q    Type
REMARK                         _______ _______ _______ _____ _____    ______ ____
ROOT
ATOM      1  C   UNL     1       3.316   3.951  17.280  0.00  0.00    +0.000 C 
ATOM      2  N   UNL     1       4.070   5.200  17.261  0.00  0.00    +0.000 N 
ATOM      3  C   UNL     1       3.691   6.390  17.883  0.00  0.00    +0.000 C 
ATOM      4  O   UNL     1       4.311   7.424  17.639  0.00  0.00    +0.000 OA
ATOM      5  N   UNL     1       2.627   6.312  18.756  0.00  0.00    +0.000 N 
ATOM      6  H   UNL     1       2.374   5.402  19.099  0.00  0.00    +0.000 HD
ENDROOT
BRANCH   5   7
ATOM      7  C   UNL     1       2.027   7.401  19.431  0.00  0.00    +0.000 A 
ATOM      8  C   UNL     1       1.710   7.376  20.785  0.00  0.00    +0.000 A 
ATOM      9  C   UNL     1       1.084   8.463  21.399  0.00  0.00    +0.000 A 
ATOM     10  C   UNL     1       0.784   9.640  20.697  0.00  0.00    +0.000 A 
ATOM     11  C   UNL     1       1.127   9.664  19.333  0.00  0.00    +0.000 A 
ATOM     12  C   UNL     1       1.738   8.563  18.707  0.00  0.00    +0.000 A 
BRANCH  10  13
ATOM     13  C   UNL     1       0.155  10.791  21.386  0.00  0.00    +0.000 A 
ATOM     14  C   UNL     1      -0.748  10.594  22.450  0.00  0.00    +0.000 A 
ATOM     15  C   UNL     1      -1.364  11.665  23.103  0.00  0.00    +0.000 A 
ATOM     16  C   UNL     1      -1.077  12.968  22.716  0.00  0.00    +0.000 A 
ATOM     17  C   UNL     1      -0.182  13.198  21.675  0.00  0.00    +0.000 A 
ATOM     18  C   UNL     1       0.420  12.120  21.013  0.00  0.00    +0.000 A 
ENDBRANCH  10  13
ENDBRANCH   5   7
BRANCH   2  19
ATOM     19  C   UNL     1       5.220   5.306  16.336  0.00  0.00    +0.000 C 
ATOM     20  C   UNL     1       6.462   4.500  16.711  0.00  0.00    +0.000 C 
ATOM     21  C   UNL     1       7.231   4.418  15.402  0.00  0.00    +0.000 C 
ATOM     22  N   UNL     1       6.177   4.268  14.374  0.00  0.00    +0.000 N 
ATOM     23  C   UNL     1       4.907   4.852  14.892  0.00  0.00    +0.000 C 
BRANCH  22  24
ATOM     24  C   UNL     1       6.353   3.741  13.155  0.00  0.00    +0.000 C 
ATOM     25  N   UNL     1       6.514   3.270  12.113  0.00  0.00    +0.000 NA
ENDBRANCH  22  24
ENDBRANCH   2  19
TORSDOF 4
ENDMDL
MODEL 6
REMARK VINA RESULT:      -7.1      7.010      8.193
REMARK  Name = 
REMARK  5 active torsions:
REMARK  status: ('A' for Active; 'I' for Inactive)
REMARK    1  A    between atoms: C_1  and  N_2
REMARK    2  A    between atoms: N_2  and  C_18
REMARK    3  A    between atoms: N_5  and  C_6
REMARK    4  A    between atoms: C_9  and  C_10
REMARK    5  A    between atoms: N_21  and  C_22
REMARK                            x       y       z     vdW  Elec       q    Type
REMARK                         _______ _______ _______ _____ _____    ______ ____
ROOT
ATOM      1  C   UNL     1       4.111   3.976  18.416  0.00  0.00    +0.000 C 
ATOM      2  N   UNL     1       4.489   5.306  17.951  0.00  0.00    +0.000 N 
ATOM      3  C   UNL     1       3.833   6.497  18.268  0.00  0.00    +0.000 C 
ATOM      4  O   UNL     1       4.129   7.528  17.666  0.00  0.00    +0.000 OA
ATOM      5  N   UNL     1       2.885   6.426  19.265  0.00  0.00    +0.000 N 
ATOM      6  H   UNL     1       2.913   5.630  19.877  0.00  0.00    +0.000 HD
ENDROOT
BRANCH   5   7
ATOM      7  C   UNL     1       2.048   7.486  19.690  0.00  0.00    +0.000 A 
ATOM      8  C   UNL     1       1.696   8.553  18.870  0.00  0.00    +0.000 A 
ATOM      9  C   UNL     1       0.897   9.594  19.347  0.00  0.00    +0.000 A 
ATOM     10  C   UNL     1       0.380   9.595  20.651  0.00  0.00    +0.000 A 
ATOM     11  C   UNL     1       0.724   8.502  21.465  0.00  0.00    +0.000 A 
ATOM     12  C   UNL     1       1.546   7.462  20.995  0.00  0.00    +0.000 A 
BRANCH  10  13
ATOM     13  C   UNL     1      -0.498  10.695  21.114  0.00  0.00    +0.000 A 
ATOM     14  C   UNL     1      -1.187  11.510  20.193  0.00  0.00    +0.000 A 
ATOM     15  C   UNL     1      -2.007  12.563  20.609  0.00  0.00    +0.000 A 
ATOM     16  C   UNL     1      -2.172  12.817  21.964  0.00  0.00    +0.000 A 
ATOM     17  C   UNL     1      -1.513  12.025  22.900  0.00  0.00    +0.000 A 
ATOM     18  C   UNL     1      -0.680  10.982  22.478  0.00  0.00    +0.000 A 
ENDBRANCH  10  13
ENDBRANCH   5   7
BRANCH   2  19
ATOM     19  C   UNL     1       5.509   5.407  16.884  0.00  0.00    +0.000 C 
ATOM     20  C   UNL     1       6.786   4.597  17.095  0.00  0.00    +0.000 C 
ATOM     21  C   UNL     1       7.378   4.511  15.698  0.00  0.00    +0.000 C 
ATOM     22  N   UNL     1       6.199   4.364  14.815  0.00  0.00    +0.000 N 
ATOM     23  C   UNL     1       5.009   4.954  15.493  0.00  0.00    +0.000 C 
BRANCH  22  24
ATOM     24  C   UNL     1       6.212   3.836  13.585  0.00  0.00    +0.000 C 
ATOM     25  N   UNL     1       6.223   3.400  12.515  0.00  0.00    +0.000 NA
ENDBRANCH  22  24
ENDBRANCH   2  19
TORSDOF 4
ENDMDL
MODEL 7
REMARK VINA RESULT:      -7.1      7.067      8.232
REMARK  Name = 
REMARK  5 active torsions:
REMARK  status: ('A' for Active; 'I' for Inactive)
REMARK    1  A    between atoms: C_1  and  N_2
REMARK    2  A    between atoms: N_2  and  C_18
REMARK    3  A    between atoms: N_5  and  C_6
REMARK    4  A    between atoms: C_9  and  C_10
REMARK    5  A    between atoms: N_21  and  C_22
REMARK                            x       y       z     vdW  Elec       q    Type
REMARK                         _______ _______ _______ _____ _____    ______ ____
ROOT
ATOM      1  C   UNL     1       4.482   3.557  17.132  0.00  0.00    +0.000 C 
ATOM      2  N   UNL     1       4.707   4.947  16.749  0.00  0.00    +0.000 N 
ATOM      3  C   UNL     1       4.081   6.059  17.312  0.00  0.00    +0.000 C 
ATOM      4  O   UNL     1       4.211   7.160  16.780  0.00  0.00    +0.000 OA
ATOM      5  N   UNL     1       3.352   5.835  18.460  0.00  0.00    +0.000 N 
ATOM      6  H   UNL     1       3.532   4.985  18.966  0.00  0.00    +0.000 HD
ENDROOT
BRANCH   5   7
ATOM      7  C   UNL     1       2.575   6.795  19.150  0.00  0.00    +0.000 A 
ATOM      8  C   UNL     1       2.058   6.583  20.425  0.00  0.00    +0.000 A 
ATOM      9  C   UNL     1       1.265   7.548  21.050  0.00  0.00    +0.000 A 
ATOM     10  C   UNL     1       0.987   8.783  20.448  0.00  0.00    +0.000 A 
ATOM     11  C   UNL     1       1.531   8.997  19.168  0.00  0.00    +0.000 A 
ATOM     12  C   UNL     1       2.313   8.019  18.527  0.00  0.00    +0.000 A 
BRANCH  10  13
ATOM     13  C   UNL     1       0.175   9.802  21.154  0.00  0.00    +0.000 A 
ATOM     14  C   UNL     1      -0.234   9.605  22.489  0.00  0.00    +0.000 A 
ATOM     15  C   UNL     1      -1.013  10.546  23.167  0.00  0.00    +0.000 A 
ATOM     16  C   UNL     1      -1.391  11.720  22.530  0.00  0.00    +0.000 A 
ATOM     17  C   UNL     1      -0.997  11.949  21.214  0.00  0.00    +0.000 A 
ATOM     18  C   UNL     1      -0.229  10.997  20.533  0.00  0.00    +0.000 A 
ENDBRANCH  10  13
ENDBRANCH   5   7
BRANCH   2  19
ATOM     19  C   UNL     1       5.491   5.212  15.523  0.00  0.00    +0.000 C 
ATOM     20  C   UNL     1       7.005   5.053  15.643  0.00  0.00    +0.000 C 
ATOM     21  C   UNL     1       7.457   4.908  14.199  0.00  0.00    +0.000 C 
ATOM     22  N   UNL     1       6.383   4.109  13.565  0.00  0.00    +0.000 N 
ATOM     23  C   UNL     1       5.118   4.303  14.330  0.00  0.00    +0.000 C 
BRANCH  22  24
ATOM     24  C   UNL     1       6.518   3.375  12.454  0.00  0.00    +0.000 C 
ATOM     25  N   UNL     1       6.614   2.746  11.489  0.00  0.00    +0.000 NA
ENDBRANCH  22  24
ENDBRANCH   2  19
TORSDOF 4
ENDMDL
MODEL 8
REMARK VINA RESULT:      -7.1      2.206      4.104
REMARK  Name = 
REMARK  5 active torsions:
REMARK  status: ('A' for Active; 'I' for Inactive)
REMARK    1  A    between atoms: C_1  and  N_2
REMARK    2  A    between atoms: N_2  and  C_18
REMARK    3  A    between atoms: N_5  and  C_6
REMARK    4  A    between atoms: C_9  and  C_10
REMARK    5  A    between atoms: N_21  and  C_22
REMARK                            x       y       z     vdW  Elec       q    Type
REMARK                         _______ _______ _______ _____ _____    ______ ____
ROOT
ATOM      1  C   UNL     1       5.107   3.412  16.488  0.00  0.00    +0.000 C 
ATOM      2  N   UNL     1       4.423   4.409  17.306  0.00  0.00    +0.000 N 
ATOM      3  C   UNL     1       4.983   5.594  17.784  0.00  0.00    +0.000 C 
ATOM      4  O   UNL     1       4.369   6.259  18.618  0.00  0.00    +0.000 OA
ATOM      5  N   UNL     1       6.210   5.944  17.265  0.00  0.00    +0.000 N 
ATOM      6  H   UNL     1       6.494   5.504  16.407  0.00  0.00    +0.000 HD
ENDROOT
BRANCH   5   7
ATOM      7  C   UNL     1       6.993   7.054  17.662  0.00  0.00    +0.000 A 
ATOM      8  C   UNL     1       6.858   8.320  17.102  0.00  0.00    +0.000 A 
ATOM      9  C   UNL     1       7.680   9.376  17.502  0.00  0.00    +0.000 A 
ATOM     10  C   UNL     1       8.644   9.225  18.509  0.00  0.00    +0.000 A 
ATOM     11  C   UNL     1       8.759   7.947  19.084  0.00  0.00    +0.000 A 
ATOM     12  C   UNL     1       7.948   6.876  18.669  0.00  0.00    +0.000 A 
BRANCH  10  13
ATOM     13  C   UNL     1       9.474  10.376  18.938  0.00  0.00    +0.000 A 
ATOM     14  C   UNL     1      10.193  11.142  17.999  0.00  0.00    +0.000 A 
ATOM     15  C   UNL     1      10.993  12.221  18.385  0.00  0.00    +0.000 A 
ATOM     16  C   UNL     1      11.081  12.571  19.726  0.00  0.00    +0.000 A 
ATOM     17  C   UNL     1      10.377  11.840  20.679  0.00  0.00    +0.000 A 
ATOM     18  C   UNL     1       9.589  10.750  20.289  0.00  0.00    +0.000 A 
ENDBRANCH  10  13
ENDBRANCH   5   7
BRANCH   2  19
ATOM     19  C   UNL     1       3.101   4.057  17.871  0.00  0.00    +0.000 C 
ATOM     20  C   UNL     1       2.584   2.656  17.552  0.00  0.00    +0.000 C 
ATOM     21  C   UNL     1       1.518   2.429  18.611  0.00  0.00    +0.000 C 
ATOM     22  N   UNL     1       2.074   3.071  19.824  0.00  0.00    +0.000 N 
ATOM     23  C   UNL     1       3.037   4.132  19.413  0.00  0.00    +0.000 C 
BRANCH  22  24
ATOM     24  C   UNL     1       1.726   2.780  21.084  0.00  0.00    +0.000 C 
ATOM     25  N   UNL     1       1.430   2.510  22.167  0.00  0.00    +0.000 NA
ENDBRANCH  22  24
ENDBRANCH   2  19
TORSDOF 4
ENDMDL
MODEL 9
REMARK VINA RESULT:      -7.1      8.111     11.364
REMARK  Name = 
REMARK  5 active torsions:
REMARK  status: ('A' for Active; 'I' for Inactive)
REMARK    1  A    between atoms: C_1  and  N_2
REMARK    2  A    between atoms: N_2  and  C_18
REMARK    3  A    between atoms: N_5  and  C_6
REMARK    4  A    between atoms: C_9  and  C_10
REMARK    5  A    between atoms: N_21  and  C_22
REMARK                            x       y       z     vdW  Elec       q    Type
REMARK                         _______ _______ _______ _____ _____    ______ ____
ROOT
ATOM      1  C   UNL     1      -1.920  12.321  20.564  0.00  0.00    +0.000 C 
ATOM      2  N   UNL     1      -0.535  12.381  21.019  0.00  0.00    +0.000 N 
ATOM      3  C   UNL     1       0.475  11.480  20.677  0.00  0.00    +0.000 C 
ATOM      4  O   UNL     1       1.551  11.525  21.271  0.00  0.00    +0.000 OA
ATOM      5  N   UNL     1       0.184  10.590  19.666  0.00  0.00    +0.000 N 
ATOM      6  H   UNL     1      -0.591  10.808  19.064  0.00  0.00    +0.000 HD
ENDROOT
BRANCH   5   7
ATOM      7  C   UNL     1       1.024   9.545  19.214  0.00  0.00    +0.000 A 
ATOM      8  C   UNL     1       1.565   9.502  17.933  0.00  0.00    +0.000 A 
ATOM      9  C   UNL     1       2.359   8.429  17.522  0.00  0.00    +0.000 A 
ATOM     10  C   UNL     1       2.682   7.372  18.385  0.00  0.00    +0.000 A 
ATOM     11  C   UNL     1       2.148   7.434  19.685  0.00  0.00    +0.000 A 
ATOM     12  C   UNL     1       1.331   8.503  20.096  0.00  0.00    +0.000 A 
BRANCH  10  13
ATOM     13  C   UNL     1       3.561   6.268  17.931  0.00  0.00    +0.000 A 
ATOM     14  C   UNL     1       4.866   6.525  17.464  0.00  0.00    +0.000 A 
ATOM     15  C   UNL     1       5.703   5.499  17.016  0.00  0.00    +0.000 A 
ATOM     16  C   UNL     1       5.260   4.184  17.040  0.00  0.00    +0.000 A 
ATOM     17  C   UNL     1       3.979   3.895  17.504  0.00  0.00    +0.000 A 
ATOM     18  C   UNL     1       3.138   4.927  17.937  0.00  0.00    +0.000 A 
ENDBRANCH  10  13
ENDBRANCH   5   7
BRANCH   2  19
ATOM     19  C   UNL     1      -0.198  13.332  22.101  0.00  0.00    +0.000 C 
ATOM     20  C   UNL     1      -0.126  14.805  21.704  0.00  0.00    +0.000 C 
ATOM     21  C   UNL     1      -0.252  15.530  23.034  0.00  0.00    +0.000 C 
ATOM     22  N   UNL     1      -1.223  14.715  23.798  0.00  0.00    +0.000 N 
ATOM     23  C   UNL     1      -1.194  13.316  23.283  0.00  0.00    +0.000 C 
BRANCH  22  24
ATOM     24  C   UNL     1      -1.968  15.153  24.821  0.00  0.00    +0.000 C 
ATOM     25  N   UNL     1      -2.612  15.549  25.694  0.00  0.00    +0.000 NA
ENDBRANCH  22  24
ENDBRANCH   2  19
TORSDOF 4
ENDMDL
