MODEL 1
REMARK VINA RESULT:      -8.0      0.000      0.000
REMARK  Name = 
REMARK  5 active torsions:
REMARK  status: ('A' for Active; 'I' for Inactive)
REMARK    1  A    between atoms: C_2  and  C_3
REMARK    2  A    between atoms: C_3  and  N_4
REMARK    3  A    between atoms: C_10  and  O_11
REMARK    4  A    between atoms: C_12  and  O_13
REMARK    5  A    between atoms: C_16  and  C_17
REMARK                            x       y       z     vdW  Elec       q    Type
REMARK                         _______ _______ _______ _____ _____    ______ ____
ROOT
ATOM      1  N   UNL     1       5.855   6.126  17.525  0.00  0.00    +0.000 NA
ATOM      2  C   UNL     1       5.798   4.657  17.406  0.00  0.00    +0.000 C 
ATOM      3  C   UNL     1       4.549   4.175  16.670  0.00  0.00    +0.000 C 
ATOM      4  C   UNL     1       3.430   3.927  17.655  0.00  0.00    +0.000 A 
ATOM      5  C   UNL     1       2.794   5.044  18.271  0.00  0.00    +0.000 A 
ATOM      6  C   UNL     1       1.761   4.799  19.198  0.00  0.00    +0.000 A 
ATOM      7  C   UNL     1       1.411   3.493  19.534  0.00  0.00    +0.000 A 
ATOM      8  C   UNL     1       2.066   2.406  18.968  0.00  0.00    +0.000 A 
ATOM      9  C   UNL     1       3.071   2.609  18.029  0.00  0.00    +0.000 A 
ATOM     10 CL   UNL     1       3.899   1.224  17.388  0.00  0.00    +0.000 Cl
ATOM     11  C   UNL     1       3.288   6.470  17.952  0.00  0.00    +0.000 C 
ATOM     12  C   UNL     1       4.781   6.673  18.395  0.00  0.00    +0.000 C 
ENDROOT
BRANCH  11  13
ATOM     13  C   UNL     1       2.412   7.615  18.497  0.00  0.00    +0.000 A 
ATOM     14  C   UNL     1       2.036   7.688  19.850  0.00  0.00    +0.000 A 
ATOM     15  C   UNL     1       1.317   8.784  20.335  0.00  0.00    +0.000 A 
ATOM     16  C   UNL     1       0.943   9.812  19.476  0.00  0.00    +0.000 A 
ATOM     17  C   UNL     1       1.278   9.741  18.126  0.00  0.00    +0.000 A 
ATOM     18  C   UNL     1       2.003   8.648  17.636  0.00  0.00    +0.000 A 
ENDBRANCH  11  13
BRANCH   7  19
ATOM     19  O   UNL     1       0.429   3.226  20.451  0.00  0.00    +0.000 OA
ATOM     20  H   UNL     1       0.319   4.009  21.018  0.00  0.00    +0.000 HD
ENDBRANCH   7  19
BRANCH   8  21
ATOM     21  O   UNL     1       1.709   1.146  19.373  0.00  0.00    +0.000 OA
ATOM     22  H   UNL     1       0.828   1.250  19.781  0.00  0.00    +0.000 HD
ENDBRANCH   8  21
BRANCH   1  23
ATOM     23  C   UNL     1       7.163   6.543  18.070  0.00  0.00    +0.000 C 
BRANCH  23  25
ATOM     24  C   UNL     1       8.223   8.825  18.082  0.00  0.00    +0.000 C 
ATOM     25  C   UNL     1       7.693   7.790  17.417  0.00  0.00    +0.000 C 
ENDBRANCH  23  25
ENDBRANCH   1  23
TORSDOF 5
ENDMDL
MODEL 2
REMARK VINA RESULT:      -8.0      0.089      1.008
REMARK  Name = 
REMARK  5 active torsions:
REMARK  status: ('A' for Active; 'I' for Inactive)
REMARK    1  A    between atoms: C_2  and  C_3
REMARK    2  A    between atoms: C_3  and  N_4
REMARK    3  A    between atoms: C_10  and  O_11
REMARK    4  A    between atoms: C_12  and  O_13
REMARK    5  A    between atoms: C_16  and  C_17
REMARK                            x       y       z     vdW  Elec       q    Type
REMARK                         _______ _______ _______ _____ _____    ______ ____
ROOT
ATOM      1  N   UNL     1       5.869   6.126  17.508  0.00  0.00    +0.000 NA
ATOM      2  C   UNL     1       5.794   4.657  17.393  0.00  0.00    +0.000 C 
ATOM      3  C   UNL     1       4.540   4.190  16.656  0.00  0.00    +0.000 C 
ATOM      4  C   UNL     1       3.417   3.958  17.640  0.00  0.00    +0.000 A 
ATOM      5  C   UNL     1       2.794   5.085  18.253  0.00  0.00    +0.000 A 
ATOM      6  C   UNL     1       1.757   4.855  19.178  0.00  0.00    +0.000 A 
ATOM      7  C   UNL     1       1.390   3.555  19.517  0.00  0.00    +0.000 A 
ATOM      8  C   UNL     1       2.031   2.458  18.954  0.00  0.00    +0.000 A 
ATOM      9  C   UNL     1       3.040   2.646  18.017  0.00  0.00    +0.000 A 
ATOM     10 CL   UNL     1       3.852   1.249  17.379  0.00  0.00    +0.000 Cl
ATOM     11  C   UNL     1       3.307   6.503  17.931  0.00  0.00    +0.000 C 
ATOM     12  C   UNL     1       4.802   6.688  18.375  0.00  0.00    +0.000 C 
ENDROOT
BRANCH  11  13
ATOM     13  C   UNL     1       2.445   7.660  18.472  0.00  0.00    +0.000 A 
ATOM     14  C   UNL     1       1.931   8.664  17.632  0.00  0.00    +0.000 A 
ATOM     15  C   UNL     1       1.078   9.651  18.132  0.00  0.00    +0.000 A 
ATOM     16  C   UNL     1       0.742   9.666  19.483  0.00  0.00    +0.000 A 
ATOM     17  C   UNL     1       1.269   8.701  20.337  0.00  0.00    +0.000 A 
ATOM     18  C   UNL     1       2.119   7.707  19.838  0.00  0.00    +0.000 A 
ENDBRANCH  11  13
BRANCH   7  19
ATOM     19  O   UNL     1       0.403   3.302  20.434  0.00  0.00    +0.000 OA
ATOM     20  H   UNL     1      -0.438   3.197  19.956  0.00  0.00    +0.000 HD
ENDBRANCH   7  19
BRANCH   8  21
ATOM     21  O   UNL     1       1.658   1.203  19.361  0.00  0.00    +0.000 OA
ATOM     22  H   UNL     1       0.966   0.927  18.729  0.00  0.00    +0.000 HD
ENDBRANCH   8  21
BRANCH   1  23
ATOM     23  C   UNL     1       7.182   6.527  18.053  0.00  0.00    +0.000 C 
BRANCH  23  25
ATOM     24  C   UNL     1       8.194   8.831  18.044  0.00  0.00    +0.000 C 
ATOM     25  C   UNL     1       7.736   7.756  17.388  0.00  0.00    +0.000 C 
ENDBRANCH  23  25
ENDBRANCH   1  23
TORSDOF 5
ENDMDL
MODEL 3
REMARK VINA RESULT:      -7.0      1.182      1.588
REMARK  Name = 
REMARK  5 active torsions:
REMARK  status: ('A' for Active; 'I' for Inactive)
REMARK    1  A    between atoms: C_2  and  C_3
REMARK    2  A    between atoms: C_3  and  N_4
REMARK    3  A    between atoms: C_10  and  O_11
REMARK    4  A    between atoms: C_12  and  O_13
REMARK    5  A    between atoms: C_16  and  C_17
REMARK                            x       y       z     vdW  Elec       q    Type
REMARK                         _______ _______ _______ _____ _____    ______ ____
ROOT
ATOM      1  N   UNL     1       4.994   5.940  16.468  0.00  0.00    +0.000 NA
ATOM      2  C   UNL     1       5.108   4.495  16.743  0.00  0.00    +0.000 C 
ATOM      3  C   UNL     1       3.747   3.810  16.856  0.00  0.00    +0.000 C 
ATOM      4  C   UNL     1       3.275   3.830  18.292  0.00  0.00    +0.000 A 
ATOM      5  C   UNL     1       2.845   5.067  18.858  0.00  0.00    +0.000 A 
ATOM      6  C   UNL     1       2.419   5.075  20.201  0.00  0.00    +0.000 A 
ATOM      7  C   UNL     1       2.468   3.910  20.963  0.00  0.00    +0.000 A 
ATOM      8  C   UNL     1       2.933   2.717  20.422  0.00  0.00    +0.000 A 
ATOM      9  C   UNL     1       3.335   2.665  19.093  0.00  0.00    +0.000 A 
ATOM     10 CL   UNL     1       3.960   1.167  18.473  0.00  0.00    +0.000 Cl
ATOM     11  C   UNL     1       2.912   6.353  18.011  0.00  0.00    +0.000 C 
ATOM     12  C   UNL     1       4.388   6.692  17.597  0.00  0.00    +0.000 C 
ENDROOT
BRANCH  11  13
ATOM     13  C   UNL     1       2.236   7.592  18.629  0.00  0.00    +0.000 A 
ATOM     14  C   UNL     1       1.840   8.694  17.849  0.00  0.00    +0.000 A 
ATOM     15  C   UNL     1       1.148   9.765  18.420  0.00  0.00    +0.000 A 
ATOM     16  C   UNL     1       0.859   9.765  19.781  0.00  0.00    +0.000 A 
ATOM     17  C   UNL     1       1.272   8.699  20.576  0.00  0.00    +0.000 A 
ATOM     18  C   UNL     1       1.961   7.621  20.007  0.00  0.00    +0.000 A 
ENDBRANCH  11  13
BRANCH   7  19
ATOM     19  O   UNL     1       2.085   3.895  22.278  0.00  0.00    +0.000 OA
ATOM     20  H   UNL     1       1.428   3.188  22.398  0.00  0.00    +0.000 HD
ENDBRANCH   7  19
BRANCH   8  21
ATOM     21  O   UNL     1       3.001   1.614  21.234  0.00  0.00    +0.000 OA
ATOM     22  H   UNL     1       3.688   1.828  21.894  0.00  0.00    +0.000 HD
ENDBRANCH   8  21
BRANCH   1  23
ATOM     23  C   UNL     1       6.326   6.511  16.180  0.00  0.00    +0.000 C 
BRANCH  23  25
ATOM     24  C   UNL     1       7.801   7.862  17.706  0.00  0.00    +0.000 C 
ATOM     25  C   UNL     1       7.145   6.729  17.421  0.00  0.00    +0.000 C 
ENDBRANCH  23  25
ENDBRANCH   1  23
TORSDOF 5
ENDMDL
MODEL 4
REMARK VINA RESULT:      -6.9      1.203      1.250
REMARK  Name = 
REMARK  5 active torsions:
REMARK  status: ('A' for Active; 'I' for Inactive)
REMARK    1  A    between atoms: C_2  and  C_3
REMARK    2  A    between atoms: C_3  and  N_4
REMARK    3  A    between atoms: C_10  and  O_11
REMARK    4  A    between atoms: C_12  and  O_13
REMARK    5  A    between atoms: C_16  and  C_17
REMARK                            x       y       z     vdW  Elec       q    Type
REMARK                         _______ _______ _______ _____ _____    ______ ____
ROOT
ATOM      1  N   UNL     1       4.980   5.906  16.473  0.00  0.00    +0.000 NA
ATOM      2  C   UNL     1       5.116   4.467  16.769  0.00  0.00    +0.000 C 
ATOM      3  C   UNL     1       3.766   3.762  16.891  0.00  0.00    +0.000 C 
ATOM      4  C   UNL     1       3.292   3.796  18.325  0.00  0.00    +0.000 A 
ATOM      5  C   UNL     1       2.841   5.033  18.873  0.00  0.00    +0.000 A 
ATOM      6  C   UNL     1       2.413   5.054  20.215  0.00  0.00    +0.000 A 
ATOM      7  C   UNL     1       2.479   3.901  20.994  0.00  0.00    +0.000 A 
ATOM      8  C   UNL     1       2.964   2.708  20.472  0.00  0.00    +0.000 A 
ATOM      9  C   UNL     1       3.369   2.643  19.143  0.00  0.00    +0.000 A 
ATOM     10 CL   UNL     1       4.019   1.147  18.547  0.00  0.00    +0.000 Cl
ATOM     11  C   UNL     1       2.889   6.308  18.007  0.00  0.00    +0.000 C 
ATOM     12  C   UNL     1       4.361   6.665  17.590  0.00  0.00    +0.000 C 
ENDROOT
BRANCH  11  13
ATOM     13  C   UNL     1       2.192   7.545  18.606  0.00  0.00    +0.000 A 
ATOM     14  C   UNL     1       1.905   7.649  19.979  0.00  0.00    +0.000 A 
ATOM     15  C   UNL     1       1.355   8.818  20.510  0.00  0.00    +0.000 A 
ATOM     16  C   UNL     1       1.062   9.895  19.678  0.00  0.00    +0.000 A 
ATOM     17  C   UNL     1       1.308   9.798  18.311  0.00  0.00    +0.000 A 
ATOM     18  C   UNL     1       1.865   8.631  17.775  0.00  0.00    +0.000 A 
ENDBRANCH  11  13
BRANCH   7  19
ATOM     19  O   UNL     1       2.095   3.900  22.309  0.00  0.00    +0.000 OA
ATOM     20  H   UNL     1       1.123   3.910  22.344  0.00  0.00    +0.000 HD
ENDBRANCH   7  19
BRANCH   8  21
ATOM     21  O   UNL     1       3.048   1.619  21.300  0.00  0.00    +0.000 OA
ATOM     22  H   UNL     1       3.084   1.989  22.202  0.00  0.00    +0.000 HD
ENDBRANCH   8  21
BRANCH   1  23
ATOM     23  C   UNL     1       6.303   6.493  16.178  0.00  0.00    +0.000 C 
BRANCH  23  25
ATOM     24  C   UNL     1       7.763   7.928  17.641  0.00  0.00    +0.000 C 
ATOM     25  C   UNL     1       7.097   6.786  17.420  0.00  0.00    +0.000 C 
ENDBRANCH  23  25
ENDBRANCH   1  23
TORSDOF 5
ENDMDL
MODEL 5
REMARK VINA RESULT:      -6.5      3.157      4.839
REMARK  Name = 
REMARK  5 active torsions:
REMARK  status: ('A' for Active; 'I' for Inactive)
REMARK    1  A    between atoms: C_2  and  C_3
REMARK    2  A    between atoms: C_3  and  N_4
REMARK    3  A    between atoms: C_10  and  O_11
REMARK    4  A    between atoms: C_12  and  O_13
REMARK    5  A    between atoms: C_16  and  C_17
REMARK                            x       y       z     vdW  Elec       q    Type
REMARK                         _______ _______ _______ _____ _____    ______ ____
ROOT
ATOM      1  N   UNL     1       3.173   4.082  20.393  0.00  0.00    +0.000 NA
ATOM      2  C   UNL     1       4.366   3.582  19.684  0.00  0.00    +0.000 C 
ATOM      3  C   UNL     1       5.464   4.637  19.566  0.00  0.00    +0.000 C 
ATOM      4  C   UNL     1       5.294   5.421  18.285  0.00  0.00    +0.000 A 
ATOM      5  C   UNL     1       4.214   6.346  18.182  0.00  0.00    +0.000 A 
ATOM      6  C   UNL     1       4.058   7.061  16.978  0.00  0.00    +0.000 A 
ATOM      7  C   UNL     1       4.913   6.827  15.903  0.00  0.00    +0.000 A 
ATOM      8  C   UNL     1       5.935   5.889  15.990  0.00  0.00    +0.000 A 
ATOM      9  C   UNL     1       6.136   5.185  17.172  0.00  0.00    +0.000 A 
ATOM     10 CL   UNL     1       7.391   3.985  17.219  0.00  0.00    +0.000 Cl
ATOM     11  C   UNL     1       3.225   6.493  19.357  0.00  0.00    +0.000 C 
ATOM     12  C   UNL     1       2.464   5.149  19.638  0.00  0.00    +0.000 C 
ENDROOT
BRANCH  11  13
ATOM     13  C   UNL     1       2.223   7.657  19.241  0.00  0.00    +0.000 A 
ATOM     14  C   UNL     1       1.549   8.177  20.360  0.00  0.00    +0.000 A 
ATOM     15  C   UNL     1       0.714   9.291  20.242  0.00  0.00    +0.000 A 
ATOM     16  C   UNL     1       0.520   9.891  19.001  0.00  0.00    +0.000 A 
ATOM     17  C   UNL     1       1.151   9.369  17.875  0.00  0.00    +0.000 A 
ATOM     18  C   UNL     1       1.993   8.257  17.990  0.00  0.00    +0.000 A 
ENDBRANCH  11  13
BRANCH   7  19
ATOM     19  O   UNL     1       4.768   7.488  14.712  0.00  0.00    +0.000 OA
ATOM     20  H   UNL     1       4.611   8.429  14.902  0.00  0.00    +0.000 HD
ENDBRANCH   7  19
BRANCH   8  21
ATOM     21  O   UNL     1       6.716   5.669  14.885  0.00  0.00    +0.000 OA
ATOM     22  H   UNL     1       6.719   4.700  14.765  0.00  0.00    +0.000 HD
ENDBRANCH   8  21
BRANCH   1  23
ATOM     23  C   UNL     1       2.228   2.974  20.645  0.00  0.00    +0.000 C 
BRANCH  23  25
ATOM     24  C   UNL     1       0.706   2.232  18.784  0.00  0.00    +0.000 C 
ATOM     25  C   UNL     1       0.991   3.062  19.797  0.00  0.00    +0.000 C 
ENDBRANCH  23  25
ENDBRANCH   1  23
TORSDOF 5
ENDMDL
MODEL 6
REMARK VINA RESULT:      -6.5      5.621      8.644
REMARK  Name = 
REMARK  5 active torsions:
REMARK  status: ('A' for Active; 'I' for Inactive)
REMARK    1  A    between atoms: C_2  and  C_3
REMARK    2  A    between atoms: C_3  and  N_4
REMARK    3  A    between atoms: C_10  and  O_11
REMARK    4  A    between atoms: C_12  and  O_13
REMARK    5  A    between atoms: C_16  and  C_17
REMARK                            x       y       z     vdW  Elec       q    Type
REMARK                         _______ _______ _______ _____ _____    ______ ____
ROOT
ATOM      1  N   UNL     1      -0.120  13.164  20.729  0.00  0.00    +0.000 NA
ATOM      2  C   UNL     1      -1.504  13.533  20.375  0.00  0.00    +0.000 C 
ATOM      3  C   UNL     1      -2.485  12.376  20.557  0.00  0.00    +0.000 C 
ATOM      4  C   UNL     1      -2.595  11.583  19.276  0.00  0.00    +0.000 A 
ATOM      5  C   UNL     1      -1.499  10.762  18.878  0.00  0.00    +0.000 A 
ATOM      6  C   UNL     1      -1.608  10.037  17.674  0.00  0.00    +0.000 A 
ATOM      7  C   UNL     1      -2.742  10.166  16.875  0.00  0.00    +0.000 A 
ATOM      8  C   UNL     1      -3.788  11.004  17.241  0.00  0.00    +0.000 A 
ATOM      9  C   UNL     1      -3.727  11.713  18.436  0.00  0.00    +0.000 A 
ATOM     10 CL   UNL     1      -5.032  12.790  18.829  0.00  0.00    +0.000 Cl
ATOM     11  C   UNL     1      -0.219  10.736  19.737  0.00  0.00    +0.000 C 
ATOM     12  C   UNL     1       0.456  12.152  19.805  0.00  0.00    +0.000 C 
ENDROOT
BRANCH  11  13
ATOM     13  C   UNL     1       0.823   9.669  19.347  0.00  0.00    +0.000 A 
ATOM     14  C   UNL     1       1.159   8.605  20.203  0.00  0.00    +0.000 A 
ATOM     15  C   UNL     1       2.039   7.602  19.789  0.00  0.00    +0.000 A 
ATOM     16  C   UNL     1       2.614   7.655  18.523  0.00  0.00    +0.000 A 
ATOM     17  C   UNL     1       2.320   8.719  17.674  0.00  0.00    +0.000 A 
ATOM     18  C   UNL     1       1.435   9.723  18.082  0.00  0.00    +0.000 A 
ENDBRANCH  11  13
BRANCH   7  19
ATOM     19  O   UNL     1      -2.864   9.494  15.687  0.00  0.00    +0.000 OA
ATOM     20  H   UNL     1      -2.057   8.968  15.549  0.00  0.00    +0.000 HD
ENDBRANCH   7  19
BRANCH   8  21
ATOM     21  O   UNL     1      -4.857  11.124  16.392  0.00  0.00    +0.000 OA
ATOM     22  H   UNL     1      -5.394  10.323  16.545  0.00  0.00    +0.000 HD
ENDBRANCH   8  21
BRANCH   1  23
ATOM     23  C   UNL     1       0.745  14.361  20.718  0.00  0.00    +0.000 C 
BRANCH  23  25
ATOM     24  C   UNL     1       1.107  15.877  18.743  0.00  0.00    +0.000 C 
ATOM     25  C   UNL     1       1.263  14.691  19.346  0.00  0.00    +0.000 C 
ENDBRANCH  23  25
ENDBRANCH   1  23
TORSDOF 5
ENDMDL
MODEL 7
REMARK VINA RESULT:      -6.5      2.013      5.039
REMARK  Name = 
REMARK  5 active torsions:
REMARK  status: ('A' for Active; 'I' for Inactive)
REMARK    1  A    between atoms: C_2  and  C_3
REMARK    2  A    between atoms: C_3  and  N_4
REMARK    3  A    between atoms: C_10  and  O_11
REMARK    4  A    between atoms: C_12  and  O_13
REMARK    5  A    between atoms: C_16  and  C_17
REMARK                            x       y       z     vdW  Elec       q    Type
REMARK                         _______ _______ _______ _____ _____    ______ ____
ROOT
ATOM      1  N   UNL     1       2.923   7.867  18.377  0.00  0.00    +0.000 NA
ATOM      2  C   UNL     1       2.073   7.105  19.312  0.00  0.00    +0.000 C 
ATOM      3  C   UNL     1       2.872   6.112  20.155  0.00  0.00    +0.000 C 
ATOM      4  C   UNL     1       2.938   4.774  19.456  0.00  0.00    +0.000 A 
ATOM      5  C   UNL     1       3.755   4.643  18.295  0.00  0.00    +0.000 A 
ATOM      6  C   UNL     1       3.798   3.393  17.644  0.00  0.00    +0.000 A 
ATOM      7  C   UNL     1       3.020   2.333  18.104  0.00  0.00    +0.000 A 
ATOM      8  C   UNL     1       2.188   2.477  19.208  0.00  0.00    +0.000 A 
ATOM      9  C   UNL     1       2.141   3.687  19.891  0.00  0.00    +0.000 A 
ATOM     10 CL   UNL     1       1.048   3.841  21.232  0.00  0.00    +0.000 Cl
ATOM     11  C   UNL     1       4.512   5.874  17.757  0.00  0.00    +0.000 C 
ATOM     12  C   UNL     1       3.523   7.012  17.321  0.00  0.00    +0.000 C 
ENDROOT
BRANCH  11  13
ATOM     13  C   UNL     1       5.526   5.591  16.632  0.00  0.00    +0.000 A 
ATOM     14  C   UNL     1       6.851   5.201  16.900  0.00  0.00    +0.000 A 
ATOM     15  C   UNL     1       7.723   4.863  15.862  0.00  0.00    +0.000 A 
ATOM     16  C   UNL     1       7.296   4.931  14.539  0.00  0.00    +0.000 A 
ATOM     17  C   UNL     1       5.999   5.348  14.252  0.00  0.00    +0.000 A 
ATOM     18  C   UNL     1       5.120   5.681  15.289  0.00  0.00    +0.000 A 
ENDBRANCH  11  13
BRANCH   7  19
ATOM     19  O   UNL     1       3.022   1.115  17.475  0.00  0.00    +0.000 OA
ATOM     20  H   UNL     1       3.807   1.068  16.902  0.00  0.00    +0.000 HD
ENDBRANCH   7  19
BRANCH   8  21
ATOM     21  O   UNL     1       1.412   1.412  19.585  0.00  0.00    +0.000 OA
ATOM     22  H   UNL     1       0.712   1.795  20.147  0.00  0.00    +0.000 HD
ENDBRANCH   8  21
BRANCH   1  23
ATOM     23  C   UNL     1       2.135   8.937  17.730  0.00  0.00    +0.000 C 
BRANCH  23  25
ATOM     24  C   UNL     1      -0.031  10.087  18.292  0.00  0.00    +0.000 C 
ATOM     25  C   UNL     1       1.152   9.581  18.667  0.00  0.00    +0.000 C 
ENDBRANCH  23  25
ENDBRANCH   1  23
TORSDOF 5
ENDMDL
MODEL 8
REMARK VINA RESULT:      -6.5      5.485      8.396
REMARK  Name = 
REMARK  5 active torsions:
REMARK  status: ('A' for Active; 'I' for Inactive)
REMARK    1  A    between atoms: C_2  and  C_3
REMARK    2  A    between atoms: C_3  and  N_4
REMARK    3  A    between atoms: C_10  and  O_11
REMARK    4  A    between atoms: C_12  and  O_13
REMARK    5  A    between atoms: C_16  and  C_17
REMARK                            x       y       z     vdW  Elec       q    Type
REMARK                         _______ _______ _______ _____ _____    ______ ____
ROOT
ATOM      1  N   UNL     1       1.524  12.975  21.066  0.00  0.00    +0.000 NA
ATOM      2  C   UNL     1       0.206  13.636  21.107  0.00  0.00    +0.000 C 
ATOM      3  C   UNL     1      -0.908  12.697  21.567  0.00  0.00    +0.000 C 
ATOM      4  C   UNL     1      -1.528  12.005  20.376  0.00  0.00    +0.000 A 
ATOM      5  C   UNL     1      -0.781  10.997  19.699  0.00  0.00    +0.000 A 
ATOM      6  C   UNL     1      -1.365  10.368  18.581  0.00  0.00    +0.000 A 
ATOM      7  C   UNL     1      -2.622  10.763  18.127  0.00  0.00    +0.000 A 
ATOM      8  C   UNL     1      -3.327  11.779  18.760  0.00  0.00    +0.000 A 
ATOM      9  C   UNL     1      -2.794  12.403  19.882  0.00  0.00    +0.000 A 
ATOM     10 CL   UNL     1      -3.685  13.705  20.609  0.00  0.00    +0.000 Cl
ATOM     11  C   UNL     1       0.650  10.669  20.169  0.00  0.00    +0.000 C 
ATOM     12  C   UNL     1       1.600  11.912  20.031  0.00  0.00    +0.000 C 
ENDROOT
BRANCH  11  13
ATOM     13  C   UNL     1       1.297   9.431  19.518  0.00  0.00    +0.000 A 
ATOM     14  C   UNL     1       1.715   9.427  18.175  0.00  0.00    +0.000 A 
ATOM     15  C   UNL     1       2.380   8.323  17.634  0.00  0.00    +0.000 A 
ATOM     16  C   UNL     1       2.620   7.198  18.417  0.00  0.00    +0.000 A 
ATOM     17  C   UNL     1       2.183   7.170  19.739  0.00  0.00    +0.000 A 
ATOM     18  C   UNL     1       1.521   8.276  20.287  0.00  0.00    +0.000 A 
ENDBRANCH  11  13
BRANCH   7  19
ATOM     19  O   UNL     1      -3.202  10.188  17.027  0.00  0.00    +0.000 OA
ATOM     20  H   UNL     1      -2.728   9.362  16.828  0.00  0.00    +0.000 HD
ENDBRANCH   7  19
BRANCH   8  21
ATOM     21  O   UNL     1      -4.538  12.156  18.239  0.00  0.00    +0.000 OA
ATOM     22  H   UNL     1      -5.204  11.769  18.840  0.00  0.00    +0.000 HD
ENDBRANCH   8  21
BRANCH   1  23
ATOM     23  C   UNL     1       2.584  13.969  20.802  0.00  0.00    +0.000 C 
BRANCH  23  25
ATOM     24  C   UNL     1       3.945  14.801  18.856  0.00  0.00    +0.000 C 
ATOM     25  C   UNL     1       2.930  14.075  19.343  0.00  0.00    +0.000 C 
ENDBRANCH  23  25
ENDBRANCH   1  23
TORSDOF 5
ENDMDL
MODEL 9
REMARK VINA RESULT:      -6.5      5.654      8.730
REMARK  Name = 
REMARK  5 active torsions:
REMARK  status: ('A' for Active; 'I' for Inactive)
REMARK    1  A    between atoms: C_2  and  C_3
REMARK    2  A    between atoms: C_3  and  N_4
REMARK    3  A    between atoms: C_10  and  O_11
REMARK    4  A    between atoms: C_12  and  O_13
REMARK    5  A    between atoms: C_16  and  C_17
REMARK                            x       y       z     vdW  Elec       q    Type
REMARK                         _______ _______ _______ _____ _____    ______ ____
ROOT
ATOM      1  N   UNL     1      -0.048  13.160  20.524  0.00  0.00    +0.000 NA
ATOM      2  C   UNL     1      -1.430  13.562  20.198  0.00  0.00    +0.000 C 
ATOM      3  C   UNL     1      -2.440  12.442  20.439  0.00  0.00    +0.000 C 
ATOM      4  C   UNL     1      -2.609  11.618  19.184  0.00  0.00    +0.000 A 
ATOM      5  C   UNL     1      -1.550  10.753  18.780  0.00  0.00    +0.000 A 
ATOM      6  C   UNL     1      -1.715   9.999  17.600  0.00  0.00    +0.000 A 
ATOM      7  C   UNL     1      -2.867  10.141  16.829  0.00  0.00    +0.000 A 
ATOM      8  C   UNL     1      -3.876  11.021  17.200  0.00  0.00    +0.000 A 
ATOM      9  C   UNL     1      -3.760  11.760  18.372  0.00  0.00    +0.000 A 
ATOM     10 CL   UNL     1      -5.020  12.887  18.769  0.00  0.00    +0.000 Cl
ATOM     11  C   UNL     1      -0.248  10.710  19.604  0.00  0.00    +0.000 C 
ATOM     12  C   UNL     1       0.471  12.106  19.614  0.00  0.00    +0.000 C 
ENDROOT
BRANCH  11  13
ATOM     13  C   UNL     1       0.749   9.601  19.216  0.00  0.00    +0.000 A 
ATOM     14  C   UNL     1       1.410   9.592  17.975  0.00  0.00    +0.000 A 
ATOM     15  C   UNL     1       2.376   8.626  17.683  0.00  0.00    +0.000 A 
ATOM     16  C   UNL     1       2.683   7.640  18.616  0.00  0.00    +0.000 A 
ATOM     17  C   UNL     1       2.015   7.613  19.838  0.00  0.00    +0.000 A 
ATOM     18  C   UNL     1       1.051   8.582  20.137  0.00  0.00    +0.000 A 
ENDBRANCH  11  13
BRANCH   7  19
ATOM     19  O   UNL     1      -3.042   9.441  15.664  0.00  0.00    +0.000 OA
ATOM     20  H   UNL     1      -3.981   9.491  15.415  0.00  0.00    +0.000 HD
ENDBRANCH   7  19
BRANCH   8  21
ATOM     21  O   UNL     1      -4.965  11.151  16.377  0.00  0.00    +0.000 OA
ATOM     22  H   UNL     1      -4.638  11.646  15.601  0.00  0.00    +0.000 HD
ENDBRANCH   8  21
BRANCH   1  23
ATOM     23  C   UNL     1       0.852  14.329  20.456  0.00  0.00    +0.000 C 
BRANCH  23  25
ATOM     24  C   UNL     1       0.773  16.065  18.636  0.00  0.00    +0.000 C 
ATOM     25  C   UNL     1       1.057  14.823  19.051  0.00  0.00    +0.000 C 
ENDBRANCH  23  25
ENDBRANCH   1  23
TORSDOF 5
ENDMDL
