MODEL 1
REMARK VINA RESULT:      -8.5      0.000      0.000
REMARK  Name = 
REMARK  10 active torsions:
REMARK  status: ('A' for Active; 'I' for Inactive)
REMARK    1  A    between atoms: C_1  and  C_2
REMARK    2  A    between atoms: C_5  and  N_6
REMARK    3  A    between atoms: C_7  and  C_8
REMARK    4  A    between atoms: C_11  and  O_12
REMARK    5  A    between atoms: O_12  and  C_13
REMARK    6  A    between atoms: C_13  and  C_14
REMARK    7  A    between atoms: C_14  and  O_15
REMARK    8  A    between atoms: O_15  and  C_16
REMARK    9  A    between atoms: C_18  and  C_19
REMARK   10  A    between atoms: N_21  and  C_22
REMARK                            x       y       z     vdW  Elec       q    Type
REMARK                         _______ _______ _______ _____ _____    ______ ____
ROOT
ATOM      1  O   UNL     1       2.824   3.868  18.177  0.00  0.00    +0.000 OA
ENDROOT
BRANCH   1   5
ATOM      2  C   UNL     1       1.818   7.424  20.100  0.00  0.00    +0.000 A 
ATOM      3  C   UNL     1       2.381   7.484  18.824  0.00  0.00    +0.000 A 
ATOM      4  C   UNL     1       2.730   6.319  18.151  0.00  0.00    +0.000 A 
ATOM      5  C   UNL     1       2.516   5.075  18.744  0.00  0.00    +0.000 A 
ATOM      6  C   UNL     1       1.951   5.014  20.026  0.00  0.00    +0.000 A 
ATOM      7  C   UNL     1       1.604   6.185  20.709  0.00  0.00    +0.000 A 
BRANCH   2   9
ATOM      8  N   UNL     1       0.231   8.973  20.988  0.00  0.00    +0.000 NA
ATOM      9  C   UNL     1       1.473   8.681  20.783  0.00  0.00    +0.000 C 
BRANCH   8  14
ATOM     10  C   UNL     1      -1.323  13.969  23.268  0.00  0.00    +0.000 C 
ATOM     11  C   UNL     1      -0.905  12.655  22.687  0.00  0.00    +0.000 A 
ATOM     12  C   UNL     1      -0.136  12.594  21.520  0.00  0.00    +0.000 A 
ATOM     13  C   UNL     1       0.235  11.358  20.993  0.00  0.00    +0.000 A 
ATOM     14  C   UNL     1      -0.144  10.164  21.616  0.00  0.00    +0.000 A 
ATOM     15  C   UNL     1      -0.930  10.228  22.767  0.00  0.00    +0.000 A 
ATOM     16  C   UNL     1      -1.299  11.462  23.305  0.00  0.00    +0.000 A 
ENDBRANCH   8  14
ENDBRANCH   2   9
ENDBRANCH   1   5
BRANCH   1  17
ATOM     17  C   UNL     1       3.734   3.031  18.893  0.00  0.00    +0.000 C 
BRANCH  17  18
ATOM     18  C   UNL     1       5.146   3.618  18.898  0.00  0.00    +0.000 C 
BRANCH  18  19
ATOM     19  O   UNL     1       5.472   3.992  17.563  0.00  0.00    +0.000 OA
BRANCH  19  20
ATOM     20  C   UNL     1       6.200   5.101  17.402  0.00  0.00    +0.000 A 
ATOM     21  C   UNL     1       6.557   6.114  18.270  0.00  0.00    +0.000 A 
ATOM     22  C   UNL     1       7.395   6.971  17.535  0.00  0.00    +0.000 A 
ATOM     23  C   UNL     1       8.051   8.219  17.991  0.00  0.00    +0.000 C 
ATOM     24  N   UNL     1       7.568   6.541  16.285  0.00  0.00    +0.000 NA
ATOM     25  N   UNL     1       6.775   5.434  16.169  0.00  0.00    +0.000 N 
BRANCH  25  26
ATOM     26  C   UNL     1       6.599   4.824  14.886  0.00  0.00    +0.000 A 
ATOM     27  C   UNL     1       7.576   5.023  13.894  0.00  0.00    +0.000 A 
ATOM     28  C   UNL     1       7.403   4.497  12.610  0.00  0.00    +0.000 A 
ATOM     29  C   UNL     1       6.257   3.769  12.302  0.00  0.00    +0.000 A 
ATOM     30  C   UNL     1       5.291   3.553  13.278  0.00  0.00    +0.000 A 
ATOM     31  C   UNL     1       5.459   4.074  14.565  0.00  0.00    +0.000 A 
ENDBRANCH  25  26
ENDBRANCH  19  20
ENDBRANCH  18  19
ENDBRANCH  17  18
ENDBRANCH   1  17
TORSDOF 8
ENDMDL
MODEL 2
REMARK VINA RESULT:      -8.2      1.243      3.388
REMARK  Name = 
REMARK  10 active torsions:
REMARK  status: ('A' for Active; 'I' for Inactive)
REMARK    1  A    between atoms: C_1  and  C_2
REMARK    2  A    between atoms: C_5  and  N_6
REMARK    3  A    between atoms: C_7  and  C_8
REMARK    4  A    between atoms: C_11  and  O_12
REMARK    5  A    between atoms: O_12  and  C_13
REMARK    6  A    between atoms: C_13  and  C_14
REMARK    7  A    between atoms: C_14  and  O_15
REMARK    8  A    between atoms: O_15  and  C_16
REMARK    9  A    between atoms: C_18  and  C_19
REMARK   10  A    between atoms: N_21  and  C_22
REMARK                            x       y       z     vdW  Elec       q    Type
REMARK                         _______ _______ _______ _____ _____    ______ ____
ROOT
ATOM      1  O   UNL     1       3.528   2.657  19.038  0.00  0.00    +0.000 OA
ENDROOT
BRANCH   1   5
ATOM      2  C   UNL     1       1.695   6.021  20.674  0.00  0.00    +0.000 A 
ATOM      3  C   UNL     1       2.955   6.158  20.089  0.00  0.00    +0.000 A 
ATOM      4  C   UNL     1       3.598   5.059  19.533  0.00  0.00    +0.000 A 
ATOM      5  C   UNL     1       2.986   3.805  19.550  0.00  0.00    +0.000 A 
ATOM      6  C   UNL     1       1.721   3.667  20.139  0.00  0.00    +0.000 A 
ATOM      7  C   UNL     1       1.074   4.769  20.705  0.00  0.00    +0.000 A 
BRANCH   2   9
ATOM      8  N   UNL     1       1.069   8.326  20.614  0.00  0.00    +0.000 NA
ATOM      9  C   UNL     1       1.053   7.208  21.262  0.00  0.00    +0.000 C 
BRANCH   8  14
ATOM     10  C   UNL     1      -1.266  12.927  23.054  0.00  0.00    +0.000 C 
ATOM     11  C   UNL     1      -0.664  11.724  22.398  0.00  0.00    +0.000 A 
ATOM     12  C   UNL     1      -0.853  10.443  22.927  0.00  0.00    +0.000 A 
ATOM     13  C   UNL     1      -0.277   9.337  22.302  0.00  0.00    +0.000 A 
ATOM     14  C   UNL     1       0.490   9.483  21.141  0.00  0.00    +0.000 A 
ATOM     15  C   UNL     1       0.695  10.764  20.629  0.00  0.00    +0.000 A 
ATOM     16  C   UNL     1       0.115  11.875  21.245  0.00  0.00    +0.000 A 
ENDBRANCH   8  14
ENDBRANCH   2   9
ENDBRANCH   1   5
BRANCH   1  17
ATOM     17  C   UNL     1       3.400   2.456  17.628  0.00  0.00    +0.000 C 
BRANCH  17  18
ATOM     18  C   UNL     1       4.734   2.672  16.911  0.00  0.00    +0.000 C 
BRANCH  18  19
ATOM     19  O   UNL     1       4.712   3.970  16.323  0.00  0.00    +0.000 OA
BRANCH  19  20
ATOM     20  C   UNL     1       5.573   4.201  15.327  0.00  0.00    +0.000 A 
ATOM     21  C   UNL     1       5.621   3.765  14.018  0.00  0.00    +0.000 A 
ATOM     22  C   UNL     1       6.730   4.407  13.440  0.00  0.00    +0.000 A 
ATOM     23  C   UNL     1       7.235   4.286  12.052  0.00  0.00    +0.000 C 
ATOM     24  N   UNL     1       7.351   5.201  14.313  0.00  0.00    +0.000 NA
ATOM     25  N   UNL     1       6.695   5.022  15.498  0.00  0.00    +0.000 N 
BRANCH  25  26
ATOM     26  C   UNL     1       7.224   5.609  16.692  0.00  0.00    +0.000 A 
ATOM     27  C   UNL     1       7.615   4.771  17.752  0.00  0.00    +0.000 A 
ATOM     28  C   UNL     1       8.072   5.314  18.956  0.00  0.00    +0.000 A 
ATOM     29  C   UNL     1       8.145   6.695  19.117  0.00  0.00    +0.000 A 
ATOM     30  C   UNL     1       7.775   7.534  18.071  0.00  0.00    +0.000 A 
ATOM     31  C   UNL     1       7.319   6.997  16.863  0.00  0.00    +0.000 A 
ENDBRANCH  25  26
ENDBRANCH  19  20
ENDBRANCH  18  19
ENDBRANCH  17  18
ENDBRANCH   1  17
TORSDOF 8
ENDMDL
MODEL 3
REMARK VINA RESULT:      -8.2      3.727      7.730
REMARK  Name = 
REMARK  10 active torsions:
REMARK  status: ('A' for Active; 'I' for Inactive)
REMARK    1  A    between atoms: C_1  and  C_2
REMARK    2  A    between atoms: C_5  and  N_6
REMARK    3  A    between atoms: C_7  and  C_8
REMARK    4  A    between atoms: C_11  and  O_12
REMARK    5  A    between atoms: O_12  and  C_13
REMARK    6  A    between atoms: C_13  and  C_14
REMARK    7  A    between atoms: C_14  and  O_15
REMARK    8  A    between atoms: O_15  and  C_16
REMARK    9  A    between atoms: C_18  and  C_19
REMARK   10  A    between atoms: N_21  and  C_22
REMARK                            x       y       z     vdW  Elec       q    Type
REMARK                         _______ _______ _______ _____ _____    ______ ____
ROOT
ATOM      1  O   UNL     1       6.729   4.599  17.716  0.00  0.00    +0.000 OA
ENDROOT
BRANCH   1   5
ATOM      2  C   UNL     1       8.354   8.381  18.356  0.00  0.00    +0.000 A 
ATOM      3  C   UNL     1       7.601   8.158  17.201  0.00  0.00    +0.000 A 
ATOM      4  C   UNL     1       7.043   6.909  16.953  0.00  0.00    +0.000 A 
ATOM      5  C   UNL     1       7.227   5.865  17.861  0.00  0.00    +0.000 A 
ATOM      6  C   UNL     1       7.985   6.089  19.019  0.00  0.00    +0.000 A 
ATOM      7  C   UNL     1       8.552   7.343  19.269  0.00  0.00    +0.000 A 
BRANCH   2   9
ATOM      8  N   UNL     1       9.023  10.180  19.778  0.00  0.00    +0.000 NA
ATOM      9  C   UNL     1       8.937   9.714  18.575  0.00  0.00    +0.000 C 
BRANCH   8  14
ATOM     10  C   UNL     1      11.082  15.449  20.536  0.00  0.00    +0.000 C 
ATOM     11  C   UNL     1      10.556  14.060  20.349  0.00  0.00    +0.000 A 
ATOM     12  C   UNL     1      10.540  13.459  19.086  0.00  0.00    +0.000 A 
ATOM     13  C   UNL     1      10.038  12.166  18.936  0.00  0.00    +0.000 A 
ATOM     14  C   UNL     1       9.552  11.448  20.033  0.00  0.00    +0.000 A 
ATOM     15  C   UNL     1       9.549  12.060  21.287  0.00  0.00    +0.000 A 
ATOM     16  C   UNL     1      10.056  13.350  21.447  0.00  0.00    +0.000 A 
ENDBRANCH   8  14
ENDBRANCH   2   9
ENDBRANCH   1   5
BRANCH   1  17
ATOM     17  C   UNL     1       6.291   4.222  16.409  0.00  0.00    +0.000 C 
BRANCH  17  18
ATOM     18  C   UNL     1       4.816   4.564  16.195  0.00  0.00    +0.000 C 
BRANCH  18  19
ATOM     19  O   UNL     1       4.187   4.619  17.473  0.00  0.00    +0.000 OA
BRANCH  19  20
ATOM     20  C   UNL     1       3.508   5.731  17.769  0.00  0.00    +0.000 A 
ATOM     21  C   UNL     1       3.611   7.033  17.319  0.00  0.00    +0.000 A 
ATOM     22  C   UNL     1       2.571   7.739  17.947  0.00  0.00    +0.000 A 
ATOM     23  C   UNL     1       2.234   9.177  17.816  0.00  0.00    +0.000 C 
ATOM     24  N   UNL     1       1.848   6.951  18.743  0.00  0.00    +0.000 NA
ATOM     25  N   UNL     1       2.463   5.732  18.702  0.00  0.00    +0.000 N 
BRANCH  25  26
ATOM     26  C   UNL     1       2.031   4.694  19.589  0.00  0.00    +0.000 A 
ATOM     27  C   UNL     1       2.501   4.687  20.914  0.00  0.00    +0.000 A 
ATOM     28  C   UNL     1       2.151   3.651  21.786  0.00  0.00    +0.000 A 
ATOM     29  C   UNL     1       1.331   2.615  21.348  0.00  0.00    +0.000 A 
ATOM     30  C   UNL     1       0.849   2.619  20.044  0.00  0.00    +0.000 A 
ATOM     31  C   UNL     1       1.193   3.653  19.167  0.00  0.00    +0.000 A 
ENDBRANCH  25  26
ENDBRANCH  19  20
ENDBRANCH  18  19
ENDBRANCH  17  18
ENDBRANCH   1  17
TORSDOF 8
ENDMDL
MODEL 4
REMARK VINA RESULT:      -8.2      0.747      1.185
REMARK  Name = 
REMARK  10 active torsions:
REMARK  status: ('A' for Active; 'I' for Inactive)
REMARK    1  A    between atoms: C_1  and  C_2
REMARK    2  A    between atoms: C_5  and  N_6
REMARK    3  A    between atoms: C_7  and  C_8
REMARK    4  A    between atoms: C_11  and  O_12
REMARK    5  A    between atoms: O_12  and  C_13
REMARK    6  A    between atoms: C_13  and  C_14
REMARK    7  A    between atoms: C_14  and  O_15
REMARK    8  A    between atoms: O_15  and  C_16
REMARK    9  A    between atoms: C_18  and  C_19
REMARK   10  A    between atoms: N_21  and  C_22
REMARK                            x       y       z     vdW  Elec       q    Type
REMARK                         _______ _______ _______ _____ _____    ______ ____
ROOT
ATOM      1  O   UNL     1       3.052   5.163  17.575  0.00  0.00    +0.000 OA
ENDROOT
BRANCH   1   5
ATOM      2  C   UNL     1       1.601   8.097  20.152  0.00  0.00    +0.000 A 
ATOM      3  C   UNL     1       1.938   8.455  18.846  0.00  0.00    +0.000 A 
ATOM      4  C   UNL     1       2.426   7.504  17.957  0.00  0.00    +0.000 A 
ATOM      5  C   UNL     1       2.579   6.178  18.362  0.00  0.00    +0.000 A 
ATOM      6  C   UNL     1       2.241   5.819  19.675  0.00  0.00    +0.000 A 
ATOM      7  C   UNL     1       1.756   6.774  20.573  0.00  0.00    +0.000 A 
BRANCH   2   9
ATOM      8  N   UNL     1       0.440  10.140  20.585  0.00  0.00    +0.000 NA
ATOM      9  C   UNL     1       1.099   9.136  21.065  0.00  0.00    +0.000 C 
BRANCH   8  14
ATOM     10  C   UNL     1      -1.493  14.501  23.718  0.00  0.00    +0.000 C 
ATOM     11  C   UNL     1      -0.979  13.349  22.912  0.00  0.00    +0.000 A 
ATOM     12  C   UNL     1      -0.036  13.543  21.897  0.00  0.00    +0.000 A 
ATOM     13  C   UNL     1       0.423  12.455  21.155  0.00  0.00    +0.000 A 
ATOM     14  C   UNL     1      -0.038  11.160  21.412  0.00  0.00    +0.000 A 
ATOM     15  C   UNL     1      -0.995  10.974  22.410  0.00  0.00    +0.000 A 
ATOM     16  C   UNL     1      -1.455  12.057  23.162  0.00  0.00    +0.000 A 
ENDBRANCH   8  14
ENDBRANCH   2   9
ENDBRANCH   1   5
BRANCH   1  17
ATOM     17  C   UNL     1       3.230   3.890  18.200  0.00  0.00    +0.000 C 
BRANCH  17  18
ATOM     18  C   UNL     1       4.691   3.444  18.153  0.00  0.00    +0.000 C 
BRANCH  18  19
ATOM     19  O   UNL     1       5.248   3.888  16.918  0.00  0.00    +0.000 OA
BRANCH  19  20
ATOM     20  C   UNL     1       6.062   4.947  16.963  0.00  0.00    +0.000 A 
ATOM     21  C   UNL     1       6.370   5.842  17.968  0.00  0.00    +0.000 A 
ATOM     22  C   UNL     1       7.350   6.696  17.433  0.00  0.00    +0.000 A 
ATOM     23  C   UNL     1       8.022   7.841  18.093  0.00  0.00    +0.000 C 
ATOM     24  N   UNL     1       7.654   6.374  16.176  0.00  0.00    +0.000 NA
ATOM     25  N   UNL     1       6.811   5.349  15.850  0.00  0.00    +0.000 N 
BRANCH  25  26
ATOM     26  C   UNL     1       6.763   4.879  14.499  0.00  0.00    +0.000 A 
ATOM     27  C   UNL     1       5.783   3.937  14.136  0.00  0.00    +0.000 A 
ATOM     28  C   UNL     1       5.750   3.409  12.843  0.00  0.00    +0.000 A 
ATOM     29  C   UNL     1       6.690   3.812  11.898  0.00  0.00    +0.000 A 
ATOM     30  C   UNL     1       7.654   4.754  12.240  0.00  0.00    +0.000 A 
ATOM     31  C   UNL     1       7.691   5.288  13.532  0.00  0.00    +0.000 A 
ENDBRANCH  25  26
ENDBRANCH  19  20
ENDBRANCH  18  19
ENDBRANCH  17  18
ENDBRANCH   1  17
TORSDOF 8
ENDMDL
MODEL 5
REMARK VINA RESULT:      -8.2      1.169      1.560
REMARK  Name = 
REMARK  10 active torsions:
REMARK  status: ('A' for Active; 'I' for Inactive)
REMARK    1  A    between atoms: C_1  and  C_2
REMARK    2  A    between atoms: C_5  and  N_6
REMARK    3  A    between atoms: C_7  and  C_8
REMARK    4  A    between atoms: C_11  and  O_12
REMARK    5  A    between atoms: O_12  and  C_13
REMARK    6  A    between atoms: C_13  and  C_14
REMARK    7  A    between atoms: C_14  and  O_15
REMARK    8  A    between atoms: O_15  and  C_16
REMARK    9  A    between atoms: C_18  and  C_19
REMARK   10  A    between atoms: N_21  and  C_22
REMARK                            x       y       z     vdW  Elec       q    Type
REMARK                         _______ _______ _______ _____ _____    ______ ____
ROOT
ATOM      1  O   UNL     1       3.717   2.429  19.055  0.00  0.00    +0.000 OA
ENDROOT
BRANCH   1   5
ATOM      2  C   UNL     1       1.686   5.682  20.679  0.00  0.00    +0.000 A 
ATOM      3  C   UNL     1       0.997   4.482  20.495  0.00  0.00    +0.000 A 
ATOM      4  C   UNL     1       1.641   3.375  19.955  0.00  0.00    +0.000 A 
ATOM      5  C   UNL     1       2.987   3.452  19.597  0.00  0.00    +0.000 A 
ATOM      6  C   UNL     1       3.679   4.657  19.781  0.00  0.00    +0.000 A 
ATOM      7  C   UNL     1       3.032   5.775  20.318  0.00  0.00    +0.000 A 
BRANCH   2   9
ATOM      8  N   UNL     1       1.319   8.032  20.908  0.00  0.00    +0.000 NA
ATOM      9  C   UNL     1       0.964   6.835  21.243  0.00  0.00    +0.000 C 
BRANCH   8  14
ATOM     10  C   UNL     1      -1.351  12.726  22.756  0.00  0.00    +0.000 C 
ATOM     11  C   UNL     1      -0.641  11.494  22.288  0.00  0.00    +0.000 A 
ATOM     12  C   UNL     1       0.155  11.514  21.137  0.00  0.00    +0.000 A 
ATOM     13  C   UNL     1       0.802  10.352  20.717  0.00  0.00    +0.000 A 
ATOM     14  C   UNL     1       0.676   9.157  21.432  0.00  0.00    +0.000 A 
ATOM     15  C   UNL     1      -0.137   9.136  22.566  0.00  0.00    +0.000 A 
ATOM     16  C   UNL     1      -0.781  10.296  22.997  0.00  0.00    +0.000 A 
ENDBRANCH   8  14
ENDBRANCH   2   9
ENDBRANCH   1   5
BRANCH   1  17
ATOM     17  C   UNL     1       3.647   2.264  17.637  0.00  0.00    +0.000 C 
BRANCH  17  18
ATOM     18  C   UNL     1       4.082   3.535  16.906  0.00  0.00    +0.000 C 
BRANCH  18  19
ATOM     19  O   UNL     1       5.489   3.462  16.696  0.00  0.00    +0.000 OA
BRANCH  19  20
ATOM     20  C   UNL     1       6.172   4.610  16.750  0.00  0.00    +0.000 A 
ATOM     21  C   UNL     1       6.390   5.516  17.768  0.00  0.00    +0.000 A 
ATOM     22  C   UNL     1       7.251   6.492  17.236  0.00  0.00    +0.000 A 
ATOM     23  C   UNL     1       7.795   7.695  17.908  0.00  0.00    +0.000 C 
ATOM     24  N   UNL     1       7.568   6.232  15.967  0.00  0.00    +0.000 NA
ATOM     25  N   UNL     1       6.848   5.120  15.634  0.00  0.00    +0.000 N 
BRANCH  25  26
ATOM     26  C   UNL     1       6.830   4.673  14.274  0.00  0.00    +0.000 A 
ATOM     27  C   UNL     1       7.755   5.214  13.363  0.00  0.00    +0.000 A 
ATOM     28  C   UNL     1       7.721   4.848  12.014  0.00  0.00    +0.000 A 
ATOM     29  C   UNL     1       6.768   3.942  11.559  0.00  0.00    +0.000 A 
ATOM     30  C   UNL     1       5.856   3.389  12.452  0.00  0.00    +0.000 A 
ATOM     31  C   UNL     1       5.887   3.748  13.803  0.00  0.00    +0.000 A 
ENDBRANCH  25  26
ENDBRANCH  19  20
ENDBRANCH  18  19
ENDBRANCH  17  18
ENDBRANCH   1  17
TORSDOF 8
ENDMDL
MODEL 6
REMARK VINA RESULT:      -8.1      1.124      3.160
REMARK  Name = 
REMARK  10 active torsions:
REMARK  status: ('A' for Active; 'I' for Inactive)
REMARK    1  A    between atoms: C_1  and  C_2
REMARK    2  A    between atoms: C_5  and  N_6
REMARK    3  A    between atoms: C_7  and  C_8
REMARK    4  A    between atoms: C_11  and  O_12
REMARK    5  A    between atoms: O_12  and  C_13
REMARK    6  A    between atoms: C_13  and  C_14
REMARK    7  A    between atoms: C_14  and  O_15
REMARK    8  A    between atoms: O_15  and  C_16
REMARK    9  A    between atoms: C_18  and  C_19
REMARK   10  A    between atoms: N_21  and  C_22
REMARK                            x       y       z     vdW  Elec       q    Type
REMARK                         _______ _______ _______ _____ _____    ______ ____
ROOT
ATOM      1  O   UNL     1       4.021   4.984  18.806  0.00  0.00    +0.000 OA
ENDROOT
BRANCH   1   5
ATOM      2  C   UNL     1       1.354   7.802  20.321  0.00  0.00    +0.000 A 
ATOM      3  C   UNL     1       2.082   8.114  19.171  0.00  0.00    +0.000 A 
ATOM      4  C   UNL     1       2.981   7.199  18.637  0.00  0.00    +0.000 A 
ATOM      5  C   UNL     1       3.162   5.956  19.243  0.00  0.00    +0.000 A 
ATOM      6  C   UNL     1       2.432   5.643  20.399  0.00  0.00    +0.000 A 
ATOM      7  C   UNL     1       1.531   6.563  20.943  0.00  0.00    +0.000 A 
BRANCH   2   9
ATOM      8  N   UNL     1       0.886   9.896  21.373  0.00  0.00    +0.000 NA
ATOM      9  C   UNL     1       0.420   8.803  20.862  0.00  0.00    +0.000 C 
BRANCH   8  14
ATOM     10  C   UNL     1      -2.570  14.002  23.314  0.00  0.00    +0.000 C 
ATOM     11  C   UNL     1      -1.657  12.922  22.823  0.00  0.00    +0.000 A 
ATOM     12  C   UNL     1      -0.661  13.194  21.880  0.00  0.00    +0.000 A 
ATOM     13  C   UNL     1       0.174  12.171  21.432  0.00  0.00    +0.000 A 
ATOM     14  C   UNL     1       0.039  10.865  21.916  0.00  0.00    +0.000 A 
ATOM     15  C   UNL     1      -0.971  10.593  22.839  0.00  0.00    +0.000 A 
ATOM     16  C   UNL     1      -1.806  11.614  23.298  0.00  0.00    +0.000 A 
ENDBRANCH   8  14
ENDBRANCH   2   9
ENDBRANCH   1   5
BRANCH   1  17
ATOM     17  C   UNL     1       3.434   3.793  18.276  0.00  0.00    +0.000 C 
BRANCH  17  18
ATOM     18  C   UNL     1       4.037   3.432  16.918  0.00  0.00    +0.000 C 
BRANCH  18  19
ATOM     19  O   UNL     1       4.332   4.644  16.230  0.00  0.00    +0.000 OA
BRANCH  19  20
ATOM     20  C   UNL     1       5.316   4.607  15.326  0.00  0.00    +0.000 A 
ATOM     21  C   UNL     1       5.396   4.063  14.060  0.00  0.00    +0.000 A 
ATOM     22  C   UNL     1       6.669   4.410  13.574  0.00  0.00    +0.000 A 
ATOM     23  C   UNL     1       7.269   4.071  12.262  0.00  0.00    +0.000 C 
ATOM     24  N   UNL     1       7.358   5.128  14.461  0.00  0.00    +0.000 NA
ATOM     25  N   UNL     1       6.566   5.188  15.572  0.00  0.00    +0.000 N 
BRANCH  25  26
ATOM     26  C   UNL     1       7.089   5.750  16.781  0.00  0.00    +0.000 A 
ATOM     27  C   UNL     1       7.324   7.135  16.846  0.00  0.00    +0.000 A 
ATOM     28  C   UNL     1       7.896   7.706  17.987  0.00  0.00    +0.000 A 
ATOM     29  C   UNL     1       8.239   6.905  19.073  0.00  0.00    +0.000 A 
ATOM     30  C   UNL     1       7.999   5.536  19.026  0.00  0.00    +0.000 A 
ATOM     31  C   UNL     1       7.424   4.959  17.889  0.00  0.00    +0.000 A 
ENDBRANCH  25  26
ENDBRANCH  19  20
ENDBRANCH  18  19
ENDBRANCH  17  18
ENDBRANCH   1  17
TORSDOF 8
ENDMDL
MODEL 7
REMARK VINA RESULT:      -8.1      0.688      1.101
REMARK  Name = 
REMARK  10 active torsions:
REMARK  status: ('A' for Active; 'I' for Inactive)
REMARK    1  A    between atoms: C_1  and  C_2
REMARK    2  A    between atoms: C_5  and  N_6
REMARK    3  A    between atoms: C_7  and  C_8
REMARK    4  A    between atoms: C_11  and  O_12
REMARK    5  A    between atoms: O_12  and  C_13
REMARK    6  A    between atoms: C_13  and  C_14
REMARK    7  A    between atoms: C_14  and  O_15
REMARK    8  A    between atoms: O_15  and  C_16
REMARK    9  A    between atoms: C_18  and  C_19
REMARK   10  A    between atoms: N_21  and  C_22
REMARK                            x       y       z     vdW  Elec       q    Type
REMARK                         _______ _______ _______ _____ _____    ______ ____
ROOT
ATOM      1  O   UNL     1       3.754   4.432  18.245  0.00  0.00    +0.000 OA
ENDROOT
BRANCH   1   5
ATOM      2  C   UNL     1       1.844   7.914  19.499  0.00  0.00    +0.000 A 
ATOM      3  C   UNL     1       2.552   7.931  18.297  0.00  0.00    +0.000 A 
ATOM      4  C   UNL     1       3.203   6.789  17.845  0.00  0.00    +0.000 A 
ATOM      5  C   UNL     1       3.150   5.610  18.590  0.00  0.00    +0.000 A 
ATOM      6  C   UNL     1       2.439   5.594  19.799  0.00  0.00    +0.000 A 
ATOM      7  C   UNL     1       1.788   6.743  20.259  0.00  0.00    +0.000 A 
BRANCH   2   9
ATOM      8  N   UNL     1       0.855   9.280  21.193  0.00  0.00    +0.000 NA
ATOM      9  C   UNL     1       1.178   9.149  19.948  0.00  0.00    +0.000 C 
BRANCH   8  14
ATOM     10  C   UNL     1      -1.821  13.821  23.381  0.00  0.00    +0.000 C 
ATOM     11  C   UNL     1      -1.126  12.635  22.790  0.00  0.00    +0.000 A 
ATOM     12  C   UNL     1      -1.423  11.337  23.219  0.00  0.00    +0.000 A 
ATOM     13  C   UNL     1      -0.758  10.247  22.658  0.00  0.00    +0.000 A 
ATOM     14  C   UNL     1       0.206  10.425  21.660  0.00  0.00    +0.000 A 
ATOM     15  C   UNL     1       0.515  11.723  21.251  0.00  0.00    +0.000 A 
ATOM     16  C   UNL     1      -0.151  12.818  21.803  0.00  0.00    +0.000 A 
ENDBRANCH   8  14
ENDBRANCH   2   9
ENDBRANCH   1   5
BRANCH   1  17
ATOM     17  C   UNL     1       4.359   3.682  19.300  0.00  0.00    +0.000 C 
BRANCH  17  18
ATOM     18  C   UNL     1       5.835   4.047  19.470  0.00  0.00    +0.000 C 
BRANCH  18  19
ATOM     19  O   UNL     1       6.408   4.176  18.171  0.00  0.00    +0.000 OA
BRANCH  19  20
ATOM     20  C   UNL     1       6.864   5.383  17.824  0.00  0.00    +0.000 A 
ATOM     21  C   UNL     1       7.227   6.489  18.566  0.00  0.00    +0.000 A 
ATOM     22  C   UNL     1       7.696   7.436  17.639  0.00  0.00    +0.000 A 
ATOM     23  C   UNL     1       8.205   8.802  17.906  0.00  0.00    +0.000 C 
ATOM     24  N   UNL     1       7.642   6.973  16.390  0.00  0.00    +0.000 NA
ATOM     25  N   UNL     1       7.058   5.741  16.484  0.00  0.00    +0.000 N 
BRANCH  25  26
ATOM     26  C   UNL     1       6.696   5.040  15.290  0.00  0.00    +0.000 A 
ATOM     27  C   UNL     1       7.570   5.065  14.189  0.00  0.00    +0.000 A 
ATOM     28  C   UNL     1       7.216   4.446  12.987  0.00  0.00    +0.000 A 
ATOM     29  C   UNL     1       5.990   3.797  12.868  0.00  0.00    +0.000 A 
ATOM     30  C   UNL     1       5.123   3.753  13.955  0.00  0.00    +0.000 A 
ATOM     31  C   UNL     1       5.472   4.367  15.161  0.00  0.00    +0.000 A 
ENDBRANCH  25  26
ENDBRANCH  19  20
ENDBRANCH  18  19
ENDBRANCH  17  18
ENDBRANCH   1  17
TORSDOF 8
ENDMDL
MODEL 8
REMARK VINA RESULT:      -8.1      0.793      1.473
REMARK  Name = 
REMARK  10 active torsions:
REMARK  status: ('A' for Active; 'I' for Inactive)
REMARK    1  A    between atoms: C_1  and  C_2
REMARK    2  A    between atoms: C_5  and  N_6
REMARK    3  A    between atoms: C_7  and  C_8
REMARK    4  A    between atoms: C_11  and  O_12
REMARK    5  A    between atoms: O_12  and  C_13
REMARK    6  A    between atoms: C_13  and  C_14
REMARK    7  A    between atoms: C_14  and  O_15
REMARK    8  A    between atoms: O_15  and  C_16
REMARK    9  A    between atoms: C_18  and  C_19
REMARK   10  A    between atoms: N_21  and  C_22
REMARK                            x       y       z     vdW  Elec       q    Type
REMARK                         _______ _______ _______ _____ _____    ______ ____
ROOT
ATOM      1  O   UNL     1       3.035   5.071  17.835  0.00  0.00    +0.000 OA
ENDROOT
BRANCH   1   5
ATOM      2  C   UNL     1       1.525   8.225  20.099  0.00  0.00    +0.000 A 
ATOM      3  C   UNL     1       1.641   6.966  20.691  0.00  0.00    +0.000 A 
ATOM      4  C   UNL     1       2.140   5.890  19.967  0.00  0.00    +0.000 A 
ATOM      5  C   UNL     1       2.535   6.059  18.640  0.00  0.00    +0.000 A 
ATOM      6  C   UNL     1       2.418   7.323  18.045  0.00  0.00    +0.000 A 
ATOM      7  C   UNL     1       1.910   8.407  18.768  0.00  0.00    +0.000 A 
BRANCH   2   9
ATOM      8  N   UNL     1      -0.092   9.939  20.496  0.00  0.00    +0.000 NA
ATOM      9  C   UNL     1       0.980   9.336  20.896  0.00  0.00    +0.000 C 
BRANCH   8  14
ATOM     10  C   UNL     1      -2.479  14.386  23.160  0.00  0.00    +0.000 C 
ATOM     11  C   UNL     1      -1.837  13.222  22.473  0.00  0.00    +0.000 A 
ATOM     12  C   UNL     1      -1.590  13.244  21.096  0.00  0.00    +0.000 A 
ATOM     13  C   UNL     1      -0.996  12.145  20.476  0.00  0.00    +0.000 A 
ATOM     14  C   UNL     1      -0.634  11.011  21.210  0.00  0.00    +0.000 A 
ATOM     15  C   UNL     1      -0.903  10.984  22.579  0.00  0.00    +0.000 A 
ATOM     16  C   UNL     1      -1.490  12.083  23.208  0.00  0.00    +0.000 A 
ENDBRANCH   8  14
ENDBRANCH   2   9
ENDBRANCH   1   5
BRANCH   1  17
ATOM     17  C   UNL     1       3.361   3.829  18.463  0.00  0.00    +0.000 C 
BRANCH  17  18
ATOM     18  C   UNL     1       4.867   3.567  18.430  0.00  0.00    +0.000 C 
BRANCH  18  19
ATOM     19  O   UNL     1       5.358   3.974  17.156  0.00  0.00    +0.000 OA
BRANCH  19  20
ATOM     20  C   UNL     1       6.144   5.055  17.124  0.00  0.00    +0.000 A 
ATOM     21  C   UNL     1       6.476   5.993  18.082  0.00  0.00    +0.000 A 
ATOM     22  C   UNL     1       7.404   6.854  17.470  0.00  0.00    +0.000 A 
ATOM     23  C   UNL     1       8.076   8.038  18.056  0.00  0.00    +0.000 C 
ATOM     24  N   UNL     1       7.654   6.496  16.210  0.00  0.00    +0.000 NA
ATOM     25  N   UNL     1       6.825   5.438  15.962  0.00  0.00    +0.000 N 
BRANCH  25  26
ATOM     26  C   UNL     1       6.723   4.920  14.632  0.00  0.00    +0.000 A 
ATOM     27  C   UNL     1       5.644   4.078  14.306  0.00  0.00    +0.000 A 
ATOM     28  C   UNL     1       5.551   3.502  13.035  0.00  0.00    +0.000 A 
ATOM     29  C   UNL     1       6.528   3.759  12.078  0.00  0.00    +0.000 A 
ATOM     30  C   UNL     1       7.592   4.601  12.383  0.00  0.00    +0.000 A 
ATOM     31  C   UNL     1       7.690   5.182  13.651  0.00  0.00    +0.000 A 
ENDBRANCH  25  26
ENDBRANCH  19  20
ENDBRANCH  18  19
ENDBRANCH  17  18
ENDBRANCH   1  17
TORSDOF 8
ENDMDL
MODEL 9
REMARK VINA RESULT:      -8.0      1.517      3.566
REMARK  Name = 
REMARK  10 active torsions:
REMARK  status: ('A' for Active; 'I' for Inactive)
REMARK    1  A    between atoms: C_1  and  C_2
REMARK    2  A    between atoms: C_5  and  N_6
REMARK    3  A    between atoms: C_7  and  C_8
REMARK    4  A    between atoms: C_11  and  O_12
REMARK    5  A    between atoms: O_12  and  C_13
REMARK    6  A    between atoms: C_13  and  C_14
REMARK    7  A    between atoms: C_14  and  O_15
REMARK    8  A    between atoms: O_15  and  C_16
REMARK    9  A    between atoms: C_18  and  C_19
REMARK   10  A    between atoms: N_21  and  C_22
REMARK                            x       y       z     vdW  Elec       q    Type
REMARK                         _______ _______ _______ _____ _____    ______ ____
ROOT
ATOM      1  O   UNL     1       3.379   6.228  17.690  0.00  0.00    +0.000 OA
ENDROOT
BRANCH   1   5
ATOM      2  C   UNL     1       1.404   9.356  19.605  0.00  0.00    +0.000 A 
ATOM      3  C   UNL     1       1.676   8.191  20.324  0.00  0.00    +0.000 A 
ATOM      4  C   UNL     1       2.333   7.126  19.719  0.00  0.00    +0.000 A 
ATOM      5  C   UNL     1       2.732   7.213  18.385  0.00  0.00    +0.000 A 
ATOM      6  C   UNL     1       2.457   8.384  17.663  0.00  0.00    +0.000 A 
ATOM      7  C   UNL     1       1.791   9.455  18.267  0.00  0.00    +0.000 A 
BRANCH   2   9
ATOM      8  N   UNL     1      -0.578  10.361  20.485  0.00  0.00    +0.000 NA
ATOM      9  C   UNL     1       0.695  10.456  20.280  0.00  0.00    +0.000 C 
BRANCH   8  14
ATOM     10  C   UNL     1      -3.720  14.533  22.785  0.00  0.00    +0.000 C 
ATOM     11  C   UNL     1      -2.880  13.447  22.190  0.00  0.00    +0.000 A 
ATOM     12  C   UNL     1      -2.810  13.266  20.804  0.00  0.00    +0.000 A 
ATOM     13  C   UNL     1      -2.026  12.243  20.273  0.00  0.00    +0.000 A 
ATOM     14  C   UNL     1      -1.295  11.388  21.104  0.00  0.00    +0.000 A 
ATOM     15  C   UNL     1      -1.385  11.557  22.486  0.00  0.00    +0.000 A 
ATOM     16  C   UNL     1      -2.162  12.583  23.025  0.00  0.00    +0.000 A 
ENDBRANCH   8  14
ENDBRANCH   2   9
ENDBRANCH   1   5
BRANCH   1  17
ATOM     17  C   UNL     1       3.038   4.878  18.013  0.00  0.00    +0.000 C 
BRANCH  17  18
ATOM     18  C   UNL     1       3.414   3.922  16.881  0.00  0.00    +0.000 C 
BRANCH  18  19
ATOM     19  O   UNL     1       4.820   3.701  16.939  0.00  0.00    +0.000 OA
BRANCH  19  20
ATOM     20  C   UNL     1       5.528   3.989  15.843  0.00  0.00    +0.000 A 
ATOM     21  C   UNL     1       5.501   3.482  14.559  0.00  0.00    +0.000 A 
ATOM     22  C   UNL     1       6.435   4.238  13.829  0.00  0.00    +0.000 A 
ATOM     23  C   UNL     1       6.803   4.103  12.400  0.00  0.00    +0.000 C 
ATOM     24  N   UNL     1       7.019   5.167  14.586  0.00  0.00    +0.000 NA
ATOM     25  N   UNL     1       6.526   4.972  15.845  0.00  0.00    +0.000 N 
BRANCH  25  26
ATOM     26  C   UNL     1       7.083   5.703  16.942  0.00  0.00    +0.000 A 
ATOM     27  C   UNL     1       7.240   7.096  16.828  0.00  0.00    +0.000 A 
ATOM     28  C   UNL     1       7.842   7.830  17.854  0.00  0.00    +0.000 A 
ATOM     29  C   UNL     1       8.293   7.186  19.003  0.00  0.00    +0.000 A 
ATOM     30  C   UNL     1       8.131   5.811  19.134  0.00  0.00    +0.000 A 
ATOM     31  C   UNL     1       7.528   5.072  18.112  0.00  0.00    +0.000 A 
ENDBRANCH  25  26
ENDBRANCH  19  20
ENDBRANCH  18  19
ENDBRANCH  17  18
ENDBRANCH   1  17
TORSDOF 8
ENDMDL
