MODEL 1
REMARK VINA RESULT:      -8.2      0.000      0.000
REMARK  Name = 
REMARK  14 active torsions:
REMARK  status: ('A' for Active; 'I' for Inactive)
REMARK    1  A    between atoms: C_1  and  O_2
REMARK    2  A    between atoms: O_2  and  C_3
REMARK    3  A    between atoms: C_3  and  C_5
REMARK    4  A    between atoms: C_9  and  C_10
REMARK    5  A    between atoms: C_13  and  O_14
REMARK    6  A    between atoms: O_14  and  C_15
REMARK    7  A    between atoms: C_17  and  C_18
REMARK    8  A    between atoms: C_18  and  O_19
REMARK    9  A    between atoms: C_20  and  O_21
REMARK   10  A    between atoms: C_22  and  O_23
REMARK   11  A    between atoms: C_24  and  O_25
REMARK   12  A    between atoms: C_27  and  C_28
REMARK   13  A    between atoms: C_28  and  O_30
REMARK   14  A    between atoms: O_30  and  C_31
REMARK                            x       y       z     vdW  Elec       q    Type
REMARK                         _______ _______ _______ _____ _____    ______ ____
ROOT
ATOM      1  C   UNL     1       1.070   9.748  19.411  0.00  0.00    +0.000 A 
ATOM      2  C   UNL     1       1.490   9.425  18.091  0.00  0.00    +0.000 A 
ATOM      3  C   UNL     1       2.154   8.214  17.812  0.00  0.00    +0.000 A 
ATOM      4  C   UNL     1       2.365   7.260  18.803  0.00  0.00    +0.000 A 
ATOM      5  C   UNL     1       1.895   7.572  20.051  0.00  0.00    +0.000 A 
ATOM      6  C   UNL     1       1.285   8.806  20.406  0.00  0.00    +0.000 A 
ENDROOT
BRANCH   1  11
ATOM      7  C   UNL     1      -1.754  12.187  19.586  0.00  0.00    +0.000 A 
ATOM      8  C   UNL     1      -1.043  13.389  19.550  0.00  0.00    +0.000 A 
ATOM      9  C   UNL     1       0.349  13.400  19.622  0.00  0.00    +0.000 A 
ATOM     10  C   UNL     1       1.043  12.206  19.690  0.00  0.00    +0.000 A 
ATOM     11  C   UNL     1       0.348  10.994  19.681  0.00  0.00    +0.000 A 
ATOM     12  C   UNL     1      -1.055  10.993  19.704  0.00  0.00    +0.000 A 
BRANCH   7  13
ATOM     13  C   UNL     1      -3.206  12.206  19.279  0.00  0.00    +0.000 C 
ATOM     14  O   UNL     1      -3.692  11.567  18.362  0.00  0.00    +0.000 OA
BRANCH  13  16
ATOM     15  C   UNL     1      -5.227  12.511  20.388  0.00  0.00    +0.000 C 
ATOM     16  O   UNL     1      -3.888  12.958  20.178  0.00  0.00    +0.000 OA
ENDBRANCH  13  16
ENDBRANCH   7  13
ENDBRANCH   1  11
BRANCH   6  17
ATOM     17  C   UNL     1       1.103   9.065  21.891  0.00  0.00    +0.000 C 
ATOM     18  O   UNL     1       2.003   9.366  22.599  0.00  0.00    +0.000 OA
BRANCH  17  19
ATOM     19  O   UNL     1      -0.195   8.855  22.305  0.00  0.00    +0.000 OA
ATOM     20  C   UNL     1      -0.715   9.886  23.167  0.00  0.00    +0.000 C 
ENDBRANCH  17  19
ENDBRANCH   6  17
BRANCH   4  21
ATOM     21  O   UNL     1       3.049   6.142  18.430  0.00  0.00    +0.000 OA
BRANCH  21  22
ATOM     22  C   UNL     1       3.844   5.268  19.293  0.00  0.00    +0.000 C 
ATOM     23  O   UNL     1       3.155   4.621  20.397  0.00  0.00    +0.000 OA
ATOM     24  C   UNL     1       2.160   3.693  19.943  0.00  0.00    +0.000 C 
ATOM     25  C   UNL     1       2.818   2.547  19.101  0.00  0.00    +0.000 C 
ATOM     26  C   UNL     1       3.723   3.095  17.941  0.00  0.00    +0.000 C 
ATOM     27  C   UNL     1       4.651   4.207  18.456  0.00  0.00    +0.000 C 
BRANCH  25  28
ATOM     28  O   UNL     1       1.893   1.592  18.562  0.00  0.00    +0.000 OA
ATOM     29  H   UNL     1       1.019   1.672  18.975  0.00  0.00    +0.000 HD
ENDBRANCH  25  28
BRANCH  26  30
ATOM     30  O   UNL     1       4.502   2.046  17.330  0.00  0.00    +0.000 OA
ATOM     31  H   UNL     1       4.190   1.945  16.411  0.00  0.00    +0.000 HD
ENDBRANCH  26  30
BRANCH  27  32
ATOM     32  O   UNL     1       5.708   3.628  19.255  0.00  0.00    +0.000 OA
ATOM     33  H   UNL     1       5.648   3.983  20.159  0.00  0.00    +0.000 HD
ENDBRANCH  27  32
BRANCH  24  34
ATOM     34  C   UNL     1       1.212   3.223  21.084  0.00  0.00    +0.000 C 
BRANCH  34  35
ATOM     35  O   UNL     1       1.900   2.716  22.217  0.00  0.00    +0.000 OA
ATOM     36  H   UNL     1       1.267   2.716  22.958  0.00  0.00    +0.000 HD
ENDBRANCH  34  35
ENDBRANCH  24  34
ENDBRANCH  21  22
ENDBRANCH   4  21
TORSDOF 12
ENDMDL
MODEL 2
REMARK VINA RESULT:      -8.1      1.536      2.517
REMARK  Name = 
REMARK  14 active torsions:
REMARK  status: ('A' for Active; 'I' for Inactive)
REMARK    1  A    between atoms: C_1  and  O_2
REMARK    2  A    between atoms: O_2  and  C_3
REMARK    3  A    between atoms: C_3  and  C_5
REMARK    4  A    between atoms: C_9  and  C_10
REMARK    5  A    between atoms: C_13  and  O_14
REMARK    6  A    between atoms: O_14  and  C_15
REMARK    7  A    between atoms: C_17  and  C_18
REMARK    8  A    between atoms: C_18  and  O_19
REMARK    9  A    between atoms: C_20  and  O_21
REMARK   10  A    between atoms: C_22  and  O_23
REMARK   11  A    between atoms: C_24  and  O_25
REMARK   12  A    between atoms: C_27  and  C_28
REMARK   13  A    between atoms: C_28  and  O_30
REMARK   14  A    between atoms: O_30  and  C_31
REMARK                            x       y       z     vdW  Elec       q    Type
REMARK                         _______ _______ _______ _____ _____    ______ ____
ROOT
ATOM      1  C   UNL     1       0.986   9.867  19.373  0.00  0.00    +0.000 A 
ATOM      2  C   UNL     1       1.432   9.563  18.058  0.00  0.00    +0.000 A 
ATOM      3  C   UNL     1       2.108   8.360  17.775  0.00  0.00    +0.000 A 
ATOM      4  C   UNL     1       2.305   7.393  18.757  0.00  0.00    +0.000 A 
ATOM      5  C   UNL     1       1.810   7.686  20.000  0.00  0.00    +0.000 A 
ATOM      6  C   UNL     1       1.188   8.912  20.360  0.00  0.00    +0.000 A 
ENDROOT
BRANCH   1  11
ATOM      7  C   UNL     1       0.109  13.135  20.954  0.00  0.00    +0.000 A 
ATOM      8  C   UNL     1      -1.269  13.159  20.720  0.00  0.00    +0.000 A 
ATOM      9  C   UNL     1      -1.876  12.191  19.923  0.00  0.00    +0.000 A 
ATOM     10  C   UNL     1      -1.117  11.169  19.385  0.00  0.00    +0.000 A 
ATOM     11  C   UNL     1       0.254  11.106  19.646  0.00  0.00    +0.000 A 
ATOM     12  C   UNL     1       0.875  12.135  20.370  0.00  0.00    +0.000 A 
BRANCH   7  13
ATOM     13  C   UNL     1       0.674  14.041  21.984  0.00  0.00    +0.000 C 
ATOM     14  O   UNL     1      -0.013  14.581  22.834  0.00  0.00    +0.000 OA
BRANCH  13  16
ATOM     15  C   UNL     1       2.484  15.388  21.420  0.00  0.00    +0.000 C 
ATOM     16  O   UNL     1       2.025  14.118  21.883  0.00  0.00    +0.000 OA
ENDBRANCH  13  16
ENDBRANCH   7  13
ENDBRANCH   1  11
BRANCH   6  17
ATOM     17  C   UNL     1       0.977   9.151  21.845  0.00  0.00    +0.000 C 
ATOM     18  O   UNL     1       1.876   9.333  22.594  0.00  0.00    +0.000 OA
BRANCH  17  19
ATOM     19  O   UNL     1      -0.351   9.073  22.205  0.00  0.00    +0.000 OA
ATOM     20  C   UNL     1      -0.777  10.103  23.119  0.00  0.00    +0.000 C 
ENDBRANCH  17  19
ENDBRANCH   6  17
BRANCH   4  21
ATOM     21  O   UNL     1       3.002   6.283  18.382  0.00  0.00    +0.000 OA
BRANCH  21  22
ATOM     22  C   UNL     1       3.816   5.424  19.241  0.00  0.00    +0.000 C 
ATOM     23  O   UNL     1       3.141   4.751  20.338  0.00  0.00    +0.000 OA
ATOM     24  C   UNL     1       2.172   3.801  19.874  0.00  0.00    +0.000 C 
ATOM     25  C   UNL     1       2.862   2.679  19.025  0.00  0.00    +0.000 C 
ATOM     26  C   UNL     1       3.757   3.259  17.873  0.00  0.00    +0.000 C 
ATOM     27  C   UNL     1       4.654   4.391  18.399  0.00  0.00    +0.000 C 
BRANCH  25  28
ATOM     28  O   UNL     1       1.965   1.704  18.477  0.00  0.00    +0.000 OA
ATOM     29  H   UNL     1       1.845   0.953  19.079  0.00  0.00    +0.000 HD
ENDBRANCH  25  28
BRANCH  26  30
ATOM     30  O   UNL     1       4.565   2.236  17.256  0.00  0.00    +0.000 OA
ATOM     31  H   UNL     1       4.057   1.869  16.509  0.00  0.00    +0.000 HD
ENDBRANCH  26  30
BRANCH  27  32
ATOM     32  O   UNL     1       5.723   3.834  19.198  0.00  0.00    +0.000 OA
ATOM     33  H   UNL     1       5.465   3.869  20.135  0.00  0.00    +0.000 HD
ENDBRANCH  27  32
BRANCH  24  34
ATOM     34  C   UNL     1       1.233   3.298  21.008  0.00  0.00    +0.000 C 
BRANCH  34  35
ATOM     35  O   UNL     1       1.907   3.057  22.234  0.00  0.00    +0.000 OA
ATOM     36  H   UNL     1       2.599   3.739  22.317  0.00  0.00    +0.000 HD
ENDBRANCH  34  35
ENDBRANCH  24  34
ENDBRANCH  21  22
ENDBRANCH   4  21
TORSDOF 12
ENDMDL
MODEL 3
REMARK VINA RESULT:      -7.9      2.292      9.152
REMARK  Name = 
REMARK  14 active torsions:
REMARK  status: ('A' for Active; 'I' for Inactive)
REMARK    1  A    between atoms: C_1  and  O_2
REMARK    2  A    between atoms: O_2  and  C_3
REMARK    3  A    between atoms: C_3  and  C_5
REMARK    4  A    between atoms: C_9  and  C_10
REMARK    5  A    between atoms: C_13  and  O_14
REMARK    6  A    between atoms: O_14  and  C_15
REMARK    7  A    between atoms: C_17  and  C_18
REMARK    8  A    between atoms: C_18  and  O_19
REMARK    9  A    between atoms: C_20  and  O_21
REMARK   10  A    between atoms: C_22  and  O_23
REMARK   11  A    between atoms: C_24  and  O_25
REMARK   12  A    between atoms: C_27  and  C_28
REMARK   13  A    between atoms: C_28  and  O_30
REMARK   14  A    between atoms: O_30  and  C_31
REMARK                            x       y       z     vdW  Elec       q    Type
REMARK                         _______ _______ _______ _____ _____    ______ ____
ROOT
ATOM      1  C   UNL     1       2.711   6.443  18.920  0.00  0.00    +0.000 A 
ATOM      2  C   UNL     1       2.617   7.703  18.268  0.00  0.00    +0.000 A 
ATOM      3  C   UNL     1       1.788   8.726  18.771  0.00  0.00    +0.000 A 
ATOM      4  C   UNL     1       1.084   8.566  19.960  0.00  0.00    +0.000 A 
ATOM      5  C   UNL     1       1.242   7.365  20.599  0.00  0.00    +0.000 A 
ATOM      6  C   UNL     1       2.004   6.273  20.102  0.00  0.00    +0.000 A 
ENDROOT
BRANCH   1  11
ATOM      7  C   UNL     1       5.880   4.708  17.975  0.00  0.00    +0.000 A 
ATOM      8  C   UNL     1       5.406   3.861  16.969  0.00  0.00    +0.000 A 
ATOM      9  C   UNL     1       4.041   3.751  16.711  0.00  0.00    +0.000 A 
ATOM     10  C   UNL     1       3.142   4.517  17.429  0.00  0.00    +0.000 A 
ATOM     11  C   UNL     1       3.604   5.402  18.406  0.00  0.00    +0.000 A 
ATOM     12  C   UNL     1       4.970   5.438  18.727  0.00  0.00    +0.000 A 
BRANCH   7  13
ATOM     13  C   UNL     1       7.339   4.965  18.062  0.00  0.00    +0.000 C 
ATOM     14  O   UNL     1       8.160   4.314  17.440  0.00  0.00    +0.000 OA
BRANCH  13  16
ATOM     15  C   UNL     1       7.925   7.216  18.118  0.00  0.00    +0.000 C 
ATOM     16  O   UNL     1       7.602   6.035  18.853  0.00  0.00    +0.000 OA
ENDBRANCH  13  16
ENDBRANCH   7  13
ENDBRANCH   1  11
BRANCH   6  17
ATOM     17  C   UNL     1       1.816   4.942  20.808  0.00  0.00    +0.000 C 
ATOM     18  O   UNL     1       2.565   4.550  21.638  0.00  0.00    +0.000 OA
BRANCH  17  19
ATOM     19  O   UNL     1       0.727   4.245  20.331  0.00  0.00    +0.000 OA
ATOM     20  C   UNL     1       1.010   2.877  19.976  0.00  0.00    +0.000 C 
ENDBRANCH  17  19
ENDBRANCH   6  17
BRANCH   4  21
ATOM     21  O   UNL     1       0.285   9.605  20.335  0.00  0.00    +0.000 OA
BRANCH  21  22
ATOM     22  C   UNL     1       0.674  10.774  21.122  0.00  0.00    +0.000 C 
ATOM     23  O   UNL     1       1.599  11.712  20.507  0.00  0.00    +0.000 OA
ATOM     24  C   UNL     1       1.030  12.356  19.359  0.00  0.00    +0.000 C 
ATOM     25  C   UNL     1      -0.235  13.186  19.762  0.00  0.00    +0.000 C 
ATOM     26  C   UNL     1      -1.279  12.338  20.572  0.00  0.00    +0.000 C 
ATOM     27  C   UNL     1      -0.583  11.538  21.684  0.00  0.00    +0.000 C 
BRANCH  25  28
ATOM     28  O   UNL     1      -0.902  13.832  18.670  0.00  0.00    +0.000 OA
ATOM     29  H   UNL     1      -1.622  13.285  18.319  0.00  0.00    +0.000 HD
ENDBRANCH  25  28
BRANCH  26  30
ATOM     30  O   UNL     1      -2.318  13.165  21.136  0.00  0.00    +0.000 OA
ATOM     31  H   UNL     1      -3.132  12.630  21.177  0.00  0.00    +0.000 HD
ENDBRANCH  26  30
BRANCH  27  32
ATOM     32  O   UNL     1      -0.198  12.427  22.758  0.00  0.00    +0.000 OA
ATOM     33  H   UNL     1       0.106  13.268  22.374  0.00  0.00    +0.000 HD
ENDBRANCH  27  32
BRANCH  24  34
ATOM     34  C   UNL     1       2.089  13.121  18.514  0.00  0.00    +0.000 C 
BRANCH  34  35
ATOM     35  O   UNL     1       2.487  12.425  17.342  0.00  0.00    +0.000 OA
ATOM     36  H   UNL     1       3.169  11.782  17.611  0.00  0.00    +0.000 HD
ENDBRANCH  34  35
ENDBRANCH  24  34
ENDBRANCH  21  22
ENDBRANCH   4  21
TORSDOF 12
ENDMDL
MODEL 4
REMARK VINA RESULT:      -7.9      2.292      9.183
REMARK  Name = 
REMARK  14 active torsions:
REMARK  status: ('A' for Active; 'I' for Inactive)
REMARK    1  A    between atoms: C_1  and  O_2
REMARK    2  A    between atoms: O_2  and  C_3
REMARK    3  A    between atoms: C_3  and  C_5
REMARK    4  A    between atoms: C_9  and  C_10
REMARK    5  A    between atoms: C_13  and  O_14
REMARK    6  A    between atoms: O_14  and  C_15
REMARK    7  A    between atoms: C_17  and  C_18
REMARK    8  A    between atoms: C_18  and  O_19
REMARK    9  A    between atoms: C_20  and  O_21
REMARK   10  A    between atoms: C_22  and  O_23
REMARK   11  A    between atoms: C_24  and  O_25
REMARK   12  A    between atoms: C_27  and  C_28
REMARK   13  A    between atoms: C_28  and  O_30
REMARK   14  A    between atoms: O_30  and  C_31
REMARK                            x       y       z     vdW  Elec       q    Type
REMARK                         _______ _______ _______ _____ _____    ______ ____
ROOT
ATOM      1  C   UNL     1       2.845   6.606  18.606  0.00  0.00    +0.000 A 
ATOM      2  C   UNL     1       2.817   7.824  17.874  0.00  0.00    +0.000 A 
ATOM      3  C   UNL     1       2.133   8.954  18.365  0.00  0.00    +0.000 A 
ATOM      4  C   UNL     1       1.517   8.942  19.613  0.00  0.00    +0.000 A 
ATOM      5  C   UNL     1       1.614   7.775  20.322  0.00  0.00    +0.000 A 
ATOM      6  C   UNL     1       2.226   6.583  19.847  0.00  0.00    +0.000 A 
ENDROOT
BRANCH   1  11
ATOM      7  C   UNL     1       5.650   4.620  17.142  0.00  0.00    +0.000 A 
ATOM      8  C   UNL     1       4.933   3.559  16.581  0.00  0.00    +0.000 A 
ATOM      9  C   UNL     1       3.566   3.418  16.812  0.00  0.00    +0.000 A 
ATOM     10  C   UNL     1       2.897   4.359  17.572  0.00  0.00    +0.000 A 
ATOM     11  C   UNL     1       3.590   5.450  18.102  0.00  0.00    +0.000 A 
ATOM     12  C   UNL     1       4.983   5.535  17.946  0.00  0.00    +0.000 A 
BRANCH   7  13
ATOM     13  C   UNL     1       7.042   4.860  16.689  0.00  0.00    +0.000 C 
ATOM     14  O   UNL     1       8.006   4.337  17.220  0.00  0.00    +0.000 OA
BRANCH  13  16
ATOM     15  C   UNL     1       7.232   4.944  14.372  0.00  0.00    +0.000 C 
ATOM     16  O   UNL     1       7.072   5.662  15.596  0.00  0.00    +0.000 OA
ENDBRANCH  13  16
ENDBRANCH   7  13
ENDBRANCH   1  11
BRANCH   6  17
ATOM     17  C   UNL     1       1.972   5.324  20.659  0.00  0.00    +0.000 C 
ATOM     18  O   UNL     1       2.736   4.927  21.472  0.00  0.00    +0.000 OA
BRANCH  17  19
ATOM     19  O   UNL     1       0.801   4.694  20.297  0.00  0.00    +0.000 OA
ATOM     20  C   UNL     1       0.870   3.255  20.331  0.00  0.00    +0.000 C 
ENDBRANCH  17  19
ENDBRANCH   6  17
BRANCH   4  21
ATOM     21  O   UNL     1       0.853  10.078  19.972  0.00  0.00    +0.000 OA
BRANCH  21  22
ATOM     22  C   UNL     1      -0.594  10.281  19.992  0.00  0.00    +0.000 C 
ATOM     23  O   UNL     1      -1.126  11.173  21.010  0.00  0.00    +0.000 OA
ATOM     24  C   UNL     1      -0.681  12.524  20.829  0.00  0.00    +0.000 C 
ATOM     25  C   UNL     1      -1.171  13.086  19.451  0.00  0.00    +0.000 C 
ATOM     26  C   UNL     1      -0.794  12.149  18.250  0.00  0.00    +0.000 C 
ATOM     27  C   UNL     1      -1.141  10.687  18.572  0.00  0.00    +0.000 C 
BRANCH  25  28
ATOM     28  O   UNL     1      -0.736  14.421  19.159  0.00  0.00    +0.000 OA
ATOM     29  H   UNL     1      -0.358  14.485  18.268  0.00  0.00    +0.000 HD
ENDBRANCH  25  28
BRANCH  26  30
ATOM     30  O   UNL     1      -1.450  12.553  17.030  0.00  0.00    +0.000 OA
ATOM     31  H   UNL     1      -2.386  12.288  17.096  0.00  0.00    +0.000 HD
ENDBRANCH  26  30
BRANCH  27  32
ATOM     32  O   UNL     1      -2.574  10.500  18.508  0.00  0.00    +0.000 OA
ATOM     33  H   UNL     1      -2.973  10.855  19.321  0.00  0.00    +0.000 HD
ENDBRANCH  27  32
BRANCH  24  34
ATOM     34  C   UNL     1      -0.981  13.425  22.062  0.00  0.00    +0.000 C 
BRANCH  34  35
ATOM     35  O   UNL     1       0.186  13.976  22.655  0.00  0.00    +0.000 OA
ATOM     36  H   UNL     1       0.361  13.466  23.467  0.00  0.00    +0.000 HD
ENDBRANCH  34  35
ENDBRANCH  24  34
ENDBRANCH  21  22
ENDBRANCH   4  21
TORSDOF 12
ENDMDL
MODEL 5
REMARK VINA RESULT:      -7.8      1.489      2.861
REMARK  Name = 
REMARK  14 active torsions:
REMARK  status: ('A' for Active; 'I' for Inactive)
REMARK    1  A    between atoms: C_1  and  O_2
REMARK    2  A    between atoms: O_2  and  C_3
REMARK    3  A    between atoms: C_3  and  C_5
REMARK    4  A    between atoms: C_9  and  C_10
REMARK    5  A    between atoms: C_13  and  O_14
REMARK    6  A    between atoms: O_14  and  C_15
REMARK    7  A    between atoms: C_17  and  C_18
REMARK    8  A    between atoms: C_18  and  O_19
REMARK    9  A    between atoms: C_20  and  O_21
REMARK   10  A    between atoms: C_22  and  O_23
REMARK   11  A    between atoms: C_24  and  O_25
REMARK   12  A    between atoms: C_27  and  C_28
REMARK   13  A    between atoms: C_28  and  O_30
REMARK   14  A    between atoms: O_30  and  C_31
REMARK                            x       y       z     vdW  Elec       q    Type
REMARK                         _______ _______ _______ _____ _____    ______ ____
ROOT
ATOM      1  C   UNL     1       0.683   9.696  19.550  0.00  0.00    +0.000 A 
ATOM      2  C   UNL     1       1.238   9.252  18.319  0.00  0.00    +0.000 A 
ATOM      3  C   UNL     1       2.097   8.136  18.265  0.00  0.00    +0.000 A 
ATOM      4  C   UNL     1       2.380   7.386  19.403  0.00  0.00    +0.000 A 
ATOM      5  C   UNL     1       1.782   7.801  20.563  0.00  0.00    +0.000 A 
ATOM      6  C   UNL     1       0.969   8.959  20.690  0.00  0.00    +0.000 A 
ENDROOT
BRANCH   1  11
ATOM      7  C   UNL     1      -2.283  11.823  18.758  0.00  0.00    +0.000 A 
ATOM      8  C   UNL     1      -1.766  13.087  19.054  0.00  0.00    +0.000 A 
ATOM      9  C   UNL     1      -0.513  13.226  19.650  0.00  0.00    +0.000 A 
ATOM     10  C   UNL     1       0.249  12.104  19.917  0.00  0.00    +0.000 A 
ATOM     11  C   UNL     1      -0.236  10.836  19.586  0.00  0.00    +0.000 A 
ATOM     12  C   UNL     1      -1.536  10.697  19.075  0.00  0.00    +0.000 A 
BRANCH   7  13
ATOM     13  C   UNL     1      -3.507  11.730  17.924  0.00  0.00    +0.000 C 
ATOM     14  O   UNL     1      -3.479  11.411  16.748  0.00  0.00    +0.000 OA
BRANCH  13  16
ATOM     15  C   UNL     1      -5.650  11.007  18.467  0.00  0.00    +0.000 C 
ATOM     16  O   UNL     1      -4.621  11.978  18.657  0.00  0.00    +0.000 OA
ENDBRANCH  13  16
ENDBRANCH   7  13
ENDBRANCH   1  11
BRANCH   6  17
ATOM     17  C   UNL     1       0.646   9.405  22.106  0.00  0.00    +0.000 C 
ATOM     18  O   UNL     1       1.487   9.643  22.905  0.00  0.00    +0.000 OA
BRANCH  17  19
ATOM     19  O   UNL     1      -0.710   9.439  22.348  0.00  0.00    +0.000 OA
ATOM     20  C   UNL     1      -1.139  10.557  23.151  0.00  0.00    +0.000 C 
ENDBRANCH  17  19
ENDBRANCH   6  17
BRANCH   4  21
ATOM     21  O   UNL     1       3.251   6.349  19.243  0.00  0.00    +0.000 OA
BRANCH  21  22
ATOM     22  C   UNL     1       3.161   5.268  18.264  0.00  0.00    +0.000 C 
ATOM     23  O   UNL     1       3.895   5.436  17.019  0.00  0.00    +0.000 OA
ATOM     24  C   UNL     1       5.313   5.472  17.230  0.00  0.00    +0.000 C 
ATOM     25  C   UNL     1       5.812   4.126  17.857  0.00  0.00    +0.000 C 
ATOM     26  C   UNL     1       5.009   3.727  19.146  0.00  0.00    +0.000 C 
ATOM     27  C   UNL     1       3.497   3.872  18.910  0.00  0.00    +0.000 C 
BRANCH  25  28
ATOM     28  O   UNL     1       7.215   4.083  18.148  0.00  0.00    +0.000 OA
ATOM     29  H   UNL     1       7.437   3.331  18.718  0.00  0.00    +0.000 HD
ENDBRANCH  25  28
BRANCH  26  30
ATOM     30  O   UNL     1       5.314   2.384  19.573  0.00  0.00    +0.000 OA
ATOM     31  H   UNL     1       5.195   1.796  18.804  0.00  0.00    +0.000 HD
ENDBRANCH  26  30
BRANCH  27  32
ATOM     32  O   UNL     1       3.030   2.796  18.064  0.00  0.00    +0.000 OA
ATOM     33  H   UNL     1       2.364   3.148  17.448  0.00  0.00    +0.000 HD
ENDBRANCH  27  32
BRANCH  24  34
ATOM     34  C   UNL     1       6.094   5.953  15.973  0.00  0.00    +0.000 C 
BRANCH  34  35
ATOM     35  O   UNL     1       7.504   5.858  16.115  0.00  0.00    +0.000 OA
ATOM     36  H   UNL     1       7.868   6.745  15.940  0.00  0.00    +0.000 HD
ENDBRANCH  34  35
ENDBRANCH  24  34
ENDBRANCH  21  22
ENDBRANCH   4  21
TORSDOF 12
ENDMDL
MODEL 6
REMARK VINA RESULT:      -7.8      1.874      3.331
REMARK  Name = 
REMARK  14 active torsions:
REMARK  status: ('A' for Active; 'I' for Inactive)
REMARK    1  A    between atoms: C_1  and  O_2
REMARK    2  A    between atoms: O_2  and  C_3
REMARK    3  A    between atoms: C_3  and  C_5
REMARK    4  A    between atoms: C_9  and  C_10
REMARK    5  A    between atoms: C_13  and  O_14
REMARK    6  A    between atoms: O_14  and  C_15
REMARK    7  A    between atoms: C_17  and  C_18
REMARK    8  A    between atoms: C_18  and  O_19
REMARK    9  A    between atoms: C_20  and  O_21
REMARK   10  A    between atoms: C_22  and  O_23
REMARK   11  A    between atoms: C_24  and  O_25
REMARK   12  A    between atoms: C_27  and  C_28
REMARK   13  A    between atoms: C_28  and  O_30
REMARK   14  A    between atoms: O_30  and  C_31
REMARK                            x       y       z     vdW  Elec       q    Type
REMARK                         _______ _______ _______ _____ _____    ______ ____
ROOT
ATOM      1  C   UNL     1       0.797  10.177  19.747  0.00  0.00    +0.000 A 
ATOM      2  C   UNL     1       1.385   9.778  18.516  0.00  0.00    +0.000 A 
ATOM      3  C   UNL     1       2.055   8.544  18.393  0.00  0.00    +0.000 A 
ATOM      4  C   UNL     1       2.106   7.641  19.450  0.00  0.00    +0.000 A 
ATOM      5  C   UNL     1       1.477   8.025  20.604  0.00  0.00    +0.000 A 
ATOM      6  C   UNL     1       0.852   9.286  20.809  0.00  0.00    +0.000 A 
ENDROOT
BRANCH   1  11
ATOM      7  C   UNL     1      -0.084  13.615  20.911  0.00  0.00    +0.000 A 
ATOM      8  C   UNL     1      -1.454  13.626  20.633  0.00  0.00    +0.000 A 
ATOM      9  C   UNL     1      -2.049  12.578  19.933  0.00  0.00    +0.000 A 
ATOM     10  C   UNL     1      -1.288  11.493  19.541  0.00  0.00    +0.000 A 
ATOM     11  C   UNL     1       0.073  11.446  19.852  0.00  0.00    +0.000 A 
ATOM     12  C   UNL     1       0.686  12.547  20.472  0.00  0.00    +0.000 A 
BRANCH   7  13
ATOM     13  C   UNL     1       0.462  14.628  21.848  0.00  0.00    +0.000 C 
ATOM     14  O   UNL     1       1.578  14.544  22.330  0.00  0.00    +0.000 OA
BRANCH  13  16
ATOM     15  C   UNL     1       0.189  16.938  21.854  0.00  0.00    +0.000 C 
ATOM     16  O   UNL     1      -0.409  15.653  22.025  0.00  0.00    +0.000 OA
ENDBRANCH  13  16
ENDBRANCH   7  13
ENDBRANCH   1  11
BRANCH   6  17
ATOM     17  C   UNL     1       0.475   9.627  22.240  0.00  0.00    +0.000 C 
ATOM     18  O   UNL     1       1.279   9.725  23.104  0.00  0.00    +0.000 OA
BRANCH  17  19
ATOM     19  O   UNL     1      -0.888   9.747  22.408  0.00  0.00    +0.000 OA
ATOM     20  C   UNL     1      -1.287  10.873  23.214  0.00  0.00    +0.000 C 
ENDBRANCH  17  19
ENDBRANCH   6  17
BRANCH   4  21
ATOM     21  O   UNL     1       2.811   6.494  19.233  0.00  0.00    +0.000 OA
BRANCH  21  22
ATOM     22  C   UNL     1       2.659   5.568  18.112  0.00  0.00    +0.000 C 
ATOM     23  O   UNL     1       3.851   5.259  17.339  0.00  0.00    +0.000 OA
ATOM     24  C   UNL     1       4.832   4.559  18.116  0.00  0.00    +0.000 C 
ATOM     25  C   UNL     1       4.263   3.187  18.616  0.00  0.00    +0.000 C 
ATOM     26  C   UNL     1       2.886   3.339  19.355  0.00  0.00    +0.000 C 
ATOM     27  C   UNL     1       1.935   4.240  18.551  0.00  0.00    +0.000 C 
BRANCH  25  28
ATOM     28  O   UNL     1       5.158   2.432  19.443  0.00  0.00    +0.000 OA
ATOM     29  H   UNL     1       5.880   2.045  18.925  0.00  0.00    +0.000 HD
ENDBRANCH  25  28
BRANCH  26  30
ATOM     30  O   UNL     1       2.265   2.060  19.597  0.00  0.00    +0.000 OA
ATOM     31  H   UNL     1       1.340   2.118  19.292  0.00  0.00    +0.000 HD
ENDBRANCH  26  30
BRANCH  27  32
ATOM     32  O   UNL     1       1.444   3.524  17.395  0.00  0.00    +0.000 OA
ATOM     33  H   UNL     1       0.473   3.580  17.380  0.00  0.00    +0.000 HD
ENDBRANCH  27  32
BRANCH  24  34
ATOM     34  C   UNL     1       6.218   4.490  17.413  0.00  0.00    +0.000 C 
BRANCH  34  35
ATOM     35  O   UNL     1       7.288   4.205  18.302  0.00  0.00    +0.000 OA
ATOM     36  H   UNL     1       7.860   3.553  17.858  0.00  0.00    +0.000 HD
ENDBRANCH  34  35
ENDBRANCH  24  34
ENDBRANCH  21  22
ENDBRANCH   4  21
TORSDOF 12
ENDMDL
MODEL 7
REMARK VINA RESULT:      -7.8      2.151      9.133
REMARK  Name = 
REMARK  14 active torsions:
REMARK  status: ('A' for Active; 'I' for Inactive)
REMARK    1  A    between atoms: C_1  and  O_2
REMARK    2  A    between atoms: O_2  and  C_3
REMARK    3  A    between atoms: C_3  and  C_5
REMARK    4  A    between atoms: C_9  and  C_10
REMARK    5  A    between atoms: C_13  and  O_14
REMARK    6  A    between atoms: O_14  and  C_15
REMARK    7  A    between atoms: C_17  and  C_18
REMARK    8  A    between atoms: C_18  and  O_19
REMARK    9  A    between atoms: C_20  and  O_21
REMARK   10  A    between atoms: C_22  and  O_23
REMARK   11  A    between atoms: C_24  and  O_25
REMARK   12  A    between atoms: C_27  and  C_28
REMARK   13  A    between atoms: C_28  and  O_30
REMARK   14  A    between atoms: O_30  and  C_31
REMARK                            x       y       z     vdW  Elec       q    Type
REMARK                         _______ _______ _______ _____ _____    ______ ____
ROOT
ATOM      1  C   UNL     1       2.758   6.495  18.792  0.00  0.00    +0.000 A 
ATOM      2  C   UNL     1       2.669   7.761  18.151  0.00  0.00    +0.000 A 
ATOM      3  C   UNL     1       1.910   8.810  18.708  0.00  0.00    +0.000 A 
ATOM      4  C   UNL     1       1.275   8.669  19.938  0.00  0.00    +0.000 A 
ATOM      5  C   UNL     1       1.430   7.460  20.562  0.00  0.00    +0.000 A 
ATOM      6  C   UNL     1       2.120   6.344  20.015  0.00  0.00    +0.000 A 
ENDROOT
BRANCH   1  11
ATOM      7  C   UNL     1       5.748   4.752  17.389  0.00  0.00    +0.000 A 
ATOM      8  C   UNL     1       5.121   3.772  16.616  0.00  0.00    +0.000 A 
ATOM      9  C   UNL     1       3.740   3.589  16.674  0.00  0.00    +0.000 A 
ATOM     10  C   UNL     1       2.972   4.412  17.477  0.00  0.00    +0.000 A 
ATOM     11  C   UNL     1       3.579   5.425  18.221  0.00  0.00    +0.000 A 
ATOM     12  C   UNL     1       4.978   5.543  18.231  0.00  0.00    +0.000 A 
BRANCH   7  13
ATOM     13  C   UNL     1       7.175   5.063  17.127  0.00  0.00    +0.000 C 
ATOM     14  O   UNL     1       8.074   4.273  17.359  0.00  0.00    +0.000 OA
BRANCH  13  16
ATOM     15  C   UNL     1       7.647   7.313  17.482  0.00  0.00    +0.000 C 
ATOM     16  O   UNL     1       7.315   6.283  16.551  0.00  0.00    +0.000 OA
ENDBRANCH  13  16
ENDBRANCH   7  13
ENDBRANCH   1  11
BRANCH   6  17
ATOM     17  C   UNL     1       1.928   5.017  20.728  0.00  0.00    +0.000 C 
ATOM     18  O   UNL     1       2.664   4.636  21.573  0.00  0.00    +0.000 OA
BRANCH  17  19
ATOM     19  O   UNL     1       0.852   4.309  20.237  0.00  0.00    +0.000 OA
ATOM     20  C   UNL     1       1.010   2.878  20.294  0.00  0.00    +0.000 C 
ENDBRANCH  17  19
ENDBRANCH   6  17
BRANCH   4  21
ATOM     21  O   UNL     1       0.539   9.734  20.365  0.00  0.00    +0.000 OA
BRANCH  21  22
ATOM     22  C   UNL     1       0.699  11.132  19.965  0.00  0.00    +0.000 C 
ATOM     23  O   UNL     1       0.051  11.548  18.732  0.00  0.00    +0.000 OA
ATOM     24  C   UNL     1      -1.378  11.471  18.820  0.00  0.00    +0.000 C 
ATOM     25  C   UNL     1      -1.913  12.424  19.943  0.00  0.00    +0.000 C 
ATOM     26  C   UNL     1      -1.198  12.193  21.321  0.00  0.00    +0.000 C 
ATOM     27  C   UNL     1       0.326  12.115  21.136  0.00  0.00    +0.000 C 
BRANCH  25  28
ATOM     28  O   UNL     1      -3.333  12.382  20.139  0.00  0.00    +0.000 OA
ATOM     29  H   UNL     1      -3.648  11.473  20.264  0.00  0.00    +0.000 HD
ENDBRANCH  25  28
BRANCH  26  30
ATOM     30  O   UNL     1      -1.526  13.224  22.274  0.00  0.00    +0.000 OA
ATOM     31  H   UNL     1      -2.487  13.381  22.220  0.00  0.00    +0.000 HD
ENDBRANCH  26  30
BRANCH  27  32
ATOM     32  O   UNL     1       0.853  13.437  20.876  0.00  0.00    +0.000 OA
ATOM     33  H   UNL     1       0.448  13.781  20.061  0.00  0.00    +0.000 HD
ENDBRANCH  27  32
BRANCH  24  34
ATOM     34  C   UNL     1      -2.074  11.613  17.436  0.00  0.00    +0.000 C 
BRANCH  34  35
ATOM     35  O   UNL     1      -3.432  12.017  17.526  0.00  0.00    +0.000 OA
ATOM     36  H   UNL     1      -3.882  11.377  18.108  0.00  0.00    +0.000 HD
ENDBRANCH  34  35
ENDBRANCH  24  34
ENDBRANCH  21  22
ENDBRANCH   4  21
TORSDOF 12
ENDMDL
MODEL 8
REMARK VINA RESULT:      -7.8      1.221      2.590
REMARK  Name = 
REMARK  14 active torsions:
REMARK  status: ('A' for Active; 'I' for Inactive)
REMARK    1  A    between atoms: C_1  and  O_2
REMARK    2  A    between atoms: O_2  and  C_3
REMARK    3  A    between atoms: C_3  and  C_5
REMARK    4  A    between atoms: C_9  and  C_10
REMARK    5  A    between atoms: C_13  and  O_14
REMARK    6  A    between atoms: O_14  and  C_15
REMARK    7  A    between atoms: C_17  and  C_18
REMARK    8  A    between atoms: C_18  and  O_19
REMARK    9  A    between atoms: C_20  and  O_21
REMARK   10  A    between atoms: C_22  and  O_23
REMARK   11  A    between atoms: C_24  and  O_25
REMARK   12  A    between atoms: C_27  and  C_28
REMARK   13  A    between atoms: C_28  and  O_30
REMARK   14  A    between atoms: O_30  and  C_31
REMARK                            x       y       z     vdW  Elec       q    Type
REMARK                         _______ _______ _______ _____ _____    ______ ____
ROOT
ATOM      1  C   UNL     1       0.717   9.931  19.649  0.00  0.00    +0.000 A 
ATOM      2  C   UNL     1       1.174   9.633  18.337  0.00  0.00    +0.000 A 
ATOM      3  C   UNL     1       1.987   8.510  18.083  0.00  0.00    +0.000 A 
ATOM      4  C   UNL     1       2.318   7.614  19.095  0.00  0.00    +0.000 A 
ATOM      5  C   UNL     1       1.812   7.892  20.337  0.00  0.00    +0.000 A 
ATOM      6  C   UNL     1       1.050   9.046  20.665  0.00  0.00    +0.000 A 
ENDROOT
BRANCH   1  11
ATOM      7  C   UNL     1      -2.302  12.123  19.494  0.00  0.00    +0.000 A 
ATOM      8  C   UNL     1      -1.714  13.369  19.728  0.00  0.00    +0.000 A 
ATOM      9  C   UNL     1      -0.370  13.470  20.083  0.00  0.00    +0.000 A 
ATOM     10  C   UNL     1       0.406  12.329  20.168  0.00  0.00    +0.000 A 
ATOM     11  C   UNL     1      -0.157  11.081  19.893  0.00  0.00    +0.000 A 
ATOM     12  C   UNL     1      -1.532  10.976  19.629  0.00  0.00    +0.000 A 
BRANCH   7  13
ATOM     13  C   UNL     1      -3.662  12.076  18.900  0.00  0.00    +0.000 C 
ATOM     14  O   UNL     1      -4.657  12.429  19.508  0.00  0.00    +0.000 OA
BRANCH  13  16
ATOM     15  C   UNL     1      -4.912  11.515  17.021  0.00  0.00    +0.000 C 
ATOM     16  O   UNL     1      -3.620  11.660  17.610  0.00  0.00    +0.000 OA
ENDBRANCH  13  16
ENDBRANCH   7  13
ENDBRANCH   1  11
BRANCH   6  17
ATOM     17  C   UNL     1       0.837   9.315  22.145  0.00  0.00    +0.000 C 
ATOM     18  O   UNL     1       1.731   9.555  22.883  0.00  0.00    +0.000 OA
BRANCH  17  19
ATOM     19  O   UNL     1      -0.485   9.190  22.515  0.00  0.00    +0.000 OA
ATOM     20  C   UNL     1      -1.010  10.328  23.226  0.00  0.00    +0.000 C 
ENDBRANCH  17  19
ENDBRANCH   6  17
BRANCH   4  21
ATOM     21  O   UNL     1       3.139   6.583  18.746  0.00  0.00    +0.000 OA
BRANCH  21  22
ATOM     22  C   UNL     1       2.839   5.495  17.816  0.00  0.00    +0.000 C 
ATOM     23  O   UNL     1       3.944   4.965  17.035  0.00  0.00    +0.000 OA
ATOM     24  C   UNL     1       4.932   4.330  17.859  0.00  0.00    +0.000 C 
ATOM     25  C   UNL     1       4.310   3.114  18.626  0.00  0.00    +0.000 C 
ATOM     26  C   UNL     1       3.007   3.499  19.413  0.00  0.00    +0.000 C 
ATOM     27  C   UNL     1       2.062   4.325  18.526  0.00  0.00    +0.000 C 
BRANCH  25  28
ATOM     28  O   UNL     1       5.212   2.440  19.514  0.00  0.00    +0.000 OA
ATOM     29  H   UNL     1       4.950   2.554  20.441  0.00  0.00    +0.000 HD
ENDBRANCH  25  28
BRANCH  26  30
ATOM     30  O   UNL     1       2.320   2.333  19.914  0.00  0.00    +0.000 OA
ATOM     31  H   UNL     1       1.572   2.643  20.457  0.00  0.00    +0.000 HD
ENDBRANCH  26  30
BRANCH  27  32
ATOM     32  O   UNL     1       1.436   3.464  17.546  0.00  0.00    +0.000 OA
ATOM     33  H   UNL     1       2.018   3.399  16.769  0.00  0.00    +0.000 HD
ENDBRANCH  27  32
BRANCH  24  34
ATOM     34  C   UNL     1       6.252   4.032  17.092  0.00  0.00    +0.000 C 
BRANCH  34  35
ATOM     35  O   UNL     1       6.051   3.343  15.867  0.00  0.00    +0.000 OA
ATOM     36  H   UNL     1       6.011   2.392  16.078  0.00  0.00    +0.000 HD
ENDBRANCH  34  35
ENDBRANCH  24  34
ENDBRANCH  21  22
ENDBRANCH   4  21
TORSDOF 12
ENDMDL
MODEL 9
REMARK VINA RESULT:      -7.7      2.146      9.184
REMARK  Name = 
REMARK  14 active torsions:
REMARK  status: ('A' for Active; 'I' for Inactive)
REMARK    1  A    between atoms: C_1  and  O_2
REMARK    2  A    between atoms: O_2  and  C_3
REMARK    3  A    between atoms: C_3  and  C_5
REMARK    4  A    between atoms: C_9  and  C_10
REMARK    5  A    between atoms: C_13  and  O_14
REMARK    6  A    between atoms: O_14  and  C_15
REMARK    7  A    between atoms: C_17  and  C_18
REMARK    8  A    between atoms: C_18  and  O_19
REMARK    9  A    between atoms: C_20  and  O_21
REMARK   10  A    between atoms: C_22  and  O_23
REMARK   11  A    between atoms: C_24  and  O_25
REMARK   12  A    between atoms: C_27  and  C_28
REMARK   13  A    between atoms: C_28  and  O_30
REMARK   14  A    between atoms: O_30  and  C_31
REMARK                            x       y       z     vdW  Elec       q    Type
REMARK                         _______ _______ _______ _____ _____    ______ ____
ROOT
ATOM      1  C   UNL     1       2.803   6.518  18.712  0.00  0.00    +0.000 A 
ATOM      2  C   UNL     1       2.802   7.758  18.017  0.00  0.00    +0.000 A 
ATOM      3  C   UNL     1       2.124   8.882  18.528  0.00  0.00    +0.000 A 
ATOM      4  C   UNL     1       1.486   8.841  19.764  0.00  0.00    +0.000 A 
ATOM      5  C   UNL     1       1.556   7.652  20.440  0.00  0.00    +0.000 A 
ATOM      6  C   UNL     1       2.161   6.467  19.941  0.00  0.00    +0.000 A 
ENDROOT
BRANCH   1  11
ATOM      7  C   UNL     1       5.670   4.482  17.455  0.00  0.00    +0.000 A 
ATOM      8  C   UNL     1       4.986   3.555  16.664  0.00  0.00    +0.000 A 
ATOM      9  C   UNL     1       3.593   3.505  16.665  0.00  0.00    +0.000 A 
ATOM     10  C   UNL     1       2.873   4.407  17.425  0.00  0.00    +0.000 A 
ATOM     11  C   UNL     1       3.542   5.368  18.186  0.00  0.00    +0.000 A 
ATOM     12  C   UNL     1       4.944   5.352  18.256  0.00  0.00    +0.000 A 
BRANCH   7  13
ATOM     13  C   UNL     1       7.130   4.653  17.253  0.00  0.00    +0.000 C 
ATOM     14  O   UNL     1       7.615   4.934  16.171  0.00  0.00    +0.000 OA
BRANCH  13  16
ATOM     15  C   UNL     1       8.029   5.763  19.089  0.00  0.00    +0.000 C 
ATOM     16  O   UNL     1       7.807   4.521  18.421  0.00  0.00    +0.000 OA
ENDBRANCH  13  16
ENDBRANCH   7  13
ENDBRANCH   1  11
BRANCH   6  17
ATOM     17  C   UNL     1       1.877   5.189  20.711  0.00  0.00    +0.000 C 
ATOM     18  O   UNL     1       2.604   4.777  21.551  0.00  0.00    +0.000 OA
BRANCH  17  19
ATOM     19  O   UNL     1       0.729   4.561  20.279  0.00  0.00    +0.000 OA
ATOM     20  C   UNL     1       0.841   3.127  20.181  0.00  0.00    +0.000 C 
ENDBRANCH  17  19
ENDBRANCH   6  17
BRANCH   4  21
ATOM     21  O   UNL     1       0.830   9.974  20.146  0.00  0.00    +0.000 OA
BRANCH  21  22
ATOM     22  C   UNL     1      -0.608  10.226  20.071  0.00  0.00    +0.000 C 
ATOM     23  O   UNL     1      -1.197  11.033  21.126  0.00  0.00    +0.000 OA
ATOM     24  C   UNL     1      -0.703  12.379  21.116  0.00  0.00    +0.000 C 
ATOM     25  C   UNL     1      -1.062  13.088  19.766  0.00  0.00    +0.000 C 
ATOM     26  C   UNL     1      -0.613  12.258  18.511  0.00  0.00    +0.000 C 
ATOM     27  C   UNL     1      -1.025  10.785  18.659  0.00  0.00    +0.000 C 
BRANCH  25  28
ATOM     28  O   UNL     1      -0.568  14.429  19.642  0.00  0.00    +0.000 OA
ATOM     29  H   UNL     1      -0.202  14.751  20.480  0.00  0.00    +0.000 HD
ENDBRANCH  25  28
BRANCH  26  30
ATOM     30  O   UNL     1      -1.155  12.801  17.289  0.00  0.00    +0.000 OA
ATOM     31  H   UNL     1      -1.518  13.682  17.493  0.00  0.00    +0.000 HD
ENDBRANCH  26  30
BRANCH  27  32
ATOM     32  O   UNL     1      -2.452  10.655  18.464  0.00  0.00    +0.000 OA
ATOM     33  H   UNL     1      -2.650   9.740  18.197  0.00  0.00    +0.000 HD
ENDBRANCH  27  32
BRANCH  24  34
ATOM     34  C   UNL     1      -1.078  13.167  22.404  0.00  0.00    +0.000 C 
BRANCH  34  35
ATOM     35  O   UNL     1      -1.901  14.297  22.155  0.00  0.00    +0.000 OA
ATOM     36  H   UNL     1      -2.213  14.224  21.234  0.00  0.00    +0.000 HD
ENDBRANCH  34  35
ENDBRANCH  24  34
ENDBRANCH  21  22
ENDBRANCH   4  21
TORSDOF 12
ENDMDL
