MODEL 1
REMARK VINA RESULT:      -7.3      0.000      0.000
REMARK  Name = 
REMARK  10 active torsions:
REMARK  status: ('A' for Active; 'I' for Inactive)
REMARK    1  A    between atoms: C_1  and  C_2
REMARK    2  A    between atoms: C_2  and  C_3
REMARK    3  A    between atoms: C_16  and  O_17
REMARK    4  A    between atoms: C_18  and  C_19
REMARK    5  A    between atoms: C_19  and  C_20
REMARK    6  A    between atoms: C_22  and  C_23
REMARK    7  A    between atoms: C_23  and  O_24
REMARK    8  A    between atoms: C_25  and  O_26
REMARK    9  A    between atoms: C_27  and  O_28
REMARK   10  A    between atoms: C_29  and  O_30
REMARK                            x       y       z     vdW  Elec       q    Type
REMARK                         _______ _______ _______ _____ _____    ______ ____
ROOT
ATOM      1  C   UNL     1      -3.039  14.444  24.766  0.00  0.00    +0.000 C 
ATOM      2  C   UNL     1      -3.820  13.384  23.971  0.00  0.00    +0.000 C 
ATOM      3  C   UNL     1      -4.522  12.487  25.019  0.00  0.00    +0.000 C 
ATOM      4  O   UNL     1      -4.923  14.083  23.331  0.00  0.00    +0.000 OA
ATOM      5  C   UNL     1      -5.492  13.287  22.374  0.00  0.00    +0.000 A 
ATOM      6  C   UNL     1      -6.718  12.677  22.597  0.00  0.00    +0.000 A 
ATOM      7  C   UNL     1      -7.210  11.791  21.647  0.00  0.00    +0.000 A 
ATOM      8  C   UNL     1      -6.578  11.686  20.406  0.00  0.00    +0.000 A 
ATOM      9  C   UNL     1      -7.200  10.960  19.317  0.00  0.00    +0.000 A 
ATOM     10  C   UNL     1      -6.742  11.151  18.082  0.00  0.00    +0.000 A 
ATOM     11  C   UNL     1      -5.536  11.959  17.811  0.00  0.00    +0.000 A 
ATOM     12  O   UNL     1      -5.210  12.236  16.674  0.00  0.00    +0.000 OA
ATOM     13  O   UNL     1      -4.752  12.304  18.926  0.00  0.00    +0.000 OA
ATOM     14  C   UNL     1      -5.350  12.318  20.201  0.00  0.00    +0.000 A 
ATOM     15  C   UNL     1      -4.734  13.000  21.250  0.00  0.00    +0.000 A 
ATOM     16  C   UNL     1      -3.253  13.171  21.440  0.00  0.00    +0.000 C 
ATOM     17  C   UNL     1      -2.937  12.608  22.880  0.00  0.00    +0.000 C 
ENDROOT
BRANCH  16  18
ATOM     18  O   UNL     1      -2.835  14.525  21.337  0.00  0.00    +0.000 OA
ATOM     19  H   UNL     1      -3.567  15.019  20.925  0.00  0.00    +0.000 HD
ENDBRANCH  16  18
BRANCH  17  20
ATOM     20  C   UNL     1      -1.408  12.597  23.138  0.00  0.00    +0.000 C 
BRANCH  20  21
ATOM     21  C   UNL     1      -0.581  11.835  22.071  0.00  0.00    +0.000 C 
ATOM     22  O   UNL     1      -1.113  12.051  20.756  0.00  0.00    +0.000 OA
ATOM     23  C   UNL     1      -0.251  11.516  19.725  0.00  0.00    +0.000 C 
ATOM     24  C   UNL     1      -0.036   9.998  19.890  0.00  0.00    +0.000 C 
ATOM     25  C   UNL     1       0.400   9.654  21.327  0.00  0.00    +0.000 C 
ATOM     26  C   UNL     1      -0.521  10.324  22.362  0.00  0.00    +0.000 C 
BRANCH  24  27
ATOM     27  O   UNL     1       0.932   9.530  18.941  0.00  0.00    +0.000 OA
ATOM     28  H   UNL     1       0.655   8.661  18.603  0.00  0.00    +0.000 HD
ENDBRANCH  24  27
BRANCH  25  29
ATOM     29  O   UNL     1       0.431   8.234  21.519  0.00  0.00    +0.000 OA
ATOM     30  H   UNL     1       0.153   8.042  22.431  0.00  0.00    +0.000 HD
ENDBRANCH  25  29
BRANCH  26  31
ATOM     31  O   UNL     1      -0.058  10.080  23.691  0.00  0.00    +0.000 OA
ATOM     32  H   UNL     1      -0.691  10.469  24.321  0.00  0.00    +0.000 HD
ENDBRANCH  26  31
BRANCH  23  33
ATOM     33  C   UNL     1      -0.867  11.854  18.356  0.00  0.00    +0.000 C 
BRANCH  33  34
ATOM     34  O   UNL     1      -1.951  12.770  18.485  0.00  0.00    +0.000 OA
ATOM     35  H   UNL     1      -1.959  13.301  17.667  0.00  0.00    +0.000 HD
ENDBRANCH  33  34
ENDBRANCH  23  33
ENDBRANCH  20  21
ENDBRANCH  17  20
TORSDOF 8
ENDMDL
MODEL 2
REMARK VINA RESULT:      -6.8      1.436      2.674
REMARK  Name = 
REMARK  10 active torsions:
REMARK  status: ('A' for Active; 'I' for Inactive)
REMARK    1  A    between atoms: C_1  and  C_2
REMARK    2  A    between atoms: C_2  and  C_3
REMARK    3  A    between atoms: C_16  and  O_17
REMARK    4  A    between atoms: C_18  and  C_19
REMARK    5  A    between atoms: C_19  and  C_20
REMARK    6  A    between atoms: C_22  and  C_23
REMARK    7  A    between atoms: C_23  and  O_24
REMARK    8  A    between atoms: C_25  and  O_26
REMARK    9  A    between atoms: C_27  and  O_28
REMARK   10  A    between atoms: C_29  and  O_30
REMARK                            x       y       z     vdW  Elec       q    Type
REMARK                         _______ _______ _______ _____ _____    ______ ____
ROOT
ATOM      1  C   UNL     1      -1.679  15.837  23.322  0.00  0.00    +0.000 C 
ATOM      2  C   UNL     1      -2.767  14.752  23.404  0.00  0.00    +0.000 C 
ATOM      3  C   UNL     1      -3.081  14.566  24.908  0.00  0.00    +0.000 C 
ATOM      4  O   UNL     1      -3.982  15.352  22.875  0.00  0.00    +0.000 OA
ATOM      5  C   UNL     1      -4.917  14.382  22.632  0.00  0.00    +0.000 A 
ATOM      6  C   UNL     1      -6.007  14.223  23.476  0.00  0.00    +0.000 A 
ATOM      7  C   UNL     1      -6.875  13.159  23.258  0.00  0.00    +0.000 A 
ATOM      8  C   UNL     1      -6.760  12.401  22.091  0.00  0.00    +0.000 A 
ATOM      9  C   UNL     1      -7.789  11.449  21.722  0.00  0.00    +0.000 A 
ATOM     10  C   UNL     1      -7.814  10.994  20.471  0.00  0.00    +0.000 A 
ATOM     11  C   UNL     1      -6.748  11.311  19.501  0.00  0.00    +0.000 A 
ATOM     12  O   UNL     1      -6.854  11.002  18.331  0.00  0.00    +0.000 OA
ATOM     13  O   UNL     1      -5.584  11.902  20.024  0.00  0.00    +0.000 OA
ATOM     14  C   UNL     1      -5.660  12.587  21.252  0.00  0.00    +0.000 A 
ATOM     15  C   UNL     1      -4.655  13.484  21.610  0.00  0.00    +0.000 A 
ATOM     16  C   UNL     1      -3.202  13.373  21.240  0.00  0.00    +0.000 C 
ATOM     17  C   UNL     1      -2.407  13.410  22.603  0.00  0.00    +0.000 C 
ENDROOT
BRANCH  16  18
ATOM     18  O   UNL     1      -2.767  14.422  20.387  0.00  0.00    +0.000 OA
ATOM     19  H   UNL     1      -3.319  15.200  20.586  0.00  0.00    +0.000 HD
ENDBRANCH  16  18
BRANCH  17  20
ATOM     20  C   UNL     1      -0.897  13.157  22.360  0.00  0.00    +0.000 C 
BRANCH  20  21
ATOM     21  C   UNL     1      -0.588  12.132  21.240  0.00  0.00    +0.000 C 
ATOM     22  O   UNL     1      -0.135  10.886  21.792  0.00  0.00    +0.000 OA
ATOM     23  C   UNL     1      -0.029   9.852  20.787  0.00  0.00    +0.000 C 
ATOM     24  C   UNL     1       0.955  10.243  19.665  0.00  0.00    +0.000 C 
ATOM     25  C   UNL     1       0.631  11.641  19.108  0.00  0.00    +0.000 C 
ATOM     26  C   UNL     1       0.457  12.665  20.243  0.00  0.00    +0.000 C 
BRANCH  24  27
ATOM     27  O   UNL     1       0.928   9.261  18.620  0.00  0.00    +0.000 OA
ATOM     28  H   UNL     1       0.685   9.692  17.782  0.00  0.00    +0.000 HD
ENDBRANCH  24  27
BRANCH  25  29
ATOM     29  O   UNL     1       1.648  12.067  18.191  0.00  0.00    +0.000 OA
ATOM     30  H   UNL     1       2.507  12.027  18.646  0.00  0.00    +0.000 HD
ENDBRANCH  25  29
BRANCH  26  31
ATOM     31  O   UNL     1       0.065  13.938  19.728  0.00  0.00    +0.000 OA
ATOM     32  H   UNL     1      -0.840  14.134  20.028  0.00  0.00    +0.000 HD
ENDBRANCH  26  31
BRANCH  23  33
ATOM     33  C   UNL     1       0.395   8.545  21.480  0.00  0.00    +0.000 C 
BRANCH  33  34
ATOM     34  O   UNL     1       1.760   8.234  21.213  0.00  0.00    +0.000 OA
ATOM     35  H   UNL     1       1.821   8.069  20.255  0.00  0.00    +0.000 HD
ENDBRANCH  33  34
ENDBRANCH  23  33
ENDBRANCH  20  21
ENDBRANCH  17  20
TORSDOF 8
ENDMDL
MODEL 3
REMARK VINA RESULT:      -6.7      1.024      1.235
REMARK  Name = 
REMARK  10 active torsions:
REMARK  status: ('A' for Active; 'I' for Inactive)
REMARK    1  A    between atoms: C_1  and  C_2
REMARK    2  A    between atoms: C_2  and  C_3
REMARK    3  A    between atoms: C_16  and  O_17
REMARK    4  A    between atoms: C_18  and  C_19
REMARK    5  A    between atoms: C_19  and  C_20
REMARK    6  A    between atoms: C_22  and  C_23
REMARK    7  A    between atoms: C_23  and  O_24
REMARK    8  A    between atoms: C_25  and  O_26
REMARK    9  A    between atoms: C_27  and  O_28
REMARK   10  A    between atoms: C_29  and  O_30
REMARK                            x       y       z     vdW  Elec       q    Type
REMARK                         _______ _______ _______ _____ _____    ______ ____
ROOT
ATOM      1  C   UNL     1      -2.488  15.606  23.794  0.00  0.00    +0.000 C 
ATOM      2  C   UNL     1      -3.293  14.388  23.310  0.00  0.00    +0.000 C 
ATOM      3  C   UNL     1      -3.967  13.786  24.566  0.00  0.00    +0.000 C 
ATOM      4  O   UNL     1      -4.412  14.916  22.545  0.00  0.00    +0.000 OA
ATOM      5  C   UNL     1      -5.009  13.912  21.831  0.00  0.00    +0.000 A 
ATOM      6  C   UNL     1      -6.229  13.388  22.232  0.00  0.00    +0.000 A 
ATOM      7  C   UNL     1      -6.749  12.297  21.545  0.00  0.00    +0.000 A 
ATOM      8  C   UNL     1      -6.152  11.881  20.353  0.00  0.00    +0.000 A 
ATOM      9  C   UNL     1      -6.805  10.912  19.495  0.00  0.00    +0.000 A 
ATOM     10  C   UNL     1      -6.381  10.787  18.240  0.00  0.00    +0.000 A 
ATOM     11  C   UNL     1      -5.181  11.491  17.745  0.00  0.00    +0.000 A 
ATOM     12  O   UNL     1      -4.886  11.474  16.567  0.00  0.00    +0.000 OA
ATOM     13  O   UNL     1      -4.366  12.096  18.719  0.00  0.00    +0.000 OA
ATOM     14  C   UNL     1      -4.929  12.432  19.965  0.00  0.00    +0.000 A 
ATOM     15  C   UNL     1      -4.283  13.348  20.795  0.00  0.00    +0.000 A 
ATOM     16  C   UNL     1      -2.797  13.548  20.897  0.00  0.00    +0.000 C 
ATOM     17  C   UNL     1      -2.442  13.358  22.423  0.00  0.00    +0.000 C 
ENDROOT
BRANCH  16  18
ATOM     18  O   UNL     1      -2.379  14.829  20.449  0.00  0.00    +0.000 OA
ATOM     19  H   UNL     1      -1.990  14.710  19.563  0.00  0.00    +0.000 HD
ENDBRANCH  16  18
BRANCH  17  20
ATOM     20  C   UNL     1      -0.907  13.398  22.635  0.00  0.00    +0.000 C 
BRANCH  20  21
ATOM     21  C   UNL     1      -0.128  12.268  21.915  0.00  0.00    +0.000 C 
ATOM     22  O   UNL     1      -0.028  12.527  20.507  0.00  0.00    +0.000 OA
ATOM     23  C   UNL     1       0.858  11.596  19.844  0.00  0.00    +0.000 C 
ATOM     24  C   UNL     1       0.384  10.137  20.010  0.00  0.00    +0.000 C 
ATOM     25  C   UNL     1       0.110   9.811  21.490  0.00  0.00    +0.000 C 
ATOM     26  C   UNL     1      -0.774  10.889  22.142  0.00  0.00    +0.000 C 
BRANCH  24  27
ATOM     27  O   UNL     1       1.356   9.236  19.464  0.00  0.00    +0.000 OA
ATOM     28  H   UNL     1       2.186   9.318  19.965  0.00  0.00    +0.000 HD
ENDBRANCH  24  27
BRANCH  25  29
ATOM     29  O   UNL     1      -0.491   8.516  21.619  0.00  0.00    +0.000 OA
ATOM     30  H   UNL     1      -1.311   8.505  21.096  0.00  0.00    +0.000 HD
ENDBRANCH  25  29
BRANCH  26  31
ATOM     31  O   UNL     1      -0.948  10.632  23.536  0.00  0.00    +0.000 OA
ATOM     32  H   UNL     1      -0.086  10.397  23.923  0.00  0.00    +0.000 HD
ENDBRANCH  26  31
BRANCH  23  33
ATOM     33  C   UNL     1       0.953  11.992  18.360  0.00  0.00    +0.000 C 
BRANCH  33  34
ATOM     34  O   UNL     1       2.131  11.464  17.755  0.00  0.00    +0.000 OA
ATOM     35  H   UNL     1       2.779  11.347  18.474  0.00  0.00    +0.000 HD
ENDBRANCH  33  34
ENDBRANCH  23  33
ENDBRANCH  20  21
ENDBRANCH  17  20
TORSDOF 8
ENDMDL
MODEL 4
REMARK VINA RESULT:      -6.7      1.837      2.604
REMARK  Name = 
REMARK  10 active torsions:
REMARK  status: ('A' for Active; 'I' for Inactive)
REMARK    1  A    between atoms: C_1  and  C_2
REMARK    2  A    between atoms: C_2  and  C_3
REMARK    3  A    between atoms: C_16  and  O_17
REMARK    4  A    between atoms: C_18  and  C_19
REMARK    5  A    between atoms: C_19  and  C_20
REMARK    6  A    between atoms: C_22  and  C_23
REMARK    7  A    between atoms: C_23  and  O_24
REMARK    8  A    between atoms: C_25  and  O_26
REMARK    9  A    between atoms: C_27  and  O_28
REMARK   10  A    between atoms: C_29  and  O_30
REMARK                            x       y       z     vdW  Elec       q    Type
REMARK                         _______ _______ _______ _____ _____    ______ ____
ROOT
ATOM      1  C   UNL     1      -1.983  14.954  23.822  0.00  0.00    +0.000 C 
ATOM      2  C   UNL     1      -2.936  13.865  23.300  0.00  0.00    +0.000 C 
ATOM      3  C   UNL     1      -3.525  13.169  24.550  0.00  0.00    +0.000 C 
ATOM      4  O   UNL     1      -4.078  14.561  22.728  0.00  0.00    +0.000 OA
ATOM      5  C   UNL     1      -4.829  13.696  21.980  0.00  0.00    +0.000 A 
ATOM      6  C   UNL     1      -6.042  13.219  22.455  0.00  0.00    +0.000 A 
ATOM      7  C   UNL     1      -6.723  12.258  21.715  0.00  0.00    +0.000 A 
ATOM      8  C   UNL     1      -6.290  11.945  20.425  0.00  0.00    +0.000 A 
ATOM      9  C   UNL     1      -7.109  11.136  19.545  0.00  0.00    +0.000 A 
ATOM     10  C   UNL     1      -6.829  11.129  18.244  0.00  0.00    +0.000 A 
ATOM     11  C   UNL     1      -5.631  11.797  17.698  0.00  0.00    +0.000 A 
ATOM     12  O   UNL     1      -5.462  11.898  16.499  0.00  0.00    +0.000 OA
ATOM     13  O   UNL     1      -4.671  12.220  18.634  0.00  0.00    +0.000 OA
ATOM     14  C   UNL     1      -5.071  12.446  19.965  0.00  0.00    +0.000 A 
ATOM     15  C   UNL     1      -4.266  13.207  20.813  0.00  0.00    +0.000 A 
ATOM     16  C   UNL     1      -2.766  13.284  20.769  0.00  0.00    +0.000 C 
ATOM     17  C   UNL     1      -2.273  12.887  22.215  0.00  0.00    +0.000 C 
ENDROOT
BRANCH  16  18
ATOM     18  O   UNL     1      -2.287  14.575  20.421  0.00  0.00    +0.000 OA
ATOM     19  H   UNL     1      -2.651  15.200  21.074  0.00  0.00    +0.000 HD
ENDBRANCH  16  18
BRANCH  17  20
ATOM     20  C   UNL     1      -0.726  12.789  22.256  0.00  0.00    +0.000 C 
BRANCH  20  21
ATOM     21  C   UNL     1      -0.042  12.829  20.865  0.00  0.00    +0.000 C 
ATOM     22  O   UNL     1       0.443  11.530  20.493  0.00  0.00    +0.000 OA
ATOM     23  C   UNL     1       0.908  11.495  19.124  0.00  0.00    +0.000 C 
ATOM     24  C   UNL     1       2.053  12.500  18.881  0.00  0.00    +0.000 C 
ATOM     25  C   UNL     1       1.672  13.904  19.389  0.00  0.00    +0.000 C 
ATOM     26  C   UNL     1       1.115  13.844  20.822  0.00  0.00    +0.000 C 
BRANCH  24  27
ATOM     27  O   UNL     1       2.390  12.539  17.489  0.00  0.00    +0.000 OA
ATOM     28  H   UNL     1       1.955  11.797  17.033  0.00  0.00    +0.000 HD
ENDBRANCH  24  27
BRANCH  25  29
ATOM     29  O   UNL     1       2.798  14.788  19.318  0.00  0.00    +0.000 OA
ATOM     30  H   UNL     1       2.696  15.469  20.005  0.00  0.00    +0.000 HD
ENDBRANCH  25  29
BRANCH  26  31
ATOM     31  O   UNL     1       0.677  15.133  21.253  0.00  0.00    +0.000 OA
ATOM     32  H   UNL     1       1.384  15.780  21.081  0.00  0.00    +0.000 HD
ENDBRANCH  26  31
BRANCH  23  33
ATOM     33  C   UNL     1       1.343  10.055  18.797  0.00  0.00    +0.000 C 
BRANCH  33  34
ATOM     34  O   UNL     1       1.708   9.921  17.426  0.00  0.00    +0.000 OA
ATOM     35  H   UNL     1       1.817  10.826  17.082  0.00  0.00    +0.000 HD
ENDBRANCH  33  34
ENDBRANCH  23  33
ENDBRANCH  20  21
ENDBRANCH  17  20
TORSDOF 8
ENDMDL
MODEL 5
REMARK VINA RESULT:      -6.7      2.183      6.912
REMARK  Name = 
REMARK  10 active torsions:
REMARK  status: ('A' for Active; 'I' for Inactive)
REMARK    1  A    between atoms: C_1  and  C_2
REMARK    2  A    between atoms: C_2  and  C_3
REMARK    3  A    between atoms: C_16  and  O_17
REMARK    4  A    between atoms: C_18  and  C_19
REMARK    5  A    between atoms: C_19  and  C_20
REMARK    6  A    between atoms: C_22  and  C_23
REMARK    7  A    between atoms: C_23  and  O_24
REMARK    8  A    between atoms: C_25  and  O_26
REMARK    9  A    between atoms: C_27  and  O_28
REMARK   10  A    between atoms: C_29  and  O_30
REMARK                            x       y       z     vdW  Elec       q    Type
REMARK                         _______ _______ _______ _____ _____    ______ ____
ROOT
ATOM      1  C   UNL     1      -0.683  14.826  21.262  0.00  0.00    +0.000 C 
ATOM      2  C   UNL     1      -0.350  13.750  20.214  0.00  0.00    +0.000 C 
ATOM      3  C   UNL     1      -0.397  14.456  18.837  0.00  0.00    +0.000 C 
ATOM      4  O   UNL     1       1.060  13.435  20.386  0.00  0.00    +0.000 OA
ATOM      5  C   UNL     1       1.371  12.288  19.707  0.00  0.00    +0.000 A 
ATOM      6  C   UNL     1       2.082  12.340  18.517  0.00  0.00    +0.000 A 
ATOM      7  C   UNL     1       2.284  11.164  17.803  0.00  0.00    +0.000 A 
ATOM      8  C   UNL     1       1.955   9.938  18.384  0.00  0.00    +0.000 A 
ATOM      9  C   UNL     1       2.373   8.692  17.770  0.00  0.00    +0.000 A 
ATOM     10  C   UNL     1       2.332   7.580  18.500  0.00  0.00    +0.000 A 
ATOM     11  C   UNL     1       1.741   7.551  19.852  0.00  0.00    +0.000 A 
ATOM     12  O   UNL     1       1.834   6.566  20.556  0.00  0.00    +0.000 OA
ATOM     13  O   UNL     1       0.999   8.684  20.233  0.00  0.00    +0.000 OA
ATOM     14  C   UNL     1       1.249   9.910  19.587  0.00  0.00    +0.000 A 
ATOM     15  C   UNL     1       0.824  11.103  20.173  0.00  0.00    +0.000 A 
ATOM     16  C   UNL     1      -0.401  11.278  21.025  0.00  0.00    +0.000 C 
ATOM     17  C   UNL     1      -1.242  12.423  20.339  0.00  0.00    +0.000 C 
ENDROOT
BRANCH  16  18
ATOM     18  O   UNL     1      -0.095  11.627  22.368  0.00  0.00    +0.000 OA
ATOM     19  H   UNL     1      -0.484  12.506  22.530  0.00  0.00    +0.000 HD
ENDBRANCH  16  18
BRANCH  17  20
ATOM     20  C   UNL     1      -2.608  12.598  21.051  0.00  0.00    +0.000 C 
BRANCH  20  21
ATOM     21  C   UNL     1      -3.840  12.267  20.170  0.00  0.00    +0.000 C 
ATOM     22  O   UNL     1      -3.447  11.993  18.817  0.00  0.00    +0.000 OA
ATOM     23  C   UNL     1      -4.546  11.491  18.022  0.00  0.00    +0.000 C 
ATOM     24  C   UNL     1      -5.716  12.493  17.965  0.00  0.00    +0.000 C 
ATOM     25  C   UNL     1      -6.113  12.959  19.379  0.00  0.00    +0.000 C 
ATOM     26  C   UNL     1      -4.880  13.402  20.185  0.00  0.00    +0.000 C 
BRANCH  24  27
ATOM     27  O   UNL     1      -6.837  11.907  17.291  0.00  0.00    +0.000 OA
ATOM     28  H   UNL     1      -7.659  12.185  17.732  0.00  0.00    +0.000 HD
ENDBRANCH  24  27
BRANCH  25  29
ATOM     29  O   UNL     1      -7.081  14.014  19.309  0.00  0.00    +0.000 OA
ATOM     30  H   UNL     1      -7.184  14.394  20.199  0.00  0.00    +0.000 HD
ENDBRANCH  25  29
BRANCH  26  31
ATOM     31  O   UNL     1      -5.241  13.744  21.524  0.00  0.00    +0.000 OA
ATOM     32  H   UNL     1      -4.490  13.547  22.112  0.00  0.00    +0.000 HD
ENDBRANCH  26  31
BRANCH  23  33
ATOM     33  C   UNL     1      -4.015  11.163  16.615  0.00  0.00    +0.000 C 
BRANCH  33  34
ATOM     34  O   UNL     1      -2.698  11.674  16.425  0.00  0.00    +0.000 OA
ATOM     35  H   UNL     1      -2.092  10.917  16.534  0.00  0.00    +0.000 HD
ENDBRANCH  33  34
ENDBRANCH  23  33
ENDBRANCH  20  21
ENDBRANCH  17  20
TORSDOF 8
ENDMDL
MODEL 6
REMARK VINA RESULT:      -6.6      3.298      7.331
REMARK  Name = 
REMARK  10 active torsions:
REMARK  status: ('A' for Active; 'I' for Inactive)
REMARK    1  A    between atoms: C_1  and  C_2
REMARK    2  A    between atoms: C_2  and  C_3
REMARK    3  A    between atoms: C_16  and  O_17
REMARK    4  A    between atoms: C_18  and  C_19
REMARK    5  A    between atoms: C_19  and  C_20
REMARK    6  A    between atoms: C_22  and  C_23
REMARK    7  A    between atoms: C_23  and  O_24
REMARK    8  A    between atoms: C_25  and  O_26
REMARK    9  A    between atoms: C_27  and  O_28
REMARK   10  A    between atoms: C_29  and  O_30
REMARK                            x       y       z     vdW  Elec       q    Type
REMARK                         _______ _______ _______ _____ _____    ______ ____
ROOT
ATOM      1  C   UNL     1       0.079  10.183  19.268  0.00  0.00    +0.000 C 
ATOM      2  C   UNL     1       0.397  11.604  19.765  0.00  0.00    +0.000 C 
ATOM      3  C   UNL     1       1.206  11.434  21.074  0.00  0.00    +0.000 C 
ATOM      4  O   UNL     1       1.370  12.155  18.835  0.00  0.00    +0.000 OA
ATOM      5  C   UNL     1       1.487  13.506  19.022  0.00  0.00    +0.000 A 
ATOM      6  C   UNL     1       2.598  14.039  19.658  0.00  0.00    +0.000 A 
ATOM      7  C   UNL     1       2.629  15.403  19.927  0.00  0.00    +0.000 A 
ATOM      8  C   UNL     1       1.654  16.237  19.376  0.00  0.00    +0.000 A 
ATOM      9  C   UNL     1       1.794  17.679  19.435  0.00  0.00    +0.000 A 
ATOM     10  C   UNL     1       1.036  18.424  18.634  0.00  0.00    +0.000 A 
ATOM     11  C   UNL     1      -0.035  17.840  17.804  0.00  0.00    +0.000 A 
ATOM     12  O   UNL     1      -0.625  18.510  16.980  0.00  0.00    +0.000 OA
ATOM     13  O   UNL     1      -0.387  16.508  18.085  0.00  0.00    +0.000 OA
ATOM     14  C   UNL     1       0.550  15.678  18.730  0.00  0.00    +0.000 A 
ATOM     15  C   UNL     1       0.396  14.292  18.688  0.00  0.00    +0.000 A 
ATOM     16  C   UNL     1      -0.911  13.552  18.641  0.00  0.00    +0.000 C 
ATOM     17  C   UNL     1      -0.887  12.559  19.867  0.00  0.00    +0.000 C 
ENDROOT
BRANCH  16  18
ATOM     18  O   UNL     1      -1.098  12.836  17.429  0.00  0.00    +0.000 OA
ATOM     19  H   UNL     1      -0.276  12.927  16.913  0.00  0.00    +0.000 HD
ENDBRANCH  16  18
BRANCH  17  20
ATOM     20  C   UNL     1      -2.251  11.837  20.010  0.00  0.00    +0.000 C 
BRANCH  20  21
ATOM     21  C   UNL     1      -3.322  12.634  20.799  0.00  0.00    +0.000 C 
ATOM     22  O   UNL     1      -3.349  12.234  22.178  0.00  0.00    +0.000 OA
ATOM     23  C   UNL     1      -4.195  13.093  22.977  0.00  0.00    +0.000 C 
ATOM     24  C   UNL     1      -5.652  13.094  22.470  0.00  0.00    +0.000 C 
ATOM     25  C   UNL     1      -5.710  13.372  20.956  0.00  0.00    +0.000 C 
ATOM     26  C   UNL     1      -4.726  12.473  20.188  0.00  0.00    +0.000 C 
BRANCH  24  27
ATOM     27  O   UNL     1      -6.426  14.059  23.193  0.00  0.00    +0.000 OA
ATOM     28  H   UNL     1      -7.370  13.834  23.119  0.00  0.00    +0.000 HD
ENDBRANCH  24  27
BRANCH  25  29
ATOM     29  O   UNL     1      -7.045  13.202  20.463  0.00  0.00    +0.000 OA
ATOM     30  H   UNL     1      -7.664  13.549  21.128  0.00  0.00    +0.000 HD
ENDBRANCH  25  29
BRANCH  26  31
ATOM     31  O   UNL     1      -4.715  12.799  18.797  0.00  0.00    +0.000 OA
ATOM     32  H   UNL     1      -3.795  12.950  18.516  0.00  0.00    +0.000 HD
ENDBRANCH  26  31
BRANCH  23  33
ATOM     33  C   UNL     1      -4.107  12.630  24.442  0.00  0.00    +0.000 C 
BRANCH  33  34
ATOM     34  O   UNL     1      -5.219  11.811  24.796  0.00  0.00    +0.000 OA
ATOM     35  H   UNL     1      -5.954  12.419  24.997  0.00  0.00    +0.000 HD
ENDBRANCH  33  34
ENDBRANCH  23  33
ENDBRANCH  20  21
ENDBRANCH  17  20
TORSDOF 8
ENDMDL
MODEL 7
REMARK VINA RESULT:      -6.6      3.263      7.453
REMARK  Name = 
REMARK  10 active torsions:
REMARK  status: ('A' for Active; 'I' for Inactive)
REMARK    1  A    between atoms: C_1  and  C_2
REMARK    2  A    between atoms: C_2  and  C_3
REMARK    3  A    between atoms: C_16  and  O_17
REMARK    4  A    between atoms: C_18  and  C_19
REMARK    5  A    between atoms: C_19  and  C_20
REMARK    6  A    between atoms: C_22  and  C_23
REMARK    7  A    between atoms: C_23  and  O_24
REMARK    8  A    between atoms: C_25  and  O_26
REMARK    9  A    between atoms: C_27  and  O_28
REMARK   10  A    between atoms: C_29  and  O_30
REMARK                            x       y       z     vdW  Elec       q    Type
REMARK                         _______ _______ _______ _____ _____    ______ ____
ROOT
ATOM      1  C   UNL     1      -0.848  10.142  19.320  0.00  0.00    +0.000 C 
ATOM      2  C   UNL     1      -0.326  11.407  20.023  0.00  0.00    +0.000 C 
ATOM      3  C   UNL     1       0.011  10.989  21.475  0.00  0.00    +0.000 C 
ATOM      4  O   UNL     1       0.977  11.691  19.441  0.00  0.00    +0.000 OA
ATOM      5  C   UNL     1       1.381  12.952  19.786  0.00  0.00    +0.000 A 
ATOM      6  C   UNL     1       2.368  13.142  20.742  0.00  0.00    +0.000 A 
ATOM      7  C   UNL     1       2.674  14.437  21.144  0.00  0.00    +0.000 A 
ATOM      8  C   UNL     1       2.143  15.522  20.443  0.00  0.00    +0.000 A 
ATOM      9  C   UNL     1       2.629  16.866  20.680  0.00  0.00    +0.000 A 
ATOM     10  C   UNL     1       2.345  17.811  19.787  0.00  0.00    +0.000 A 
ATOM     11  C   UNL     1       1.436  17.567  18.650  0.00  0.00    +0.000 A 
ATOM     12  O   UNL     1       1.294  18.393  17.772  0.00  0.00    +0.000 OA
ATOM     13  O   UNL     1       0.688  16.376  18.694  0.00  0.00    +0.000 OA
ATOM     14  C   UNL     1       1.159  15.305  19.477  0.00  0.00    +0.000 A 
ATOM     15  C   UNL     1       0.670  14.017  19.258  0.00  0.00    +0.000 A 
ATOM     16  C   UNL     1      -0.717  13.668  18.795  0.00  0.00    +0.000 C 
ATOM     17  C   UNL     1      -1.295  12.677  19.879  0.00  0.00    +0.000 C 
ENDROOT
BRANCH  16  18
ATOM     18  O   UNL     1      -0.735  13.061  17.511  0.00  0.00    +0.000 OA
ATOM     19  H   UNL     1      -1.330  12.290  17.568  0.00  0.00    +0.000 HD
ENDBRANCH  16  18
BRANCH  17  20
ATOM     20  C   UNL     1      -2.783  12.356  19.586  0.00  0.00    +0.000 C 
BRANCH  20  21
ATOM     21  C   UNL     1      -3.784  12.963  20.602  0.00  0.00    +0.000 C 
ATOM     22  O   UNL     1      -3.564  12.437  21.919  0.00  0.00    +0.000 OA
ATOM     23  C   UNL     1      -4.349  13.128  22.919  0.00  0.00    +0.000 C 
ATOM     24  C   UNL     1      -5.861  13.027  22.630  0.00  0.00    +0.000 C 
ATOM     25  C   UNL     1      -6.175  13.437  21.179  0.00  0.00    +0.000 C 
ATOM     26  C   UNL     1      -5.246  12.718  20.185  0.00  0.00    +0.000 C 
BRANCH  24  27
ATOM     27  O   UNL     1      -6.596  13.838  23.557  0.00  0.00    +0.000 OA
ATOM     28  H   UNL     1      -6.052  14.601  23.816  0.00  0.00    +0.000 HD
ENDBRANCH  24  27
BRANCH  25  29
ATOM     29  O   UNL     1      -7.550  13.178  20.868  0.00  0.00    +0.000 OA
ATOM     30  H   UNL     1      -8.037  13.066  21.702  0.00  0.00    +0.000 HD
ENDBRANCH  25  29
BRANCH  26  31
ATOM     31  O   UNL     1      -5.478  13.171  18.851  0.00  0.00    +0.000 OA
ATOM     32  H   UNL     1      -5.776  14.097  18.880  0.00  0.00    +0.000 HD
ENDBRANCH  26  31
BRANCH  23  33
ATOM     33  C   UNL     1      -3.997  12.543  24.298  0.00  0.00    +0.000 C 
BRANCH  33  34
ATOM     34  O   UNL     1      -5.083  11.793  24.837  0.00  0.00    +0.000 OA
ATOM     35  H   UNL     1      -4.687  11.114  25.414  0.00  0.00    +0.000 HD
ENDBRANCH  33  34
ENDBRANCH  23  33
ENDBRANCH  20  21
ENDBRANCH  17  20
TORSDOF 8
ENDMDL
MODEL 8
REMARK VINA RESULT:      -6.5      1.800      2.966
REMARK  Name = 
REMARK  10 active torsions:
REMARK  status: ('A' for Active; 'I' for Inactive)
REMARK    1  A    between atoms: C_1  and  C_2
REMARK    2  A    between atoms: C_2  and  C_3
REMARK    3  A    between atoms: C_16  and  O_17
REMARK    4  A    between atoms: C_18  and  C_19
REMARK    5  A    between atoms: C_19  and  C_20
REMARK    6  A    between atoms: C_22  and  C_23
REMARK    7  A    between atoms: C_23  and  O_24
REMARK    8  A    between atoms: C_25  and  O_26
REMARK    9  A    between atoms: C_27  and  O_28
REMARK   10  A    between atoms: C_29  and  O_30
REMARK                            x       y       z     vdW  Elec       q    Type
REMARK                         _______ _______ _______ _____ _____    ______ ____
ROOT
ATOM      1  C   UNL     1      -0.781  15.874  22.888  0.00  0.00    +0.000 C 
ATOM      2  C   UNL     1      -1.872  14.790  22.870  0.00  0.00    +0.000 C 
ATOM      3  C   UNL     1      -2.190  14.470  24.350  0.00  0.00    +0.000 C 
ATOM      4  O   UNL     1      -3.085  15.439  22.396  0.00  0.00    +0.000 OA
ATOM      5  C   UNL     1      -4.023  14.499  22.066  0.00  0.00    +0.000 A 
ATOM      6  C   UNL     1      -5.114  14.268  22.890  0.00  0.00    +0.000 A 
ATOM      7  C   UNL     1      -5.986  13.231  22.577  0.00  0.00    +0.000 A 
ATOM      8  C   UNL     1      -5.872  12.581  21.346  0.00  0.00    +0.000 A 
ATOM      9  C   UNL     1      -6.904  11.671  20.891  0.00  0.00    +0.000 A 
ATOM     10  C   UNL     1      -6.929  11.330  19.604  0.00  0.00    +0.000 A 
ATOM     11  C   UNL     1      -5.861  11.730  18.668  0.00  0.00    +0.000 A 
ATOM     12  O   UNL     1      -5.966  11.529  17.475  0.00  0.00    +0.000 OA
ATOM     13  O   UNL     1      -4.695  12.267  19.243  0.00  0.00    +0.000 OA
ATOM     14  C   UNL     1      -4.770  12.839  20.528  0.00  0.00    +0.000 A 
ATOM     15  C   UNL     1      -3.762  13.696  20.967  0.00  0.00    +0.000 A 
ATOM     16  C   UNL     1      -2.310  13.614  20.590  0.00  0.00    +0.000 C 
ATOM     17  C   UNL     1      -1.516  13.525  21.952  0.00  0.00    +0.000 C 
ENDROOT
BRANCH  16  18
ATOM     18  O   UNL     1      -1.870  14.734  19.835  0.00  0.00    +0.000 OA
ATOM     19  H   UNL     1      -1.010  14.494  19.443  0.00  0.00    +0.000 HD
ENDBRANCH  16  18
BRANCH  17  20
ATOM     20  C   UNL     1      -0.007  13.289  21.689  0.00  0.00    +0.000 C 
BRANCH  20  21
ATOM     21  C   UNL     1       0.302  12.437  20.432  0.00  0.00    +0.000 C 
ATOM     22  O   UNL     1       0.733  11.117  20.797  0.00  0.00    +0.000 OA
ATOM     23  C   UNL     1       0.839  10.242  19.651  0.00  0.00    +0.000 C 
ATOM     24  C   UNL     1       1.840  10.780  18.609  0.00  0.00    +0.000 C 
ATOM     25  C   UNL     1       1.540  12.250  18.262  0.00  0.00    +0.000 C 
ATOM     26  C   UNL     1       1.365  13.097  19.535  0.00  0.00    +0.000 C 
BRANCH  24  27
ATOM     27  O   UNL     1       1.813   9.965  17.430  0.00  0.00    +0.000 OA
ATOM     28  H   UNL     1       1.420   9.102  17.646  0.00  0.00    +0.000 HD
ENDBRANCH  24  27
BRANCH  25  29
ATOM     29  O   UNL     1       2.572  12.794  17.429  0.00  0.00    +0.000 OA
ATOM     30  H   UNL     1       2.165  13.108  16.603  0.00  0.00    +0.000 HD
ENDBRANCH  25  29
BRANCH  26  31
ATOM     31  O   UNL     1       0.995  14.438  19.210  0.00  0.00    +0.000 OA
ATOM     32  H   UNL     1       0.376  14.766  19.887  0.00  0.00    +0.000 HD
ENDBRANCH  26  31
BRANCH  23  33
ATOM     33  C   UNL     1       1.239   8.841  20.147  0.00  0.00    +0.000 C 
BRANCH  33  34
ATOM     34  O   UNL     1       1.191   8.760  21.569  0.00  0.00    +0.000 OA
ATOM     35  H   UNL     1       1.025   9.666  21.889  0.00  0.00    +0.000 HD
ENDBRANCH  33  34
ENDBRANCH  23  33
ENDBRANCH  20  21
ENDBRANCH  17  20
TORSDOF 8
ENDMDL
MODEL 9
REMARK VINA RESULT:      -6.4      1.913      6.578
REMARK  Name = 
REMARK  10 active torsions:
REMARK  status: ('A' for Active; 'I' for Inactive)
REMARK    1  A    between atoms: C_1  and  C_2
REMARK    2  A    between atoms: C_2  and  C_3
REMARK    3  A    between atoms: C_16  and  O_17
REMARK    4  A    between atoms: C_18  and  C_19
REMARK    5  A    between atoms: C_19  and  C_20
REMARK    6  A    between atoms: C_22  and  C_23
REMARK    7  A    between atoms: C_23  and  O_24
REMARK    8  A    between atoms: C_25  and  O_26
REMARK    9  A    between atoms: C_27  and  O_28
REMARK   10  A    between atoms: C_29  and  O_30
REMARK                            x       y       z     vdW  Elec       q    Type
REMARK                         _______ _______ _______ _____ _____    ______ ____
ROOT
ATOM      1  C   UNL     1      -1.329  14.553  23.306  0.00  0.00    +0.000 C 
ATOM      2  C   UNL     1      -0.989  13.889  21.960  0.00  0.00    +0.000 C 
ATOM      3  C   UNL     1      -1.194  14.975  20.877  0.00  0.00    +0.000 C 
ATOM      4  O   UNL     1       0.449  13.677  21.961  0.00  0.00    +0.000 OA
ATOM      5  C   UNL     1       0.800  12.830  20.945  0.00  0.00    +0.000 A 
ATOM      6  C   UNL     1       1.416  13.314  19.800  0.00  0.00    +0.000 A 
ATOM      7  C   UNL     1       1.657  12.440  18.746  0.00  0.00    +0.000 A 
ATOM      8  C   UNL     1       1.471  11.068  18.929  0.00  0.00    +0.000 A 
ATOM      9  C   UNL     1       1.940  10.119  17.939  0.00  0.00    +0.000 A 
ATOM     10  C   UNL     1       2.042   8.838  18.286  0.00  0.00    +0.000 A 
ATOM     11  C   UNL     1       1.556   8.338  19.587  0.00  0.00    +0.000 A 
ATOM     12  O   UNL     1       1.778   7.198  19.943  0.00  0.00    +0.000 OA
ATOM     13  O   UNL     1       0.757   9.220  20.336  0.00  0.00    +0.000 OA
ATOM     14  C   UNL     1       0.859  10.604  20.094  0.00  0.00    +0.000 A 
ATOM     15  C   UNL     1       0.385  11.511  21.042  0.00  0.00    +0.000 A 
ATOM     16  C   UNL     1      -0.784  11.295  21.961  0.00  0.00    +0.000 C 
ATOM     17  C   UNL     1      -1.762  12.507  21.705  0.00  0.00    +0.000 C 
ENDROOT
BRANCH  16  18
ATOM     18  O   UNL     1      -0.409  11.243  23.330  0.00  0.00    +0.000 OA
ATOM     19  H   UNL     1      -1.193  10.955  23.831  0.00  0.00    +0.000 HD
ENDBRANCH  16  18
BRANCH  17  20
ATOM     20  C   UNL     1      -3.081  12.319  22.497  0.00  0.00    +0.000 C 
BRANCH  20  21
ATOM     21  C   UNL     1      -4.366  12.642  21.693  0.00  0.00    +0.000 C 
ATOM     22  O   UNL     1      -4.196  12.328  20.303  0.00  0.00    +0.000 OA
ATOM     23  C   UNL     1      -5.437  12.433  19.566  0.00  0.00    +0.000 C 
ATOM     24  C   UNL     1      -6.032  13.854  19.646  0.00  0.00    +0.000 C 
ATOM     25  C   UNL     1      -6.116  14.335  21.106  0.00  0.00    +0.000 C 
ATOM     26  C   UNL     1      -4.782  14.117  21.841  0.00  0.00    +0.000 C 
BRANCH  24  27
ATOM     27  O   UNL     1      -7.324  13.884  19.027  0.00  0.00    +0.000 OA
ATOM     28  H   UNL     1      -7.868  13.161  19.384  0.00  0.00    +0.000 HD
ENDBRANCH  24  27
BRANCH  25  29
ATOM     29  O   UNL     1      -6.507  15.714  21.161  0.00  0.00    +0.000 OA
ATOM     30  H   UNL     1      -7.150  15.821  21.883  0.00  0.00    +0.000 HD
ENDBRANCH  25  29
BRANCH  26  31
ATOM     31  O   UNL     1      -4.893  14.478  23.219  0.00  0.00    +0.000 OA
ATOM     32  H   UNL     1      -5.163  15.412  23.279  0.00  0.00    +0.000 HD
ENDBRANCH  26  31
BRANCH  23  33
ATOM     33  C   UNL     1      -5.170  12.014  18.109  0.00  0.00    +0.000 C 
BRANCH  33  34
ATOM     34  O   UNL     1      -6.357  11.538  17.480  0.00  0.00    +0.000 OA
ATOM     35  H   UNL     1      -6.685  12.269  16.925  0.00  0.00    +0.000 HD
ENDBRANCH  33  34
ENDBRANCH  23  33
ENDBRANCH  20  21
ENDBRANCH  17  20
TORSDOF 8
ENDMDL
