MODEL 1
REMARK VINA RESULT:      -8.3      0.000      0.000
REMARK  Name = 
REMARK  7 active torsions:
REMARK  status: ('A' for Active; 'I' for Inactive)
REMARK    1  A    between atoms: C_4  and  C_5
REMARK    2  A    between atoms: C_8  and  O_9
REMARK    3  A    between atoms: O_9  and  C_10
REMARK    4  A    between atoms: C_10  and  C_11
REMARK    5  A    between atoms: C_11  and  C_12
REMARK    6  A    between atoms: C_12  and  N_13
REMARK    7  A    between atoms: C_25  and  O_26
REMARK                            x       y       z     vdW  Elec       q    Type
REMARK                         _______ _______ _______ _____ _____    ______ ____
ROOT
ATOM      1  C   UNL     1       1.053   9.535  19.435  0.00  0.00    +0.000 A 
ATOM      2  C   UNL     1       1.621   9.546  18.174  0.00  0.00    +0.000 A 
ATOM      3  C   UNL     1       2.382   8.482  17.750  0.00  0.00    +0.000 A 
ATOM      4  C   UNL     1       2.610   7.366  18.589  0.00  0.00    +0.000 A 
ATOM      5  C   UNL     1       2.065   7.367  19.883  0.00  0.00    +0.000 A 
ATOM      6  C   UNL     1       1.273   8.449  20.304  0.00  0.00    +0.000 A 
ENDROOT
BRANCH   1  10
ATOM      7  O   UNL     1      -1.444  12.977  20.071  0.00  0.00    +0.000 OA
ATOM      8  C   UNL     1      -1.780  12.057  19.337  0.00  0.00    +0.000 C 
ATOM      9  C   UNL     1      -0.853  10.978  18.975  0.00  0.00    +0.000 C 
ATOM     10  C   UNL     1       0.168  10.641  19.778  0.00  0.00    +0.000 C 
ATOM     11  C   UNL     1      -1.191  10.277  17.677  0.00  0.00    +0.000 C 
ATOM     12  O   UNL     1      -2.517   9.887  17.691  0.00  0.00    +0.000 OA
ATOM     13  C   UNL     1      -3.504  10.680  18.187  0.00  0.00    +0.000 A 
ATOM     14  C   UNL     1      -4.834  10.345  17.951  0.00  0.00    +0.000 A 
ATOM     15  C   UNL     1      -5.863  11.114  18.506  0.00  0.00    +0.000 A 
ATOM     16  C   UNL     1      -5.555  12.241  19.279  0.00  0.00    +0.000 A 
ATOM     17  C   UNL     1      -4.227  12.597  19.507  0.00  0.00    +0.000 A 
ATOM     18  C   UNL     1      -3.195  11.813  18.975  0.00  0.00    +0.000 A 
BRANCH  15  19
ATOM     19  O   UNL     1      -7.153  10.770  18.321  0.00  0.00    +0.000 OA
ATOM     20  H   UNL     1      -7.494  10.529  17.448  0.00  0.00    +0.000 HD
ENDBRANCH  15  19
ENDBRANCH   1  10
BRANCH   4  21
ATOM     21  O   UNL     1       3.318   6.285  18.157  0.00  0.00    +0.000 OA
BRANCH  21  22
ATOM     22  C   UNL     1       3.229   5.079  18.825  0.00  0.00    +0.000 C 
BRANCH  22  23
ATOM     23  C   UNL     1       4.516   4.270  18.838  0.00  0.00    +0.000 C 
BRANCH  23  24
ATOM     24  C   UNL     1       5.634   5.267  19.203  0.00  0.00    +0.000 C 
BRANCH  24  25
ATOM     25  N   UNL     1       6.979   4.916  18.703  0.00  0.00    +0.000 NA
ATOM     26  C   UNL     1       7.904   6.059  18.879  0.00  0.00    +0.000 C 
ATOM     27  C   UNL     1       7.590   7.196  17.879  0.00  0.00    +0.000 C 
ATOM     28  O   UNL     1       7.657   6.728  16.545  0.00  0.00    +0.000 OA
ATOM     29  C   UNL     1       6.716   5.686  16.348  0.00  0.00    +0.000 C 
ATOM     30  C   UNL     1       7.015   4.501  17.283  0.00  0.00    +0.000 C 
ENDBRANCH  24  25
ENDBRANCH  23  24
ENDBRANCH  22  23
ENDBRANCH  21  22
ENDBRANCH   4  21
TORSDOF 7
ENDMDL
MODEL 2
REMARK VINA RESULT:      -8.0      2.840      4.460
REMARK  Name = 
REMARK  7 active torsions:
REMARK  status: ('A' for Active; 'I' for Inactive)
REMARK    1  A    between atoms: C_4  and  C_5
REMARK    2  A    between atoms: C_8  and  O_9
REMARK    3  A    between atoms: O_9  and  C_10
REMARK    4  A    between atoms: C_10  and  C_11
REMARK    5  A    between atoms: C_11  and  C_12
REMARK    6  A    between atoms: C_12  and  N_13
REMARK    7  A    between atoms: C_25  and  O_26
REMARK                            x       y       z     vdW  Elec       q    Type
REMARK                         _______ _______ _______ _____ _____    ______ ____
ROOT
ATOM      1  C   UNL     1       0.701   9.862  19.572  0.00  0.00    +0.000 A 
ATOM      2  C   UNL     1       1.376   9.506  18.419  0.00  0.00    +0.000 A 
ATOM      3  C   UNL     1       2.115   8.346  18.382  0.00  0.00    +0.000 A 
ATOM      4  C   UNL     1       2.212   7.505  19.515  0.00  0.00    +0.000 A 
ATOM      5  C   UNL     1       1.557   7.883  20.698  0.00  0.00    +0.000 A 
ATOM      6  C   UNL     1       0.789   9.059  20.724  0.00  0.00    +0.000 A 
ENDROOT
BRANCH   1  10
ATOM      7  O   UNL     1      -1.740  13.396  19.805  0.00  0.00    +0.000 OA
ATOM      8  C   UNL     1      -0.518  13.451  19.751  0.00  0.00    +0.000 C 
ATOM      9  C   UNL     1       0.318  12.249  19.861  0.00  0.00    +0.000 C 
ATOM     10  C   UNL     1      -0.153  11.042  19.508  0.00  0.00    +0.000 C 
ATOM     11  C   UNL     1       1.728  12.514  20.343  0.00  0.00    +0.000 C 
ATOM     12  O   UNL     1       2.298  13.517  19.583  0.00  0.00    +0.000 OA
ATOM     13  C   UNL     1       1.607  14.624  19.203  0.00  0.00    +0.000 A 
ATOM     14  C   UNL     1       2.293  15.706  18.657  0.00  0.00    +0.000 A 
ATOM     15  C   UNL     1       1.592  16.828  18.203  0.00  0.00    +0.000 A 
ATOM     16  C   UNL     1       0.197  16.876  18.321  0.00  0.00    +0.000 A 
ATOM     17  C   UNL     1      -0.500  15.807  18.881  0.00  0.00    +0.000 A 
ATOM     18  C   UNL     1       0.198  14.672  19.313  0.00  0.00    +0.000 A 
BRANCH  15  19
ATOM     19  O   UNL     1       2.245  17.859  17.632  0.00  0.00    +0.000 OA
ATOM     20  H   UNL     1       1.895  18.313  16.851  0.00  0.00    +0.000 HD
ENDBRANCH  15  19
ENDBRANCH   1  10
BRANCH   4  21
ATOM     21  O   UNL     1       2.898   6.329  19.471  0.00  0.00    +0.000 OA
BRANCH  21  22
ATOM     22  C   UNL     1       2.328   5.207  18.901  0.00  0.00    +0.000 C 
BRANCH  22  23
ATOM     23  C   UNL     1       3.005   4.735  17.625  0.00  0.00    +0.000 C 
BRANCH  23  24
ATOM     24  C   UNL     1       4.508   4.639  17.958  0.00  0.00    +0.000 C 
BRANCH  24  25
ATOM     25  N   UNL     1       5.347   5.720  17.402  0.00  0.00    +0.000 NA
ATOM     26  C   UNL     1       5.588   5.488  15.960  0.00  0.00    +0.000 C 
ATOM     27  C   UNL     1       6.567   4.314  15.734  0.00  0.00    +0.000 C 
ATOM     28  O   UNL     1       7.799   4.550  16.392  0.00  0.00    +0.000 OA
ATOM     29  C   UNL     1       7.584   4.692  17.786  0.00  0.00    +0.000 C 
ATOM     30  C   UNL     1       6.655   5.885  18.073  0.00  0.00    +0.000 C 
ENDBRANCH  24  25
ENDBRANCH  23  24
ENDBRANCH  22  23
ENDBRANCH  21  22
ENDBRANCH   4  21
TORSDOF 7
ENDMDL
MODEL 3
REMARK VINA RESULT:      -8.0      2.616      4.303
REMARK  Name = 
REMARK  7 active torsions:
REMARK  status: ('A' for Active; 'I' for Inactive)
REMARK    1  A    between atoms: C_4  and  C_5
REMARK    2  A    between atoms: C_8  and  O_9
REMARK    3  A    between atoms: O_9  and  C_10
REMARK    4  A    between atoms: C_10  and  C_11
REMARK    5  A    between atoms: C_11  and  C_12
REMARK    6  A    between atoms: C_12  and  N_13
REMARK    7  A    between atoms: C_25  and  O_26
REMARK                            x       y       z     vdW  Elec       q    Type
REMARK                         _______ _______ _______ _____ _____    ______ ____
ROOT
ATOM      1  C   UNL     1       1.066   9.434  19.034  0.00  0.00    +0.000 A 
ATOM      2  C   UNL     1       1.838   8.883  18.029  0.00  0.00    +0.000 A 
ATOM      3  C   UNL     1       2.528   7.713  18.251  0.00  0.00    +0.000 A 
ATOM      4  C   UNL     1       2.474   7.059  19.503  0.00  0.00    +0.000 A 
ATOM      5  C   UNL     1       1.719   7.636  20.538  0.00  0.00    +0.000 A 
ATOM      6  C   UNL     1       1.002   8.821  20.299  0.00  0.00    +0.000 A 
ENDROOT
BRANCH   1  10
ATOM      7  O   UNL     1      -1.418  12.896  18.449  0.00  0.00    +0.000 OA
ATOM      8  C   UNL     1      -0.341  12.958  19.027  0.00  0.00    +0.000 C 
ATOM      9  C   UNL     1       0.415  11.753  19.390  0.00  0.00    +0.000 C 
ATOM     10  C   UNL     1       0.274  10.611  18.698  0.00  0.00    +0.000 C 
ATOM     11  C   UNL     1       1.371  11.944  20.547  0.00  0.00    +0.000 C 
ATOM     12  O   UNL     1       2.169  13.047  20.314  0.00  0.00    +0.000 OA
ATOM     13  C   UNL     1       1.681  14.199  19.780  0.00  0.00    +0.000 A 
ATOM     14  C   UNL     1       2.465  15.348  19.798  0.00  0.00    +0.000 A 
ATOM     15  C   UNL     1       2.005  16.525  19.198  0.00  0.00    +0.000 A 
ATOM     16  C   UNL     1       0.739  16.556  18.601  0.00  0.00    +0.000 A 
ATOM     17  C   UNL     1      -0.064  15.416  18.591  0.00  0.00    +0.000 A 
ATOM     18  C   UNL     1       0.406  14.230  19.168  0.00  0.00    +0.000 A 
BRANCH  15  19
ATOM     19  O   UNL     1       2.777  17.629  19.171  0.00  0.00    +0.000 OA
ATOM     20  H   UNL     1       3.672  17.614  18.801  0.00  0.00    +0.000 HD
ENDBRANCH  15  19
ENDBRANCH   1  10
BRANCH   4  21
ATOM     21  O   UNL     1       3.110   5.874  19.715  0.00  0.00    +0.000 OA
BRANCH  21  22
ATOM     22  C   UNL     1       3.308   4.990  18.672  0.00  0.00    +0.000 C 
BRANCH  22  23
ATOM     23  C   UNL     1       4.625   4.233  18.729  0.00  0.00    +0.000 C 
BRANCH  23  24
ATOM     24  C   UNL     1       5.687   5.268  19.150  0.00  0.00    +0.000 C 
BRANCH  24  25
ATOM     25  N   UNL     1       7.063   4.978  18.699  0.00  0.00    +0.000 NA
ATOM     26  C   UNL     1       7.911   6.183  18.839  0.00  0.00    +0.000 C 
ATOM     27  C   UNL     1       7.555   7.250  17.779  0.00  0.00    +0.000 C 
ATOM     28  O   UNL     1       7.685   6.724  16.470  0.00  0.00    +0.000 OA
ATOM     29  C   UNL     1       6.815   5.618  16.303  0.00  0.00    +0.000 C 
ATOM     30  C   UNL     1       7.161   4.499  17.302  0.00  0.00    +0.000 C 
ENDBRANCH  24  25
ENDBRANCH  23  24
ENDBRANCH  22  23
ENDBRANCH  21  22
ENDBRANCH   4  21
TORSDOF 7
ENDMDL
MODEL 4
REMARK VINA RESULT:      -8.0      2.869      4.460
REMARK  Name = 
REMARK  7 active torsions:
REMARK  status: ('A' for Active; 'I' for Inactive)
REMARK    1  A    between atoms: C_4  and  C_5
REMARK    2  A    between atoms: C_8  and  O_9
REMARK    3  A    between atoms: O_9  and  C_10
REMARK    4  A    between atoms: C_10  and  C_11
REMARK    5  A    between atoms: C_11  and  C_12
REMARK    6  A    between atoms: C_12  and  N_13
REMARK    7  A    between atoms: C_25  and  O_26
REMARK                            x       y       z     vdW  Elec       q    Type
REMARK                         _______ _______ _______ _____ _____    ______ ____
ROOT
ATOM      1  C   UNL     1       0.644   9.850  19.099  0.00  0.00    +0.000 A 
ATOM      2  C   UNL     1       0.815   9.095  20.244  0.00  0.00    +0.000 A 
ATOM      3  C   UNL     1       1.653   8.004  20.234  0.00  0.00    +0.000 A 
ATOM      4  C   UNL     1       2.344   7.623  19.059  0.00  0.00    +0.000 A 
ATOM      5  C   UNL     1       2.143   8.366  17.884  0.00  0.00    +0.000 A 
ATOM      6  C   UNL     1       1.301   9.491  17.906  0.00  0.00    +0.000 A 
ENDROOT
BRANCH   1  10
ATOM      7  O   UNL     1      -1.628  13.425  19.837  0.00  0.00    +0.000 OA
ATOM      8  C   UNL     1      -0.418  13.450  19.652  0.00  0.00    +0.000 C 
ATOM      9  C   UNL     1       0.380  12.220  19.588  0.00  0.00    +0.000 C 
ATOM     10  C   UNL     1      -0.168  11.055  19.209  0.00  0.00    +0.000 C 
ATOM     11  C   UNL     1       1.843  12.410  19.928  0.00  0.00    +0.000 C 
ATOM     12  O   UNL     1       2.364  13.448  19.179  0.00  0.00    +0.000 OA
ATOM     13  C   UNL     1       1.675  14.598  18.952  0.00  0.00    +0.000 A 
ATOM     14  C   UNL     1       2.337  15.696  18.409  0.00  0.00    +0.000 A 
ATOM     15  C   UNL     1       1.632  16.867  18.110  0.00  0.00    +0.000 A 
ATOM     16  C   UNL     1       0.260  16.946  18.385  0.00  0.00    +0.000 A 
ATOM     17  C   UNL     1      -0.410  15.860  18.946  0.00  0.00    +0.000 A 
ATOM     18  C   UNL     1       0.289  14.678  19.220  0.00  0.00    +0.000 A 
BRANCH  15  19
ATOM     19  O   UNL     1       2.255  17.917  17.541  0.00  0.00    +0.000 OA
ATOM     20  H   UNL     1       2.651  18.622  18.073  0.00  0.00    +0.000 HD
ENDBRANCH  15  19
ENDBRANCH   1  10
BRANCH   4  21
ATOM     21  O   UNL     1       3.215   6.577  19.054  0.00  0.00    +0.000 OA
BRANCH  21  22
ATOM     22  C   UNL     1       2.753   5.281  19.177  0.00  0.00    +0.000 C 
BRANCH  22  23
ATOM     23  C   UNL     1       2.911   4.434  17.925  0.00  0.00    +0.000 C 
BRANCH  23  24
ATOM     24  C   UNL     1       4.105   5.038  17.158  0.00  0.00    +0.000 C 
BRANCH  24  25
ATOM     25  N   UNL     1       5.328   4.208  17.144  0.00  0.00    +0.000 NA
ATOM     26  C   UNL     1       6.404   4.874  17.913  0.00  0.00    +0.000 C 
ATOM     27  C   UNL     1       6.963   6.100  17.154  0.00  0.00    +0.000 C 
ATOM     28  O   UNL     1       7.449   5.726  15.878  0.00  0.00    +0.000 OA
ATOM     29  C   UNL     1       6.402   5.162  15.107  0.00  0.00    +0.000 C 
ATOM     30  C   UNL     1       5.842   3.901  15.791  0.00  0.00    +0.000 C 
ENDBRANCH  24  25
ENDBRANCH  23  24
ENDBRANCH  22  23
ENDBRANCH  21  22
ENDBRANCH   4  21
TORSDOF 7
ENDMDL
MODEL 5
REMARK VINA RESULT:      -8.0      2.955      4.629
REMARK  Name = 
REMARK  7 active torsions:
REMARK  status: ('A' for Active; 'I' for Inactive)
REMARK    1  A    between atoms: C_4  and  C_5
REMARK    2  A    between atoms: C_8  and  O_9
REMARK    3  A    between atoms: O_9  and  C_10
REMARK    4  A    between atoms: C_10  and  C_11
REMARK    5  A    between atoms: C_11  and  C_12
REMARK    6  A    between atoms: C_12  and  N_13
REMARK    7  A    between atoms: C_25  and  O_26
REMARK                            x       y       z     vdW  Elec       q    Type
REMARK                         _______ _______ _______ _____ _____    ______ ____
ROOT
ATOM      1  C   UNL     1       0.486   9.999  19.353  0.00  0.00    +0.000 A 
ATOM      2  C   UNL     1       0.621   9.273  20.522  0.00  0.00    +0.000 A 
ATOM      3  C   UNL     1       1.423   8.156  20.553  0.00  0.00    +0.000 A 
ATOM      4  C   UNL     1       2.113   7.719  19.397  0.00  0.00    +0.000 A 
ATOM      5  C   UNL     1       1.948   8.433  18.199  0.00  0.00    +0.000 A 
ATOM      6  C   UNL     1       1.143   9.584  18.179  0.00  0.00    +0.000 A 
ENDROOT
BRANCH   1  10
ATOM      7  O   UNL     1      -1.667  13.672  19.960  0.00  0.00    +0.000 OA
ATOM      8  C   UNL     1      -0.459  13.651  19.760  0.00  0.00    +0.000 C 
ATOM      9  C   UNL     1       0.301  12.395  19.741  0.00  0.00    +0.000 C 
ATOM     10  C   UNL     1      -0.288  11.232  19.420  0.00  0.00    +0.000 C 
ATOM     11  C   UNL     1       1.773  12.554  20.055  0.00  0.00    +0.000 C 
ATOM     12  O   UNL     1       2.315  13.542  19.255  0.00  0.00    +0.000 OA
ATOM     13  C   UNL     1       1.659  14.702  18.986  0.00  0.00    +0.000 A 
ATOM     14  C   UNL     1       2.346  15.754  18.387  0.00  0.00    +0.000 A 
ATOM     15  C   UNL     1       1.673  16.932  18.046  0.00  0.00    +0.000 A 
ATOM     16  C   UNL     1       0.309  17.066  18.332  0.00  0.00    +0.000 A 
ATOM     17  C   UNL     1      -0.387  16.026  18.948  0.00  0.00    +0.000 A 
ATOM     18  C   UNL     1       0.279  14.836  19.266  0.00  0.00    +0.000 A 
BRANCH  15  19
ATOM     19  O   UNL     1       2.321  17.937  17.423  0.00  0.00    +0.000 OA
ATOM     20  H   UNL     1       3.272  17.895  17.246  0.00  0.00    +0.000 HD
ENDBRANCH  15  19
ENDBRANCH   1  10
BRANCH   4  21
ATOM     21  O   UNL     1       2.950   6.645  19.432  0.00  0.00    +0.000 OA
BRANCH  21  22
ATOM     22  C   UNL     1       2.706   5.542  18.637  0.00  0.00    +0.000 C 
BRANCH  22  23
ATOM     23  C   UNL     1       3.859   4.555  18.557  0.00  0.00    +0.000 C 
BRANCH  23  24
ATOM     24  C   UNL     1       4.300   4.545  17.080  0.00  0.00    +0.000 C 
BRANCH  24  25
ATOM     25  N   UNL     1       5.179   5.662  16.677  0.00  0.00    +0.000 NA
ATOM     26  C   UNL     1       5.638   5.473  15.282  0.00  0.00    +0.000 C 
ATOM     27  C   UNL     1       6.675   4.331  15.180  0.00  0.00    +0.000 C 
ATOM     28  O   UNL     1       7.788   4.584  16.019  0.00  0.00    +0.000 OA
ATOM     29  C   UNL     1       7.365   4.686  17.368  0.00  0.00    +0.000 C 
ATOM     30  C   UNL     1       6.368   5.846  17.538  0.00  0.00    +0.000 C 
ENDBRANCH  24  25
ENDBRANCH  23  24
ENDBRANCH  22  23
ENDBRANCH  21  22
ENDBRANCH   4  21
TORSDOF 7
ENDMDL
MODEL 6
REMARK VINA RESULT:      -7.9      1.745      3.350
REMARK  Name = 
REMARK  7 active torsions:
REMARK  status: ('A' for Active; 'I' for Inactive)
REMARK    1  A    between atoms: C_4  and  C_5
REMARK    2  A    between atoms: C_8  and  O_9
REMARK    3  A    between atoms: O_9  and  C_10
REMARK    4  A    between atoms: C_10  and  C_11
REMARK    5  A    between atoms: C_11  and  C_12
REMARK    6  A    between atoms: C_12  and  N_13
REMARK    7  A    between atoms: C_25  and  O_26
REMARK                            x       y       z     vdW  Elec       q    Type
REMARK                         _______ _______ _______ _____ _____    ______ ____
ROOT
ATOM      1  C   UNL     1       1.015   9.332  19.242  0.00  0.00    +0.000 A 
ATOM      2  C   UNL     1       1.261   8.346  20.179  0.00  0.00    +0.000 A 
ATOM      3  C   UNL     1       2.128   7.318  19.888  0.00  0.00    +0.000 A 
ATOM      4  C   UNL     1       2.772   7.238  18.631  0.00  0.00    +0.000 A 
ATOM      5  C   UNL     1       2.495   8.218  17.664  0.00  0.00    +0.000 A 
ATOM      6  C   UNL     1       1.624   9.276  17.974  0.00  0.00    +0.000 A 
ENDROOT
BRANCH   1  10
ATOM      7  O   UNL     1      -1.350  12.823  20.087  0.00  0.00    +0.000 OA
ATOM      8  C   UNL     1      -1.732  11.948  19.320  0.00  0.00    +0.000 C 
ATOM      9  C   UNL     1      -0.850  10.857  18.890  0.00  0.00    +0.000 C 
ATOM     10  C   UNL     1       0.175  10.450  19.654  0.00  0.00    +0.000 C 
ATOM     11  C   UNL     1      -1.239  10.227  17.569  0.00  0.00    +0.000 C 
ATOM     12  O   UNL     1      -2.577   9.880  17.596  0.00  0.00    +0.000 OA
ATOM     13  C   UNL     1      -3.526  10.682  18.148  0.00  0.00    +0.000 A 
ATOM     14  C   UNL     1      -4.871  10.403  17.928  0.00  0.00    +0.000 A 
ATOM     15  C   UNL     1      -5.862  11.179  18.540  0.00  0.00    +0.000 A 
ATOM     16  C   UNL     1      -5.500  12.259  19.355  0.00  0.00    +0.000 A 
ATOM     17  C   UNL     1      -4.155  12.560  19.569  0.00  0.00    +0.000 A 
ATOM     18  C   UNL     1      -3.163  11.768  18.980  0.00  0.00    +0.000 A 
BRANCH  15  19
ATOM     19  O   UNL     1      -7.166  10.886  18.368  0.00  0.00    +0.000 OA
ATOM     20  H   UNL     1      -7.477  10.380  17.604  0.00  0.00    +0.000 HD
ENDBRANCH  15  19
ENDBRANCH   1  10
BRANCH   4  21
ATOM     21  O   UNL     1       3.671   6.253  18.354  0.00  0.00    +0.000 OA
BRANCH  21  22
ATOM     22  C   UNL     1       4.522   5.787  19.337  0.00  0.00    +0.000 C 
BRANCH  22  23
ATOM     23  C   UNL     1       5.015   4.365  19.121  0.00  0.00    +0.000 C 
BRANCH  23  24
ATOM     24  C   UNL     1       3.819   3.592  18.529  0.00  0.00    +0.000 C 
BRANCH  24  25
ATOM     25  N   UNL     1       3.341   2.454  19.340  0.00  0.00    +0.000 NA
ATOM     26  C   UNL     1       2.152   1.840  18.707  0.00  0.00    +0.000 C 
ATOM     27  C   UNL     1       0.908   2.746  18.849  0.00  0.00    +0.000 C 
ATOM     28  O   UNL     1       0.635   3.021  20.210  0.00  0.00    +0.000 OA
ATOM     29  C   UNL     1       1.740   3.682  20.802  0.00  0.00    +0.000 C 
ATOM     30  C   UNL     1       3.000   2.799  20.737  0.00  0.00    +0.000 C 
ENDBRANCH  24  25
ENDBRANCH  23  24
ENDBRANCH  22  23
ENDBRANCH  21  22
ENDBRANCH   4  21
TORSDOF 7
ENDMDL
MODEL 7
REMARK VINA RESULT:      -7.9      2.762      4.317
REMARK  Name = 
REMARK  7 active torsions:
REMARK  status: ('A' for Active; 'I' for Inactive)
REMARK    1  A    between atoms: C_4  and  C_5
REMARK    2  A    between atoms: C_8  and  O_9
REMARK    3  A    between atoms: O_9  and  C_10
REMARK    4  A    between atoms: C_10  and  C_11
REMARK    5  A    between atoms: C_11  and  C_12
REMARK    6  A    between atoms: C_12  and  N_13
REMARK    7  A    between atoms: C_25  and  O_26
REMARK                            x       y       z     vdW  Elec       q    Type
REMARK                         _______ _______ _______ _____ _____    ______ ____
ROOT
ATOM      1  C   UNL     1       0.866   9.699  19.210  0.00  0.00    +0.000 A 
ATOM      2  C   UNL     1       1.482   9.358  18.020  0.00  0.00    +0.000 A 
ATOM      3  C   UNL     1       2.244   8.215  17.939  0.00  0.00    +0.000 A 
ATOM      4  C   UNL     1       2.424   7.376  19.063  0.00  0.00    +0.000 A 
ATOM      5  C   UNL     1       1.829   7.738  20.282  0.00  0.00    +0.000 A 
ATOM      6  C   UNL     1       1.037   8.896  20.354  0.00  0.00    +0.000 A 
ENDROOT
BRANCH   1  10
ATOM      7  O   UNL     1      -1.670  13.150  19.597  0.00  0.00    +0.000 OA
ATOM      8  C   UNL     1      -0.449  13.239  19.577  0.00  0.00    +0.000 C 
ATOM      9  C   UNL     1       0.414  12.053  19.634  0.00  0.00    +0.000 C 
ATOM     10  C   UNL     1      -0.016  10.859  19.197  0.00  0.00    +0.000 C 
ATOM     11  C   UNL     1       1.805  12.322  20.167  0.00  0.00    +0.000 C 
ATOM     12  O   UNL     1       2.368  13.383  19.484  0.00  0.00    +0.000 OA
ATOM     13  C   UNL     1       1.657  14.495  19.155  0.00  0.00    +0.000 A 
ATOM     14  C   UNL     1       2.327  15.624  18.693  0.00  0.00    +0.000 A 
ATOM     15  C   UNL     1       1.609  16.755  18.291  0.00  0.00    +0.000 A 
ATOM     16  C   UNL     1       0.211  16.762  18.377  0.00  0.00    +0.000 A 
ATOM     17  C   UNL     1      -0.471  15.643  18.853  0.00  0.00    +0.000 A 
ATOM     18  C   UNL     1       0.245  14.501  19.232  0.00  0.00    +0.000 A 
BRANCH  15  19
ATOM     19  O   UNL     1       2.248  17.835  17.800  0.00  0.00    +0.000 OA
ATOM     20  H   UNL     1       1.994  18.734  18.053  0.00  0.00    +0.000 HD
ENDBRANCH  15  19
ENDBRANCH   1  10
BRANCH   4  21
ATOM     21  O   UNL     1       3.133   6.216  18.978  0.00  0.00    +0.000 OA
BRANCH  21  22
ATOM     22  C   UNL     1       2.500   5.032  18.653  0.00  0.00    +0.000 C 
BRANCH  22  23
ATOM     23  C   UNL     1       3.255   4.166  17.658  0.00  0.00    +0.000 C 
BRANCH  23  24
ATOM     24  C   UNL     1       4.740   4.265  18.058  0.00  0.00    +0.000 C 
BRANCH  24  25
ATOM     25  N   UNL     1       5.695   4.306  16.932  0.00  0.00    +0.000 NA
ATOM     26  C   UNL     1       7.037   4.706  17.414  0.00  0.00    +0.000 C 
ATOM     27  C   UNL     1       7.076   6.206  17.789  0.00  0.00    +0.000 C 
ATOM     28  O   UNL     1       6.705   7.012  16.686  0.00  0.00    +0.000 OA
ATOM     29  C   UNL     1       5.389   6.689  16.270  0.00  0.00    +0.000 C 
ATOM     30  C   UNL     1       5.304   5.215  15.832  0.00  0.00    +0.000 C 
ENDBRANCH  24  25
ENDBRANCH  23  24
ENDBRANCH  22  23
ENDBRANCH  21  22
ENDBRANCH   4  21
TORSDOF 7
ENDMDL
MODEL 8
REMARK VINA RESULT:      -7.9      3.282      5.353
REMARK  Name = 
REMARK  7 active torsions:
REMARK  status: ('A' for Active; 'I' for Inactive)
REMARK    1  A    between atoms: C_4  and  C_5
REMARK    2  A    between atoms: C_8  and  O_9
REMARK    3  A    between atoms: O_9  and  C_10
REMARK    4  A    between atoms: C_10  and  C_11
REMARK    5  A    between atoms: C_11  and  C_12
REMARK    6  A    between atoms: C_12  and  N_13
REMARK    7  A    between atoms: C_25  and  O_26
REMARK                            x       y       z     vdW  Elec       q    Type
REMARK                         _______ _______ _______ _____ _____    ______ ____
ROOT
ATOM      1  C   UNL     1       0.690  10.074  19.387  0.00  0.00    +0.000 A 
ATOM      2  C   UNL     1       1.248   9.711  18.175  0.00  0.00    +0.000 A 
ATOM      3  C   UNL     1       1.962   8.541  18.067  0.00  0.00    +0.000 A 
ATOM      4  C   UNL     1       2.154   7.694  19.184  0.00  0.00    +0.000 A 
ATOM      5  C   UNL     1       1.620   8.078  20.425  0.00  0.00    +0.000 A 
ATOM      6  C   UNL     1       0.875   9.266  20.525  0.00  0.00    +0.000 A 
ENDROOT
BRANCH   1  10
ATOM      7  O   UNL     1      -1.669  13.638  19.859  0.00  0.00    +0.000 OA
ATOM      8  C   UNL     1      -0.455  13.677  19.707  0.00  0.00    +0.000 C 
ATOM      9  C   UNL     1       0.368  12.462  19.734  0.00  0.00    +0.000 C 
ATOM     10  C   UNL     1      -0.148  11.267  19.406  0.00  0.00    +0.000 C 
ATOM     11  C   UNL     1       1.816  12.700  20.104  0.00  0.00    +0.000 C 
ATOM     12  O   UNL     1       2.339  13.705  19.312  0.00  0.00    +0.000 OA
ATOM     13  C   UNL     1       1.636  14.827  19.002  0.00  0.00    +0.000 A 
ATOM     14  C   UNL     1       2.292  15.905  18.415  0.00  0.00    +0.000 A 
ATOM     15  C   UNL     1       1.574  17.043  18.032  0.00  0.00    +0.000 A 
ATOM     16  C   UNL     1       0.194  17.110  18.263  0.00  0.00    +0.000 A 
ATOM     17  C   UNL     1      -0.472  16.043  18.866  0.00  0.00    +0.000 A 
ATOM     18  C   UNL     1       0.241  14.893  19.226  0.00  0.00    +0.000 A 
BRANCH  15  19
ATOM     19  O   UNL     1       2.194  18.072  17.422  0.00  0.00    +0.000 OA
ATOM     20  H   UNL     1       1.820  18.965  17.425  0.00  0.00    +0.000 HD
ENDBRANCH  15  19
ENDBRANCH   1  10
BRANCH   4  21
ATOM     21  O   UNL     1       2.815   6.509  19.073  0.00  0.00    +0.000 OA
BRANCH  21  22
ATOM     22  C   UNL     1       3.513   6.202  17.922  0.00  0.00    +0.000 C 
BRANCH  22  23
ATOM     23  C   UNL     1       3.927   4.744  17.805  0.00  0.00    +0.000 C 
BRANCH  23  24
ATOM     24  C   UNL     1       3.984   4.208  19.249  0.00  0.00    +0.000 C 
BRANCH  24  25
ATOM     25  N   UNL     1       3.400   2.864  19.445  0.00  0.00    +0.000 NA
ATOM     26  C   UNL     1       2.043   2.807  18.857  0.00  0.00    +0.000 C 
ATOM     27  C   UNL     1       1.029   3.611  19.704  0.00  0.00    +0.000 C 
ATOM     28  O   UNL     1       0.993   3.134  21.036  0.00  0.00    +0.000 OA
ATOM     29  C   UNL     1       2.273   3.262  21.632  0.00  0.00    +0.000 C 
ATOM     30  C   UNL     1       3.316   2.435  20.858  0.00  0.00    +0.000 C 
ENDBRANCH  24  25
ENDBRANCH  23  24
ENDBRANCH  22  23
ENDBRANCH  21  22
ENDBRANCH   4  21
TORSDOF 7
ENDMDL
MODEL 9
REMARK VINA RESULT:      -7.9      1.054      1.242
REMARK  Name = 
REMARK  7 active torsions:
REMARK  status: ('A' for Active; 'I' for Inactive)
REMARK    1  A    between atoms: C_4  and  C_5
REMARK    2  A    between atoms: C_8  and  O_9
REMARK    3  A    between atoms: O_9  and  C_10
REMARK    4  A    between atoms: C_10  and  C_11
REMARK    5  A    between atoms: C_11  and  C_12
REMARK    6  A    between atoms: C_12  and  N_13
REMARK    7  A    between atoms: C_25  and  O_26
REMARK                            x       y       z     vdW  Elec       q    Type
REMARK                         _______ _______ _______ _____ _____    ______ ____
ROOT
ATOM      1  C   UNL     1       1.116   8.896  20.003  0.00  0.00    +0.000 A 
ATOM      2  C   UNL     1       1.772   8.909  18.786  0.00  0.00    +0.000 A 
ATOM      3  C   UNL     1       2.480   7.804  18.371  0.00  0.00    +0.000 A 
ATOM      4  C   UNL     1       2.564   6.645  19.177  0.00  0.00    +0.000 A 
ATOM      5  C   UNL     1       1.930   6.643  20.430  0.00  0.00    +0.000 A 
ATOM      6  C   UNL     1       1.192   7.767  20.839  0.00  0.00    +0.000 A 
ENDROOT
BRANCH   1  10
ATOM      7  O   UNL     1      -1.112  12.518  20.642  0.00  0.00    +0.000 OA
ATOM      8  C   UNL     1      -1.391  11.732  19.747  0.00  0.00    +0.000 C 
ATOM      9  C   UNL     1      -0.522  10.598  19.413  0.00  0.00    +0.000 C 
ATOM     10  C   UNL     1       0.294  10.054  20.330  0.00  0.00    +0.000 C 
ATOM     11  C   UNL     1      -0.678  10.092  17.995  0.00  0.00    +0.000 C 
ATOM     12  O   UNL     1      -2.014   9.862  17.727  0.00  0.00    +0.000 OA
ATOM     13  C   UNL     1      -2.995  10.707  18.144  0.00  0.00    +0.000 A 
ATOM     14  C   UNL     1      -4.284  10.561  17.639  0.00  0.00    +0.000 A 
ATOM     15  C   UNL     1      -5.319  11.380  18.103  0.00  0.00    +0.000 A 
ATOM     16  C   UNL     1      -5.054  12.368  19.058  0.00  0.00    +0.000 A 
ATOM     17  C   UNL     1      -3.763  12.536  19.559  0.00  0.00    +0.000 A 
ATOM     18  C   UNL     1      -2.731  11.700  19.115  0.00  0.00    +0.000 A 
BRANCH  15  19
ATOM     19  O   UNL     1      -6.578  11.214  17.653  0.00  0.00    +0.000 OA
ATOM     20  H   UNL     1      -6.775  11.138  16.708  0.00  0.00    +0.000 HD
ENDBRANCH  15  19
ENDBRANCH   1  10
BRANCH   4  21
ATOM     21  O   UNL     1       3.219   5.529  18.752  0.00  0.00    +0.000 OA
BRANCH  21  22
ATOM     22  C   UNL     1       2.555   4.566  18.017  0.00  0.00    +0.000 C 
BRANCH  22  23
ATOM     23  C   UNL     1       3.454   3.712  17.138  0.00  0.00    +0.000 C 
BRANCH  23  24
ATOM     24  C   UNL     1       4.890   3.954  17.648  0.00  0.00    +0.000 C 
BRANCH  24  25
ATOM     25  N   UNL     1       5.891   4.236  16.599  0.00  0.00    +0.000 NA
ATOM     26  C   UNL     1       7.140   4.746  17.210  0.00  0.00    +0.000 C 
ATOM     27  C   UNL     1       6.961   6.189  17.736  0.00  0.00    +0.000 C 
ATOM     28  O   UNL     1       6.549   7.058  16.697  0.00  0.00    +0.000 OA
ATOM     29  C   UNL     1       5.311   6.620  16.162  0.00  0.00    +0.000 C 
ATOM     30  C   UNL     1       5.445   5.204  15.573  0.00  0.00    +0.000 C 
ENDBRANCH  24  25
ENDBRANCH  23  24
ENDBRANCH  22  23
ENDBRANCH  21  22
ENDBRANCH   4  21
TORSDOF 7
ENDMDL
