MODEL 1
REMARK VINA RESULT:      -8.0      0.000      0.000
REMARK  Name = 
REMARK  13 active torsions:
REMARK  status: ('A' for Active; 'I' for Inactive)
REMARK    1  A    between atoms: C_1  and  C_2
REMARK    2  A    between atoms: C_2  and  C_3
REMARK    3  A    between atoms: C_2  and  C_4
REMARK    4  A    between atoms: C_4  and  N_5
REMARK    5  A    between atoms: N_5  and  C_20
REMARK    6  A    between atoms: C_6  and  C_8
REMARK    7  A    between atoms: C_8  and  S_9
REMARK    8  A    between atoms: S_9  and  C_10
REMARK    9  A    between atoms: C_21  and  N_22
REMARK   10  A    between atoms: N_23  and  C_24
REMARK   11  A    between atoms: C_24  and  C_25
REMARK   12  A    between atoms: C_25  and  C_26
REMARK   13  A    between atoms: C_25  and  C_27
REMARK                            x       y       z     vdW  Elec       q    Type
REMARK                         _______ _______ _______ _____ _____    ______ ____
ROOT
ATOM      1  N   UNL     1       4.608   5.048  16.697  0.00  0.00    +0.000 N 
ATOM      2  C   UNL     1       4.366   6.443  16.681  0.00  0.00    +0.000 C 
ATOM      3  O   UNL     1       4.664   7.128  15.697  0.00  0.00    +0.000 OA
ENDROOT
BRANCH   1   4
ATOM      4  C   UNL     1       4.375   4.272  17.843  0.00  0.00    +0.000 A 
ATOM      5  C   UNL     1       3.237   3.562  18.077  0.00  0.00    +0.000 A 
ATOM      6  N   UNL     1       3.136   2.791  19.238  0.00  0.00    +0.000 N 
ATOM      7  C   UNL     1       4.204   2.600  20.110  0.00  0.00    +0.000 A 
ATOM      8  O   UNL     1       4.169   1.884  21.109  0.00  0.00    +0.000 OA
ATOM      9  N   UNL     1       5.344   3.275  19.827  0.00  0.00    +0.000 N 
ATOM     10  C   UNL     1       5.480   4.197  18.845  0.00  0.00    +0.000 A 
ATOM     11  O   UNL     1       6.488   4.900  18.773  0.00  0.00    +0.000 OA
ATOM     12  H   UNL     1       6.093   3.192  20.496  0.00  0.00    +0.000 HD
BRANCH   5  13
ATOM     13  N   UNL     1       2.207   3.546  17.147  0.00  0.00    +0.000 N 
ATOM     14  H   UNL     1       1.274   3.482  17.532  0.00  0.00    +0.000 HD
ATOM     15  H   UNL     1       2.346   2.934  16.353  0.00  0.00    +0.000 HD
ENDBRANCH   5  13
BRANCH   6  16
ATOM     16  C   UNL     1       1.877   2.126  19.606  0.00  0.00    +0.000 C 
BRANCH  16  17
ATOM     17  C   UNL     1       0.979   2.901  20.590  0.00  0.00    +0.000 C 
ATOM     18  C   UNL     1       1.231   2.519  22.050  0.00  0.00    +0.000 C 
ATOM     19  C   UNL     1       1.230   4.405  20.417  0.00  0.00    +0.000 C 
ENDBRANCH  16  17
ENDBRANCH   6  16
ENDBRANCH   1   4
BRANCH   1  20
ATOM     20  C   UNL     1       5.144   4.430  15.458  0.00  0.00    +0.000 C 
BRANCH  20  22
ATOM     21  C   UNL     1       7.632   4.852  15.840  0.00  0.00    +0.000 C 
ATOM     22  C   UNL     1       6.449   5.039  14.885  0.00  0.00    +0.000 C 
ATOM     23  C   UNL     1       6.804   4.415  13.529  0.00  0.00    +0.000 C 
ENDBRANCH  20  22
ENDBRANCH   1  20
BRANCH   2  24
ATOM     24  C   UNL     1       3.681   7.065  17.915  0.00  0.00    +0.000 C 
BRANCH  24  25
ATOM     25  S   UNL     1       2.558   8.445  17.529  0.00  0.00    +0.000 S 
BRANCH  25  26
ATOM     26  C   UNL     1       1.705   8.689  19.098  0.00  0.00    +0.000 A 
ATOM     27  C   UNL     1       1.998   7.800  20.144  0.00  0.00    +0.000 A 
ATOM     28  C   UNL     1       1.458   7.986  21.424  0.00  0.00    +0.000 A 
ATOM     29  C   UNL     1       0.624   9.071  21.677  0.00  0.00    +0.000 A 
ATOM     30  C   UNL     1       0.322   9.960  20.646  0.00  0.00    +0.000 A 
ATOM     31  C   UNL     1       0.845   9.765  19.361  0.00  0.00    +0.000 A 
ATOM     32  O   UNL     1      -0.470  11.068  20.829  0.00  0.00    +0.000 OA
ATOM     33  C   UNL     1      -0.530  11.431  22.213  0.00  0.00    +0.000 C 
ATOM     34  C   UNL     1      -0.843  10.219  23.076  0.00  0.00    +0.000 C 
ATOM     35  O   UNL     1       0.173   9.215  22.964  0.00  0.00    +0.000 OA
ENDBRANCH  25  26
ENDBRANCH  24  25
ENDBRANCH   2  24
TORSDOF 9
ENDMDL
MODEL 2
REMARK VINA RESULT:      -7.7      1.607      4.779
REMARK  Name = 
REMARK  13 active torsions:
REMARK  status: ('A' for Active; 'I' for Inactive)
REMARK    1  A    between atoms: C_1  and  C_2
REMARK    2  A    between atoms: C_2  and  C_3
REMARK    3  A    between atoms: C_2  and  C_4
REMARK    4  A    between atoms: C_4  and  N_5
REMARK    5  A    between atoms: N_5  and  C_20
REMARK    6  A    between atoms: C_6  and  C_8
REMARK    7  A    between atoms: C_8  and  S_9
REMARK    8  A    between atoms: S_9  and  C_10
REMARK    9  A    between atoms: C_21  and  N_22
REMARK   10  A    between atoms: N_23  and  C_24
REMARK   11  A    between atoms: C_24  and  C_25
REMARK   12  A    between atoms: C_25  and  C_26
REMARK   13  A    between atoms: C_25  and  C_27
REMARK                            x       y       z     vdW  Elec       q    Type
REMARK                         _______ _______ _______ _____ _____    ______ ____
ROOT
ATOM      1  N   UNL     1       3.991   4.577  19.362  0.00  0.00    +0.000 N 
ATOM      2  C   UNL     1       3.069   5.490  19.931  0.00  0.00    +0.000 C 
ATOM      3  O   UNL     1       2.156   5.094  20.663  0.00  0.00    +0.000 OA
ENDROOT
BRANCH   1   4
ATOM      4  C   UNL     1       4.969   4.992  18.446  0.00  0.00    +0.000 A 
ATOM      5  C   UNL     1       4.780   5.079  17.100  0.00  0.00    +0.000 A 
ATOM      6  N   UNL     1       5.817   5.548  16.290  0.00  0.00    +0.000 N 
ATOM      7  C   UNL     1       7.001   6.066  16.807  0.00  0.00    +0.000 A 
ATOM      8  O   UNL     1       7.911   6.538  16.129  0.00  0.00    +0.000 OA
ATOM      9  N   UNL     1       7.144   6.018  18.153  0.00  0.00    +0.000 N 
ATOM     10  C   UNL     1       6.290   5.406  19.007  0.00  0.00    +0.000 A 
ATOM     11  O   UNL     1       6.587   5.243  20.191  0.00  0.00    +0.000 OA
ATOM     12  H   UNL     1       8.031   6.328  18.523  0.00  0.00    +0.000 HD
BRANCH   5  13
ATOM     13  N   UNL     1       3.550   4.769  16.536  0.00  0.00    +0.000 N 
ATOM     14  H   UNL     1       3.183   3.855  16.765  0.00  0.00    +0.000 HD
ATOM     15  H   UNL     1       3.452   4.995  15.554  0.00  0.00    +0.000 HD
ENDBRANCH   5  13
BRANCH   6  16
ATOM     16  C   UNL     1       5.713   5.522  14.824  0.00  0.00    +0.000 C 
BRANCH  16  17
ATOM     17  C   UNL     1       6.437   4.354  14.126  0.00  0.00    +0.000 C 
ATOM     18  C   UNL     1       5.503   3.513  13.253  0.00  0.00    +0.000 C 
ATOM     19  C   UNL     1       7.564   4.917  13.251  0.00  0.00    +0.000 C 
ENDBRANCH  16  17
ENDBRANCH   6  16
ENDBRANCH   1   4
BRANCH   1  20
ATOM     20  C   UNL     1       3.873   3.149  19.752  0.00  0.00    +0.000 C 
BRANCH  20  22
ATOM     21  C   UNL     1       3.843   0.966  18.430  0.00  0.00    +0.000 C 
ATOM     22  C   UNL     1       3.064   2.232  18.799  0.00  0.00    +0.000 C 
ATOM     23  C   UNL     1       1.725   1.825  19.425  0.00  0.00    +0.000 C 
ENDBRANCH  20  22
ENDBRANCH   1  20
BRANCH   2  24
ATOM     24  C   UNL     1       3.274   6.990  19.639  0.00  0.00    +0.000 C 
BRANCH  24  25
ATOM     25  S   UNL     1       2.160   7.661  18.365  0.00  0.00    +0.000 S 
BRANCH  25  26
ATOM     26  C   UNL     1       1.270   8.937  19.274  0.00  0.00    +0.000 A 
ATOM     27  C   UNL     1       0.554   9.888  18.530  0.00  0.00    +0.000 A 
ATOM     28  C   UNL     1      -0.250  10.847  19.162  0.00  0.00    +0.000 A 
ATOM     29  C   UNL     1      -0.354  10.861  20.550  0.00  0.00    +0.000 A 
ATOM     30  C   UNL     1       0.355   9.925  21.302  0.00  0.00    +0.000 A 
ATOM     31  C   UNL     1       1.173   8.978  20.672  0.00  0.00    +0.000 A 
ATOM     32  O   UNL     1       0.278   9.860  22.672  0.00  0.00    +0.000 OA
ATOM     33  C   UNL     1      -0.910  10.503  23.148  0.00  0.00    +0.000 C 
ATOM     34  C   UNL     1      -1.069  11.878  22.521  0.00  0.00    +0.000 C 
ATOM     35  O   UNL     1      -1.195  11.796  21.096  0.00  0.00    +0.000 OA
ENDBRANCH  25  26
ENDBRANCH  24  25
ENDBRANCH   2  24
TORSDOF 9
ENDMDL
MODEL 3
REMARK VINA RESULT:      -7.6      0.902      1.679
REMARK  Name = 
REMARK  13 active torsions:
REMARK  status: ('A' for Active; 'I' for Inactive)
REMARK    1  A    between atoms: C_1  and  C_2
REMARK    2  A    between atoms: C_2  and  C_3
REMARK    3  A    between atoms: C_2  and  C_4
REMARK    4  A    between atoms: C_4  and  N_5
REMARK    5  A    between atoms: N_5  and  C_20
REMARK    6  A    between atoms: C_6  and  C_8
REMARK    7  A    between atoms: C_8  and  S_9
REMARK    8  A    between atoms: S_9  and  C_10
REMARK    9  A    between atoms: C_21  and  N_22
REMARK   10  A    between atoms: N_23  and  C_24
REMARK   11  A    between atoms: C_24  and  C_25
REMARK   12  A    between atoms: C_25  and  C_26
REMARK   13  A    between atoms: C_25  and  C_27
REMARK                            x       y       z     vdW  Elec       q    Type
REMARK                         _______ _______ _______ _____ _____    ______ ____
ROOT
ATOM      1  N   UNL     1       4.563   5.183  16.523  0.00  0.00    +0.000 N 
ATOM      2  C   UNL     1       4.488   6.595  16.617  0.00  0.00    +0.000 C 
ATOM      3  O   UNL     1       4.744   7.309  15.642  0.00  0.00    +0.000 OA
ENDROOT
BRANCH   1   4
ATOM      4  C   UNL     1       4.380   4.359  17.644  0.00  0.00    +0.000 A 
ATOM      5  C   UNL     1       3.245   3.657  17.911  0.00  0.00    +0.000 A 
ATOM      6  N   UNL     1       3.195   2.835  19.039  0.00  0.00    +0.000 N 
ATOM      7  C   UNL     1       4.306   2.588  19.839  0.00  0.00    +0.000 A 
ATOM      8  O   UNL     1       4.315   1.827  20.806  0.00  0.00    +0.000 OA
ATOM      9  N   UNL     1       5.441   3.257  19.522  0.00  0.00    +0.000 N 
ATOM     10  C   UNL     1       5.539   4.221  18.577  0.00  0.00    +0.000 A 
ATOM     11  O   UNL     1       6.554   4.911  18.480  0.00  0.00    +0.000 OA
ATOM     12  H   UNL     1       6.225   3.132  20.144  0.00  0.00    +0.000 HD
BRANCH   5  13
ATOM     13  N   UNL     1       2.164   3.700  17.040  0.00  0.00    +0.000 N 
ATOM     14  H   UNL     1       1.255   3.772  17.479  0.00  0.00    +0.000 HD
ATOM     15  H   UNL     1       2.183   3.024  16.288  0.00  0.00    +0.000 HD
ENDBRANCH   5  13
BRANCH   6  16
ATOM     16  C   UNL     1       1.947   2.174  19.448  0.00  0.00    +0.000 C 
BRANCH  16  17
ATOM     17  C   UNL     1       1.132   2.904  20.534  0.00  0.00    +0.000 C 
ATOM     18  C   UNL     1       1.570   2.534  21.953  0.00  0.00    +0.000 C 
ATOM     19  C   UNL     1       1.289   4.418  20.343  0.00  0.00    +0.000 C 
ENDBRANCH  16  17
ENDBRANCH   6  16
ENDBRANCH   1   4
BRANCH   1  20
ATOM     20  C   UNL     1       4.867   4.598  15.192  0.00  0.00    +0.000 C 
BRANCH  20  22
ATOM     21  C   UNL     1       6.571   3.710  13.514  0.00  0.00    +0.000 C 
ATOM     22  C   UNL     1       6.306   4.061  14.980  0.00  0.00    +0.000 C 
ATOM     23  C   UNL     1       7.353   5.082  15.443  0.00  0.00    +0.000 C 
ENDBRANCH  20  22
ENDBRANCH   1  20
BRANCH   2  24
ATOM     24  C   UNL     1       4.037   7.200  17.962  0.00  0.00    +0.000 C 
BRANCH  24  25
ATOM     25  S   UNL     1       2.249   7.072  18.276  0.00  0.00    +0.000 S 
BRANCH  25  26
ATOM     26  C   UNL     1       1.855   8.716  18.899  0.00  0.00    +0.000 A 
ATOM     27  C   UNL     1       1.947   9.792  18.003  0.00  0.00    +0.000 A 
ATOM     28  C   UNL     1       1.555  11.084  18.379  0.00  0.00    +0.000 A 
ATOM     29  C   UNL     1       1.057  11.315  19.658  0.00  0.00    +0.000 A 
ATOM     30  C   UNL     1       0.964  10.256  20.561  0.00  0.00    +0.000 A 
ATOM     31  C   UNL     1       1.373   8.967  20.192  0.00  0.00    +0.000 A 
ATOM     32  O   UNL     1       0.456  10.402  21.829  0.00  0.00    +0.000 OA
ATOM     33  C   UNL     1      -0.357  11.578  21.921  0.00  0.00    +0.000 C 
ATOM     34  C   UNL     1       0.362  12.780  21.331  0.00  0.00    +0.000 C 
ATOM     35  O   UNL     1       0.649  12.593  19.940  0.00  0.00    +0.000 OA
ENDBRANCH  25  26
ENDBRANCH  24  25
ENDBRANCH   2  24
TORSDOF 9
ENDMDL
MODEL 4
REMARK VINA RESULT:      -7.6      1.585      4.802
REMARK  Name = 
REMARK  13 active torsions:
REMARK  status: ('A' for Active; 'I' for Inactive)
REMARK    1  A    between atoms: C_1  and  C_2
REMARK    2  A    between atoms: C_2  and  C_3
REMARK    3  A    between atoms: C_2  and  C_4
REMARK    4  A    between atoms: C_4  and  N_5
REMARK    5  A    between atoms: N_5  and  C_20
REMARK    6  A    between atoms: C_6  and  C_8
REMARK    7  A    between atoms: C_8  and  S_9
REMARK    8  A    between atoms: S_9  and  C_10
REMARK    9  A    between atoms: C_21  and  N_22
REMARK   10  A    between atoms: N_23  and  C_24
REMARK   11  A    between atoms: C_24  and  C_25
REMARK   12  A    between atoms: C_25  and  C_26
REMARK   13  A    between atoms: C_25  and  C_27
REMARK                            x       y       z     vdW  Elec       q    Type
REMARK                         _______ _______ _______ _____ _____    ______ ____
ROOT
ATOM      1  N   UNL     1       3.782   4.603  19.370  0.00  0.00    +0.000 N 
ATOM      2  C   UNL     1       3.043   5.803  19.513  0.00  0.00    +0.000 C 
ATOM      3  O   UNL     1       2.037   5.845  20.231  0.00  0.00    +0.000 OA
ENDROOT
BRANCH   1   4
ATOM      4  C   UNL     1       4.862   4.507  18.479  0.00  0.00    +0.000 A 
ATOM      5  C   UNL     1       4.773   4.034  17.205  0.00  0.00    +0.000 A 
ATOM      6  N   UNL     1       5.912   4.025  16.395  0.00  0.00    +0.000 N 
ATOM      7  C   UNL     1       7.115   4.607  16.782  0.00  0.00    +0.000 A 
ATOM      8  O   UNL     1       8.120   4.668  16.075  0.00  0.00    +0.000 OA
ATOM      9  N   UNL     1       7.164   5.119  18.035  0.00  0.00    +0.000 N 
ATOM     10  C   UNL     1       6.186   5.001  18.964  0.00  0.00    +0.000 A 
ATOM     11  O   UNL     1       6.382   5.328  20.135  0.00  0.00    +0.000 OA
ATOM     12  H   UNL     1       8.056   5.477  18.341  0.00  0.00    +0.000 HD
BRANCH   5  13
ATOM     13  N   UNL     1       3.554   3.624  16.684  0.00  0.00    +0.000 N 
ATOM     14  H   UNL     1       2.749   3.798  17.272  0.00  0.00    +0.000 HD
ATOM     15  H   UNL     1       3.544   2.700  16.271  0.00  0.00    +0.000 HD
ENDBRANCH   5  13
BRANCH   6  16
ATOM     16  C   UNL     1       5.900   3.393  15.068  0.00  0.00    +0.000 C 
BRANCH  16  17
ATOM     17  C   UNL     1       5.716   4.351  13.875  0.00  0.00    +0.000 C 
ATOM     18  C   UNL     1       7.044   4.815  13.276  0.00  0.00    +0.000 C 
ATOM     19  C   UNL     1       4.899   3.641  12.787  0.00  0.00    +0.000 C 
ENDBRANCH  16  17
ENDBRANCH   6  16
ENDBRANCH   1   4
BRANCH   1  20
ATOM     20  C   UNL     1       3.360   3.434  20.181  0.00  0.00    +0.000 C 
BRANCH  20  22
ATOM     21  C   UNL     1       1.581   1.915  19.161  0.00  0.00    +0.000 C 
ATOM     22  C   UNL     1       1.855   3.063  20.136  0.00  0.00    +0.000 C 
ATOM     23  C   UNL     1       1.340   2.667  21.525  0.00  0.00    +0.000 C 
ENDBRANCH  20  22
ENDBRANCH   1  20
BRANCH   2  24
ATOM     24  C   UNL     1       3.560   7.057  18.780  0.00  0.00    +0.000 C 
BRANCH  24  25
ATOM     25  S   UNL     1       2.331   7.849  17.696  0.00  0.00    +0.000 S 
BRANCH  25  26
ATOM     26  C   UNL     1       1.437   8.908  18.849  0.00  0.00    +0.000 A 
ATOM     27  C   UNL     1       0.548   9.852  18.311  0.00  0.00    +0.000 A 
ATOM     28  C   UNL     1      -0.263  10.638  19.141  0.00  0.00    +0.000 A 
ATOM     29  C   UNL     1      -0.201  10.482  20.523  0.00  0.00    +0.000 A 
ATOM     30  C   UNL     1       0.680   9.551  21.071  0.00  0.00    +0.000 A 
ATOM     31  C   UNL     1       1.505   8.778  20.243  0.00  0.00    +0.000 A 
ATOM     32  O   UNL     1       0.775   9.323  22.422  0.00  0.00    +0.000 OA
ATOM     33  C   UNL     1      -0.404   9.773  23.100  0.00  0.00    +0.000 C 
ATOM     34  C   UNL     1      -0.770  11.185  22.671  0.00  0.00    +0.000 C 
ATOM     35  O   UNL     1      -1.057  11.251  21.269  0.00  0.00    +0.000 OA
ENDBRANCH  25  26
ENDBRANCH  24  25
ENDBRANCH   2  24
TORSDOF 9
ENDMDL
MODEL 5
REMARK VINA RESULT:      -7.3      1.704      4.576
REMARK  Name = 
REMARK  13 active torsions:
REMARK  status: ('A' for Active; 'I' for Inactive)
REMARK    1  A    between atoms: C_1  and  C_2
REMARK    2  A    between atoms: C_2  and  C_3
REMARK    3  A    between atoms: C_2  and  C_4
REMARK    4  A    between atoms: C_4  and  N_5
REMARK    5  A    between atoms: N_5  and  C_20
REMARK    6  A    between atoms: C_6  and  C_8
REMARK    7  A    between atoms: C_8  and  S_9
REMARK    8  A    between atoms: S_9  and  C_10
REMARK    9  A    between atoms: C_21  and  N_22
REMARK   10  A    between atoms: N_23  and  C_24
REMARK   11  A    between atoms: C_24  and  C_25
REMARK   12  A    between atoms: C_25  and  C_26
REMARK   13  A    between atoms: C_25  and  C_27
REMARK                            x       y       z     vdW  Elec       q    Type
REMARK                         _______ _______ _______ _____ _____    ______ ____
ROOT
ATOM      1  N   UNL     1       4.022   4.498  19.461  0.00  0.00    +0.000 N 
ATOM      2  C   UNL     1       3.093   5.404  20.028  0.00  0.00    +0.000 C 
ATOM      3  O   UNL     1       2.204   5.007  20.790  0.00  0.00    +0.000 OA
ENDROOT
BRANCH   1   4
ATOM      4  C   UNL     1       4.970   4.912  18.513  0.00  0.00    +0.000 A 
ATOM      5  C   UNL     1       4.729   5.026  17.178  0.00  0.00    +0.000 A 
ATOM      6  N   UNL     1       5.742   5.490  16.334  0.00  0.00    +0.000 N 
ATOM      7  C   UNL     1       6.954   5.977  16.812  0.00  0.00    +0.000 A 
ATOM      8  O   UNL     1       7.846   6.445  16.105  0.00  0.00    +0.000 OA
ATOM      9  N   UNL     1       7.151   5.903  18.150  0.00  0.00    +0.000 N 
ATOM     10  C   UNL     1       6.321   5.291  19.027  0.00  0.00    +0.000 A 
ATOM     11  O   UNL     1       6.661   5.102  20.195  0.00  0.00    +0.000 OA
ATOM     12  H   UNL     1       8.057   6.190  18.489  0.00  0.00    +0.000 HD
BRANCH   5  13
ATOM     13  N   UNL     1       3.472   4.749  16.658  0.00  0.00    +0.000 N 
ATOM     14  H   UNL     1       3.446   4.045  15.932  0.00  0.00    +0.000 HD
ATOM     15  H   UNL     1       2.902   5.557  16.441  0.00  0.00    +0.000 HD
ENDBRANCH   5  13
BRANCH   6  16
ATOM     16  C   UNL     1       5.578   5.492  14.873  0.00  0.00    +0.000 C 
BRANCH  16  17
ATOM     17  C   UNL     1       6.240   4.316  14.128  0.00  0.00    +0.000 C 
ATOM     18  C   UNL     1       5.267   3.572  13.211  0.00  0.00    +0.000 C 
ATOM     19  C   UNL     1       7.406   4.852  13.288  0.00  0.00    +0.000 C 
ENDBRANCH  16  17
ENDBRANCH   6  16
ENDBRANCH   1   4
BRANCH   1  20
ATOM     20  C   UNL     1       3.945   3.078  19.888  0.00  0.00    +0.000 C 
BRANCH  20  22
ATOM     21  C   UNL     1       1.764   2.928  18.571  0.00  0.00    +0.000 C 
ATOM     22  C   UNL     1       2.986   2.161  19.087  0.00  0.00    +0.000 C 
ATOM     23  C   UNL     1       3.703   1.513  17.896  0.00  0.00    +0.000 C 
ENDBRANCH  20  22
ENDBRANCH   1  20
BRANCH   2  24
ATOM     24  C   UNL     1       3.257   6.901  19.694  0.00  0.00    +0.000 C 
BRANCH  24  25
ATOM     25  S   UNL     1       1.861   7.617  18.770  0.00  0.00    +0.000 S 
BRANCH  25  26
ATOM     26  C   UNL     1       1.061   8.636  20.024  0.00  0.00    +0.000 A 
ATOM     27  C   UNL     1       1.332   8.345  21.370  0.00  0.00    +0.000 A 
ATOM     28  C   UNL     1       0.835   9.156  22.400  0.00  0.00    +0.000 A 
ATOM     29  C   UNL     1       0.066  10.275  22.094  0.00  0.00    +0.000 A 
ATOM     30  C   UNL     1      -0.215  10.573  20.761  0.00  0.00    +0.000 A 
ATOM     31  C   UNL     1       0.266   9.753  19.732  0.00  0.00    +0.000 A 
ATOM     32  O   UNL     1      -0.942  11.676  20.384  0.00  0.00    +0.000 OA
ATOM     33  C   UNL     1      -0.948  12.663  21.421  0.00  0.00    +0.000 C 
ATOM     34  C   UNL     1      -1.303  12.039  22.760  0.00  0.00    +0.000 C 
ATOM     35  O   UNL     1      -0.345  11.047  23.150  0.00  0.00    +0.000 OA
ENDBRANCH  25  26
ENDBRANCH  24  25
ENDBRANCH   2  24
TORSDOF 9
ENDMDL
MODEL 6
REMARK VINA RESULT:      -7.3      0.940      1.185
REMARK  Name = 
REMARK  13 active torsions:
REMARK  status: ('A' for Active; 'I' for Inactive)
REMARK    1  A    between atoms: C_1  and  C_2
REMARK    2  A    between atoms: C_2  and  C_3
REMARK    3  A    between atoms: C_2  and  C_4
REMARK    4  A    between atoms: C_4  and  N_5
REMARK    5  A    between atoms: N_5  and  C_20
REMARK    6  A    between atoms: C_6  and  C_8
REMARK    7  A    between atoms: C_8  and  S_9
REMARK    8  A    between atoms: S_9  and  C_10
REMARK    9  A    between atoms: C_21  and  N_22
REMARK   10  A    between atoms: N_23  and  C_24
REMARK   11  A    between atoms: C_24  and  C_25
REMARK   12  A    between atoms: C_25  and  C_26
REMARK   13  A    between atoms: C_25  and  C_27
REMARK                            x       y       z     vdW  Elec       q    Type
REMARK                         _______ _______ _______ _____ _____    ______ ____
ROOT
ATOM      1  N   UNL     1       4.457   6.077  17.085  0.00  0.00    +0.000 N 
ATOM      2  C   UNL     1       3.837   7.337  17.269  0.00  0.00    +0.000 C 
ATOM      3  O   UNL     1       4.037   8.264  16.477  0.00  0.00    +0.000 OA
ENDROOT
BRANCH   1   4
ATOM      4  C   UNL     1       4.327   5.047  18.029  0.00  0.00    +0.000 A 
ATOM      5  C   UNL     1       3.237   4.238  18.145  0.00  0.00    +0.000 A 
ATOM      6  N   UNL     1       3.239   3.216  19.097  0.00  0.00    +0.000 N 
ATOM      7  C   UNL     1       4.363   2.891  19.850  0.00  0.00    +0.000 A 
ATOM      8  O   UNL     1       4.419   1.964  20.656  0.00  0.00    +0.000 OA
ATOM      9  N   UNL     1       5.454   3.676  19.679  0.00  0.00    +0.000 N 
ATOM     10  C   UNL     1       5.491   4.806  18.933  0.00  0.00    +0.000 A 
ATOM     11  O   UNL     1       6.461   5.563  18.980  0.00  0.00    +0.000 OA
ATOM     12  H   UNL     1       6.244   3.485  20.275  0.00  0.00    +0.000 HD
BRANCH   5  13
ATOM     13  N   UNL     1       2.156   4.378  17.285  0.00  0.00    +0.000 N 
ATOM     14  H   UNL     1       1.545   5.160  17.478  0.00  0.00    +0.000 HD
ATOM     15  H   UNL     1       1.649   3.526  17.080  0.00  0.00    +0.000 HD
ENDBRANCH   5  13
BRANCH   6  16
ATOM     16  C   UNL     1       2.035   2.415  19.359  0.00  0.00    +0.000 C 
BRANCH  16  17
ATOM     17  C   UNL     1       1.106   2.950  20.467  0.00  0.00    +0.000 C 
ATOM     18  C   UNL     1       1.477   2.428  21.856  0.00  0.00    +0.000 C 
ATOM     19  C   UNL     1       1.173   4.483  20.476  0.00  0.00    +0.000 C 
ENDBRANCH  16  17
ENDBRANCH   6  16
ENDBRANCH   1   4
BRANCH   1  20
ATOM     20  C   UNL     1       5.279   5.887  15.863  0.00  0.00    +0.000 C 
BRANCH  20  22
ATOM     21  C   UNL     1       5.451   4.171  13.982  0.00  0.00    +0.000 C 
ATOM     22  C   UNL     1       5.632   4.427  15.481  0.00  0.00    +0.000 C 
ATOM     23  C   UNL     1       7.075   4.085  15.871  0.00  0.00    +0.000 C 
ENDBRANCH  20  22
ENDBRANCH   1  20
BRANCH   2  24
ATOM     24  C   UNL     1       2.873   7.493  18.463  0.00  0.00    +0.000 C 
BRANCH  24  25
ATOM     25  S   UNL     1       1.221   8.111  18.013  0.00  0.00    +0.000 S 
BRANCH  25  26
ATOM     26  C   UNL     1       0.662   8.856  19.556  0.00  0.00    +0.000 A 
ATOM     27  C   UNL     1       1.225   8.380  20.750  0.00  0.00    +0.000 A 
ATOM     28  C   UNL     1       0.923   8.977  21.982  0.00  0.00    +0.000 A 
ATOM     29  C   UNL     1       0.060  10.068  22.032  0.00  0.00    +0.000 A 
ATOM     30  C   UNL     1      -0.510  10.549  20.854  0.00  0.00    +0.000 A 
ATOM     31  C   UNL     1      -0.224   9.940  19.625  0.00  0.00    +0.000 A 
ATOM     32  O   UNL     1      -1.347  11.638  20.824  0.00  0.00    +0.000 OA
ATOM     33  C   UNL     1      -1.175  12.447  21.993  0.00  0.00    +0.000 C 
ATOM     34  C   UNL     1      -1.211  11.594  23.251  0.00  0.00    +0.000 C 
ATOM     35  O   UNL     1      -0.151  10.631  23.265  0.00  0.00    +0.000 OA
ENDBRANCH  25  26
ENDBRANCH  24  25
ENDBRANCH   2  24
TORSDOF 9
ENDMDL
MODEL 7
REMARK VINA RESULT:      -7.3      4.660      9.607
REMARK  Name = 
REMARK  13 active torsions:
REMARK  status: ('A' for Active; 'I' for Inactive)
REMARK    1  A    between atoms: C_1  and  C_2
REMARK    2  A    between atoms: C_2  and  C_3
REMARK    3  A    between atoms: C_2  and  C_4
REMARK    4  A    between atoms: C_4  and  N_5
REMARK    5  A    between atoms: N_5  and  C_20
REMARK    6  A    between atoms: C_6  and  C_8
REMARK    7  A    between atoms: C_8  and  S_9
REMARK    8  A    between atoms: S_9  and  C_10
REMARK    9  A    between atoms: C_21  and  N_22
REMARK   10  A    between atoms: N_23  and  C_24
REMARK   11  A    between atoms: C_24  and  C_25
REMARK   12  A    between atoms: C_25  and  C_26
REMARK   13  A    between atoms: C_25  and  C_27
REMARK                            x       y       z     vdW  Elec       q    Type
REMARK                         _______ _______ _______ _____ _____    ______ ____
ROOT
ATOM      1  N   UNL     1      -0.559  11.412  18.583  0.00  0.00    +0.000 N 
ATOM      2  C   UNL     1      -0.210  10.059  18.350  0.00  0.00    +0.000 C 
ATOM      3  O   UNL     1      -0.912   9.338  17.633  0.00  0.00    +0.000 OA
ENDROOT
BRANCH   1   4
ATOM      4  C   UNL     1       0.165  12.216  19.477  0.00  0.00    +0.000 A 
ATOM      5  C   UNL     1       1.244  12.973  19.137  0.00  0.00    +0.000 A 
ATOM      6  N   UNL     1       1.859  13.768  20.107  0.00  0.00    +0.000 N 
ATOM      7  C   UNL     1       1.337  13.932  21.386  0.00  0.00    +0.000 A 
ATOM      8  O   UNL     1       1.819  14.666  22.248  0.00  0.00    +0.000 OA
ATOM      9  N   UNL     1       0.231  13.210  21.686  0.00  0.00    +0.000 N 
ATOM     10  C   UNL     1      -0.323  12.266  20.889  0.00  0.00    +0.000 A 
ATOM     11  O   UNL     1      -1.210  11.523  21.310  0.00  0.00    +0.000 OA
ATOM     12  H   UNL     1      -0.106  13.275  22.634  0.00  0.00    +0.000 HD
BRANCH   5  13
ATOM     13  N   UNL     1       1.696  13.012  17.825  0.00  0.00    +0.000 N 
ATOM     14  H   UNL     1       2.408  12.333  17.589  0.00  0.00    +0.000 HD
ATOM     15  H   UNL     1       1.901  13.935  17.461  0.00  0.00    +0.000 HD
ENDBRANCH   5  13
BRANCH   6  16
ATOM     16  C   UNL     1       3.110  14.486  19.825  0.00  0.00    +0.000 C 
BRANCH  16  17
ATOM     17  C   UNL     1       2.948  15.885  19.199  0.00  0.00    +0.000 C 
ATOM     18  C   UNL     1       3.427  17.007  20.121  0.00  0.00    +0.000 C 
ATOM     19  C   UNL     1       3.745  15.941  17.889  0.00  0.00    +0.000 C 
ENDBRANCH  16  17
ENDBRANCH   6  16
ENDBRANCH   1   4
BRANCH   1  20
ATOM     20  C   UNL     1      -1.740  11.951  17.863  0.00  0.00    +0.000 C 
BRANCH  20  22
ATOM     21  C   UNL     1      -3.823  12.320  19.290  0.00  0.00    +0.000 C 
ATOM     22  C   UNL     1      -3.125  11.398  18.286  0.00  0.00    +0.000 C 
ATOM     23  C   UNL     1      -4.040  11.205  17.071  0.00  0.00    +0.000 C 
ENDBRANCH  20  22
ENDBRANCH   1  20
BRANCH   2  24
ATOM     24  C   UNL     1       1.093   9.535  18.987  0.00  0.00    +0.000 C 
BRANCH  24  25
ATOM     25  S   UNL     1       2.260   8.797  17.800  0.00  0.00    +0.000 S 
BRANCH  25  26
ATOM     26  C   UNL     1       2.608   7.198  18.555  0.00  0.00    +0.000 A 
ATOM     27  C   UNL     1       2.068   6.947  19.826  0.00  0.00    +0.000 A 
ATOM     28  C   UNL     1       2.203   5.692  20.435  0.00  0.00    +0.000 A 
ATOM     29  C   UNL     1       2.872   4.666  19.773  0.00  0.00    +0.000 A 
ATOM     30  C   UNL     1       3.416   4.903  18.511  0.00  0.00    +0.000 A 
ATOM     31  C   UNL     1       3.299   6.163  17.910  0.00  0.00    +0.000 A 
ATOM     32  O   UNL     1       4.064   3.932  17.787  0.00  0.00    +0.000 OA
ATOM     33  C   UNL     1       3.701   2.624  18.246  0.00  0.00    +0.000 C 
ATOM     34  C   UNL     1       3.810   2.533  19.760  0.00  0.00    +0.000 C 
ATOM     35  O   UNL     1       2.922   3.452  20.409  0.00  0.00    +0.000 OA
ENDBRANCH  25  26
ENDBRANCH  24  25
ENDBRANCH   2  24
TORSDOF 9
ENDMDL
MODEL 8
REMARK VINA RESULT:      -7.2      4.797      9.195
REMARK  Name = 
REMARK  13 active torsions:
REMARK  status: ('A' for Active; 'I' for Inactive)
REMARK    1  A    between atoms: C_1  and  C_2
REMARK    2  A    between atoms: C_2  and  C_3
REMARK    3  A    between atoms: C_2  and  C_4
REMARK    4  A    between atoms: C_4  and  N_5
REMARK    5  A    between atoms: N_5  and  C_20
REMARK    6  A    between atoms: C_6  and  C_8
REMARK    7  A    between atoms: C_8  and  S_9
REMARK    8  A    between atoms: S_9  and  C_10
REMARK    9  A    between atoms: C_21  and  N_22
REMARK   10  A    between atoms: N_23  and  C_24
REMARK   11  A    between atoms: C_24  and  C_25
REMARK   12  A    between atoms: C_25  and  C_26
REMARK   13  A    between atoms: C_25  and  C_27
REMARK                            x       y       z     vdW  Elec       q    Type
REMARK                         _______ _______ _______ _____ _____    ______ ____
ROOT
ATOM      1  N   UNL     1       0.500  12.176  19.055  0.00  0.00    +0.000 N 
ATOM      2  C   UNL     1       1.029  10.888  18.796  0.00  0.00    +0.000 C 
ATOM      3  O   UNL     1       2.017  10.743  18.068  0.00  0.00    +0.000 OA
ENDROOT
BRANCH   1   4
ATOM      4  C   UNL     1      -0.681  12.353  19.791  0.00  0.00    +0.000 A 
ATOM      5  C   UNL     1      -1.926  12.438  19.246  0.00  0.00    +0.000 A 
ATOM      6  N   UNL     1      -3.036  12.572  20.085  0.00  0.00    +0.000 N 
ATOM      7  C   UNL     1      -2.945  12.485  21.470  0.00  0.00    +0.000 A 
ATOM      8  O   UNL     1      -3.906  12.541  22.237  0.00  0.00    +0.000 OA
ATOM      9  N   UNL     1      -1.702  12.347  21.988  0.00  0.00    +0.000 N 
ATOM     10  C   UNL     1      -0.550  12.407  21.278  0.00  0.00    +0.000 A 
ATOM     11  O   UNL     1       0.541  12.462  21.845  0.00  0.00    +0.000 OA
ATOM     12  H   UNL     1      -1.629  12.356  22.995  0.00  0.00    +0.000 HD
BRANCH   5  13
ATOM     13  N   UNL     1      -2.108  12.327  17.874  0.00  0.00    +0.000 N 
ATOM     14  H   UNL     1      -1.982  13.181  17.347  0.00  0.00    +0.000 HD
ATOM     15  H   UNL     1      -2.926  11.806  17.583  0.00  0.00    +0.000 HD
ENDBRANCH   5  13
BRANCH   6  16
ATOM     16  C   UNL     1      -4.380  12.813  19.540  0.00  0.00    +0.000 C 
BRANCH  16  17
ATOM     17  C   UNL     1      -5.228  11.553  19.280  0.00  0.00    +0.000 C 
ATOM     18  C   UNL     1      -6.513  11.521  20.109  0.00  0.00    +0.000 C 
ATOM     19  C   UNL     1      -5.594  11.497  17.791  0.00  0.00    +0.000 C 
ENDBRANCH  16  17
ENDBRANCH   6  16
ENDBRANCH   1   4
BRANCH   1  20
ATOM     20  C   UNL     1       1.229  13.343  18.497  0.00  0.00    +0.000 C 
BRANCH  20  22
ATOM     21  C   UNL     1       3.622  14.231  18.481  0.00  0.00    +0.000 C 
ATOM     22  C   UNL     1       2.400  13.903  19.344  0.00  0.00    +0.000 C 
ATOM     23  C   UNL     1       1.979  15.165  20.107  0.00  0.00    +0.000 C 
ENDBRANCH  20  22
ENDBRANCH   1  20
BRANCH   2  24
ATOM     24  C   UNL     1       0.356   9.685  19.488  0.00  0.00    +0.000 C 
BRANCH  24  25
ATOM     25  S   UNL     1       1.357   8.924  20.804  0.00  0.00    +0.000 S 
BRANCH  25  26
ATOM     26  C   UNL     1       1.875   7.376  20.040  0.00  0.00    +0.000 A 
ATOM     27  C   UNL     1       2.463   7.443  18.767  0.00  0.00    +0.000 A 
ATOM     28  C   UNL     1       2.989   6.299  18.152  0.00  0.00    +0.000 A 
ATOM     29  C   UNL     1       2.941   5.072  18.808  0.00  0.00    +0.000 A 
ATOM     30  C   UNL     1       2.355   4.991  20.071  0.00  0.00    +0.000 A 
ATOM     31  C   UNL     1       1.812   6.130  20.679  0.00  0.00    +0.000 A 
ATOM     32  O   UNL     1       2.297   3.821  20.789  0.00  0.00    +0.000 OA
ATOM     33  C   UNL     1       3.277   2.886  20.323  0.00  0.00    +0.000 C 
ATOM     34  C   UNL     1       3.226   2.760  18.808  0.00  0.00    +0.000 C 
ATOM     35  O   UNL     1       3.517   4.006  18.165  0.00  0.00    +0.000 OA
ENDBRANCH  25  26
ENDBRANCH  24  25
ENDBRANCH   2  24
TORSDOF 9
ENDMDL
MODEL 9
REMARK VINA RESULT:      -7.2      1.137      1.537
REMARK  Name = 
REMARK  13 active torsions:
REMARK  status: ('A' for Active; 'I' for Inactive)
REMARK    1  A    between atoms: C_1  and  C_2
REMARK    2  A    between atoms: C_2  and  C_3
REMARK    3  A    between atoms: C_2  and  C_4
REMARK    4  A    between atoms: C_4  and  N_5
REMARK    5  A    between atoms: N_5  and  C_20
REMARK    6  A    between atoms: C_6  and  C_8
REMARK    7  A    between atoms: C_8  and  S_9
REMARK    8  A    between atoms: S_9  and  C_10
REMARK    9  A    between atoms: C_21  and  N_22
REMARK   10  A    between atoms: N_23  and  C_24
REMARK   11  A    between atoms: C_24  and  C_25
REMARK   12  A    between atoms: C_25  and  C_26
REMARK   13  A    between atoms: C_25  and  C_27
REMARK                            x       y       z     vdW  Elec       q    Type
REMARK                         _______ _______ _______ _____ _____    ______ ____
ROOT
ATOM      1  N   UNL     1       4.562   5.170  16.501  0.00  0.00    +0.000 N 
ATOM      2  C   UNL     1       4.369   6.569  16.620  0.00  0.00    +0.000 C 
ATOM      3  O   UNL     1       4.504   7.313  15.643  0.00  0.00    +0.000 OA
ENDROOT
BRANCH   1   4
ATOM      4  C   UNL     1       4.518   4.323  17.618  0.00  0.00    +0.000 A 
ATOM      5  C   UNL     1       3.486   3.485  17.913  0.00  0.00    +0.000 A 
ATOM      6  N   UNL     1       3.574   2.655  19.033  0.00  0.00    +0.000 N 
ATOM      7  C   UNL     1       4.733   2.540  19.795  0.00  0.00    +0.000 A 
ATOM      8  O   UNL     1       4.867   1.779  20.752  0.00  0.00    +0.000 OA
ATOM      9  N   UNL     1       5.766   3.345  19.450  0.00  0.00    +0.000 N 
ATOM     10  C   UNL     1       5.715   4.320  18.512  0.00  0.00    +0.000 A 
ATOM     11  O   UNL     1       6.634   5.130  18.391  0.00  0.00    +0.000 OA
ATOM     12  H   UNL     1       6.580   3.313  20.045  0.00  0.00    +0.000 HD
BRANCH   5  13
ATOM     13  N   UNL     1       2.380   3.401  17.078  0.00  0.00    +0.000 N 
ATOM     14  H   UNL     1       2.445   2.716  16.337  0.00  0.00    +0.000 HD
ATOM     15  H   UNL     1       2.005   4.286  16.761  0.00  0.00    +0.000 HD
ENDBRANCH   5  13
BRANCH   6  16
ATOM     16  C   UNL     1       2.431   1.843  19.474  0.00  0.00    +0.000 C 
BRANCH  16  17
ATOM     17  C   UNL     1       1.463   2.534  20.455  0.00  0.00    +0.000 C 
ATOM     18  C   UNL     1       2.161   3.551  21.360  0.00  0.00    +0.000 C 
ATOM     19  C   UNL     1       0.367   3.248  19.655  0.00  0.00    +0.000 C 
ENDBRANCH  16  17
ENDBRANCH   6  16
ENDBRANCH   1   4
BRANCH   1  20
ATOM     20  C   UNL     1       4.837   4.628  15.146  0.00  0.00    +0.000 C 
BRANCH  20  22
ATOM     21  C   UNL     1       6.421   3.533  13.472  0.00  0.00    +0.000 C 
ATOM     22  C   UNL     1       6.266   4.084  14.892  0.00  0.00    +0.000 C 
ATOM     23  C   UNL     1       7.323   5.172  15.119  0.00  0.00    +0.000 C 
ENDBRANCH  20  22
ENDBRANCH   1  20
BRANCH   2  24
ATOM     24  C   UNL     1       3.947   7.119  17.998  0.00  0.00    +0.000 C 
BRANCH  24  25
ATOM     25  S   UNL     1       2.259   6.656  18.500  0.00  0.00    +0.000 S 
BRANCH  25  26
ATOM     26  C   UNL     1       1.685   8.154  19.322  0.00  0.00    +0.000 A 
ATOM     27  C   UNL     1       1.459   8.092  20.706  0.00  0.00    +0.000 A 
ATOM     28  C   UNL     1       1.116   9.238  21.436  0.00  0.00    +0.000 A 
ATOM     29  C   UNL     1       1.003  10.465  20.791  0.00  0.00    +0.000 A 
ATOM     30  C   UNL     1       1.221  10.541  19.415  0.00  0.00    +0.000 A 
ATOM     31  C   UNL     1       1.545   9.393  18.681  0.00  0.00    +0.000 A 
ATOM     32  O   UNL     1       1.155  11.722  18.717  0.00  0.00    +0.000 OA
ATOM     33  C   UNL     1       1.311  12.844  19.593  0.00  0.00    +0.000 C 
ATOM     34  C   UNL     1       0.400  12.716  20.803  0.00  0.00    +0.000 C 
ATOM     35  O   UNL     1       0.711  11.551  21.576  0.00  0.00    +0.000 OA
ENDBRANCH  25  26
ENDBRANCH  24  25
ENDBRANCH   2  24
TORSDOF 9
ENDMDL
