MODEL 1
REMARK VINA RESULT:      -8.9      0.000      0.000
REMARK  Name = 
REMARK  5 active torsions:
REMARK  status: ('A' for Active; 'I' for Inactive)
REMARK    1  A    between atoms: C_2  and  C_3
REMARK    2  A    between atoms: C_6  and  C_7
REMARK    3  A    between atoms: C_8  and  C_9
REMARK    4  A    between atoms: C_24  and  C_25
REMARK    5  A    between atoms: C_25  and  O_26
REMARK                            x       y       z     vdW  Elec       q    Type
REMARK                         _______ _______ _______ _____ _____    ______ ____
ROOT
ATOM      1  C   UNL     1       5.973   5.850  17.717  0.00  0.00    +0.000 A 
ATOM      2  C   UNL     1       7.039   5.760  18.618  0.00  0.00    +0.000 A 
ATOM      3  C   UNL     1       7.981   6.787  18.720  0.00  0.00    +0.000 A 
ATOM      4  C   UNL     1       7.801   7.978  18.019  0.00  0.00    +0.000 A 
ATOM      5  C   UNL     1       6.696   8.121  17.180  0.00  0.00    +0.000 A 
ATOM      6  C   UNL     1       5.794   7.058  17.020  0.00  0.00    +0.000 A 
ENDROOT
BRANCH   1   8
ATOM      7  O   UNL     1       5.334   3.766  16.905  0.00  0.00    +0.000 OA
ATOM      8  C   UNL     1       4.961   4.758  17.528  0.00  0.00    +0.000 C 
ATOM      9  N   UNL     1       3.661   4.855  18.051  0.00  0.00    +0.000 N 
ATOM     10  C   UNL     1       3.138   5.903  18.926  0.00  0.00    +0.000 C 
ATOM     11  C   UNL     1       2.558   5.337  20.211  0.00  0.00    +0.000 C 
ATOM     12  C   UNL     1       1.535   4.249  19.937  0.00  0.00    +0.000 C 
ATOM     13  C   UNL     1       2.107   3.170  19.004  0.00  0.00    +0.000 C 
ATOM     14  C   UNL     1       2.688   3.800  17.727  0.00  0.00    +0.000 C 
BRANCH  13  15
ATOM     15  C   UNL     1       1.029   2.135  18.668  0.00  0.00    +0.000 C 
BRANCH  15  16
ATOM     16  O   UNL     1      -0.142   2.368  19.444  0.00  0.00    +0.000 OA
ATOM     17  H   UNL     1      -0.911   2.170  18.882  0.00  0.00    +0.000 HD
ENDBRANCH  15  16
ENDBRANCH  13  15
ENDBRANCH   1   8
BRANCH   4  18
ATOM     18  C   UNL     1       8.700   9.066  18.256  0.00  0.00    +0.000 C 
ATOM     19  C   UNL     1       9.358  10.047  18.477  0.00  0.00    +0.000 C 
BRANCH  19  20
ATOM     20  C   UNL     1      10.048  11.271  18.747  0.00  0.00    +0.000 A 
ATOM     21  C   UNL     1      10.399  11.616  20.065  0.00  0.00    +0.000 A 
ATOM     22  C   UNL     1      11.065  12.818  20.333  0.00  0.00    +0.000 A 
ATOM     23  C   UNL     1      11.359  13.645  19.267  0.00  0.00    +0.000 A 
ATOM     24  C   UNL     1      11.014  13.308  17.980  0.00  0.00    +0.000 A 
ATOM     25  C   UNL     1      10.359  12.129  17.686  0.00  0.00    +0.000 A 
ATOM     26  O   UNL     1      11.390  14.256  17.077  0.00  0.00    +0.000 OA
ATOM     27  C   UNL     1      12.001  15.231  17.946  0.00  0.00    +0.000 C 
ATOM     28  O   UNL     1      11.995  14.845  19.337  0.00  0.00    +0.000 OA
ENDBRANCH  19  20
ENDBRANCH   4  18
TORSDOF 5
ENDMDL
MODEL 2
REMARK VINA RESULT:      -8.5      0.657      1.135
REMARK  Name = 
REMARK  5 active torsions:
REMARK  status: ('A' for Active; 'I' for Inactive)
REMARK    1  A    between atoms: C_2  and  C_3
REMARK    2  A    between atoms: C_6  and  C_7
REMARK    3  A    between atoms: C_8  and  C_9
REMARK    4  A    between atoms: C_24  and  C_25
REMARK    5  A    between atoms: C_25  and  O_26
REMARK                            x       y       z     vdW  Elec       q    Type
REMARK                         _______ _______ _______ _____ _____    ______ ____
ROOT
ATOM      1  C   UNL     1       6.054   5.987  17.736  0.00  0.00    +0.000 A 
ATOM      2  C   UNL     1       5.861   7.190  17.049  0.00  0.00    +0.000 A 
ATOM      3  C   UNL     1       6.693   8.289  17.278  0.00  0.00    +0.000 A 
ATOM      4  C   UNL     1       7.811   8.164  18.101  0.00  0.00    +0.000 A 
ATOM      5  C   UNL     1       8.070   6.946  18.729  0.00  0.00    +0.000 A 
ATOM      6  C   UNL     1       7.189   5.867  18.557  0.00  0.00    +0.000 A 
ENDROOT
BRANCH   1   8
ATOM      7  O   UNL     1       5.632   3.837  16.954  0.00  0.00    +0.000 OA
ATOM      8  C   UNL     1       5.163   4.792  17.569  0.00  0.00    +0.000 C 
ATOM      9  N   UNL     1       3.864   4.758  18.102  0.00  0.00    +0.000 N 
ATOM     10  C   UNL     1       3.240   5.756  18.970  0.00  0.00    +0.000 C 
ATOM     11  C   UNL     1       2.733   5.149  20.266  0.00  0.00    +0.000 C 
ATOM     12  C   UNL     1       1.828   3.956  20.015  0.00  0.00    +0.000 C 
ATOM     13  C   UNL     1       2.503   2.931  19.089  0.00  0.00    +0.000 C 
ATOM     14  C   UNL     1       3.005   3.602  17.800  0.00  0.00    +0.000 C 
BRANCH  13  15
ATOM     15  C   UNL     1       1.537   1.784  18.776  0.00  0.00    +0.000 C 
BRANCH  15  16
ATOM     16  O   UNL     1       0.233   2.291  18.511  0.00  0.00    +0.000 OA
ATOM     17  H   UNL     1      -0.094   2.701  19.330  0.00  0.00    +0.000 HD
ENDBRANCH  15  16
ENDBRANCH  13  15
ENDBRANCH   1   8
BRANCH   4  18
ATOM     18  C   UNL     1       8.726   9.261  18.201  0.00  0.00    +0.000 C 
ATOM     19  C   UNL     1       9.402  10.246  18.329  0.00  0.00    +0.000 C 
BRANCH  19  20
ATOM     20  C   UNL     1      10.116  11.473  18.510  0.00  0.00    +0.000 A 
ATOM     21  C   UNL     1      11.283  11.510  19.295  0.00  0.00    +0.000 A 
ATOM     22  C   UNL     1      11.977  12.712  19.481  0.00  0.00    +0.000 A 
ATOM     23  C   UNL     1      11.477  13.847  18.875  0.00  0.00    +0.000 A 
ATOM     24  C   UNL     1      10.337  13.810  18.109  0.00  0.00    +0.000 A 
ATOM     25  C   UNL     1       9.633  12.640  17.907  0.00  0.00    +0.000 A 
ATOM     26  O   UNL     1      10.011  15.032  17.604  0.00  0.00    +0.000 OA
ATOM     27  C   UNL     1      11.073  15.842  18.148  0.00  0.00    +0.000 C 
ATOM     28  O   UNL     1      12.014  15.094  18.947  0.00  0.00    +0.000 OA
ENDBRANCH  19  20
ENDBRANCH   4  18
TORSDOF 5
ENDMDL
MODEL 3
REMARK VINA RESULT:      -7.8      1.314      2.107
REMARK  Name = 
REMARK  5 active torsions:
REMARK  status: ('A' for Active; 'I' for Inactive)
REMARK    1  A    between atoms: C_2  and  C_3
REMARK    2  A    between atoms: C_6  and  C_7
REMARK    3  A    between atoms: C_8  and  C_9
REMARK    4  A    between atoms: C_24  and  C_25
REMARK    5  A    between atoms: C_25  and  O_26
REMARK                            x       y       z     vdW  Elec       q    Type
REMARK                         _______ _______ _______ _____ _____    ______ ____
ROOT
ATOM      1  C   UNL     1       6.886   6.321  17.917  0.00  0.00    +0.000 A 
ATOM      2  C   UNL     1       6.611   7.416  17.092  0.00  0.00    +0.000 A 
ATOM      3  C   UNL     1       7.251   8.643  17.290  0.00  0.00    +0.000 A 
ATOM      4  C   UNL     1       8.272   8.759  18.231  0.00  0.00    +0.000 A 
ATOM      5  C   UNL     1       8.621   7.653  19.006  0.00  0.00    +0.000 A 
ATOM      6  C   UNL     1       7.923   6.444  18.859  0.00  0.00    +0.000 A 
ENDROOT
BRANCH   1   8
ATOM      7  O   UNL     1       6.876   3.996  17.992  0.00  0.00    +0.000 OA
ATOM      8  C   UNL     1       6.193   4.997  17.785  0.00  0.00    +0.000 C 
ATOM      9  N   UNL     1       4.830   4.905  17.459  0.00  0.00    +0.000 N 
ATOM     10  C   UNL     1       3.877   6.007  17.331  0.00  0.00    +0.000 C 
ATOM     11  C   UNL     1       2.668   5.823  18.232  0.00  0.00    +0.000 C 
ATOM     12  C   UNL     1       2.014   4.467  18.031  0.00  0.00    +0.000 C 
ATOM     13  C   UNL     1       3.041   3.330  18.156  0.00  0.00    +0.000 C 
ATOM     14  C   UNL     1       4.246   3.574  17.231  0.00  0.00    +0.000 C 
BRANCH  13  15
ATOM     15  C   UNL     1       2.378   1.983  17.857  0.00  0.00    +0.000 C 
BRANCH  15  16
ATOM     16  O   UNL     1       1.480   1.628  18.904  0.00  0.00    +0.000 OA
ATOM     17  H   UNL     1       1.899   1.877  19.747  0.00  0.00    +0.000 HD
ENDBRANCH  15  16
ENDBRANCH  13  15
ENDBRANCH   1   8
BRANCH   4  18
ATOM     18  C   UNL     1       9.008   9.984  18.310  0.00  0.00    +0.000 C 
ATOM     19  C   UNL     1       9.527  11.062  18.422  0.00  0.00    +0.000 C 
BRANCH  19  20
ATOM     20  C   UNL     1      10.047  12.385  18.585  0.00  0.00    +0.000 A 
ATOM     21  C   UNL     1      10.503  13.115  17.472  0.00  0.00    +0.000 A 
ATOM     22  C   UNL     1      11.022  14.405  17.632  0.00  0.00    +0.000 A 
ATOM     23  C   UNL     1      11.072  14.928  18.909  0.00  0.00    +0.000 A 
ATOM     24  C   UNL     1      10.629  14.214  19.996  0.00  0.00    +0.000 A 
ATOM     25  C   UNL     1      10.111  12.941  19.868  0.00  0.00    +0.000 A 
ATOM     26  O   UNL     1      10.767  14.903  21.161  0.00  0.00    +0.000 OA
ATOM     27  C   UNL     1      11.357  16.129  20.683  0.00  0.00    +0.000 C 
ATOM     28  O   UNL     1      11.543  16.156  19.252  0.00  0.00    +0.000 OA
ENDBRANCH  19  20
ENDBRANCH   4  18
TORSDOF 5
ENDMDL
MODEL 4
REMARK VINA RESULT:      -7.7      6.755     10.218
REMARK  Name = 
REMARK  5 active torsions:
REMARK  status: ('A' for Active; 'I' for Inactive)
REMARK    1  A    between atoms: C_2  and  C_3
REMARK    2  A    between atoms: C_6  and  C_7
REMARK    3  A    between atoms: C_8  and  C_9
REMARK    4  A    between atoms: C_24  and  C_25
REMARK    5  A    between atoms: C_25  and  O_26
REMARK                            x       y       z     vdW  Elec       q    Type
REMARK                         _______ _______ _______ _____ _____    ______ ____
ROOT
ATOM      1  C   UNL     1       0.002  10.349  21.668  0.00  0.00    +0.000 A 
ATOM      2  C   UNL     1       0.057  10.618  20.297  0.00  0.00    +0.000 A 
ATOM      3  C   UNL     1       0.851   9.846  19.445  0.00  0.00    +0.000 A 
ATOM      4  C   UNL     1       1.501   8.711  19.927  0.00  0.00    +0.000 A 
ATOM      5  C   UNL     1       1.389   8.376  21.277  0.00  0.00    +0.000 A 
ATOM      6  C   UNL     1       0.653   9.198  22.145  0.00  0.00    +0.000 A 
ENDROOT
BRANCH   1   8
ATOM      7  O   UNL     1      -1.225  10.593  23.629  0.00  0.00    +0.000 OA
ATOM      8  C   UNL     1      -0.792  11.175  22.637  0.00  0.00    +0.000 C 
ATOM      9  N   UNL     1      -1.015  12.546  22.431  0.00  0.00    +0.000 N 
ATOM     10  C   UNL     1      -0.441  13.385  21.380  0.00  0.00    +0.000 C 
ATOM     11  C   UNL     1       0.293  14.589  21.947  0.00  0.00    +0.000 C 
ATOM     12  C   UNL     1      -0.579  15.380  22.906  0.00  0.00    +0.000 C 
ATOM     13  C   UNL     1      -1.180  14.472  23.991  0.00  0.00    +0.000 C 
ATOM     14  C   UNL     1      -1.899  13.267  23.360  0.00  0.00    +0.000 C 
BRANCH  13  15
ATOM     15  C   UNL     1      -2.127  15.274  24.888  0.00  0.00    +0.000 C 
BRANCH  15  16
ATOM     16  O   UNL     1      -3.277  14.500  25.213  0.00  0.00    +0.000 OA
ATOM     17  H   UNL     1      -4.059  15.001  24.924  0.00  0.00    +0.000 HD
ENDBRANCH  15  16
ENDBRANCH  13  15
ENDBRANCH   1   8
BRANCH   4  18
ATOM     18  C   UNL     1       2.186   7.858  19.005  0.00  0.00    +0.000 C 
ATOM     19  C   UNL     1       2.821   7.097  18.324  0.00  0.00    +0.000 C 
BRANCH  19  20
ATOM     20  C   UNL     1       3.632   6.164  17.604  0.00  0.00    +0.000 A 
ATOM     21  C   UNL     1       3.279   4.803  17.552  0.00  0.00    +0.000 A 
ATOM     22  C   UNL     1       4.077   3.887  16.857  0.00  0.00    +0.000 A 
ATOM     23  C   UNL     1       5.213   4.364  16.234  0.00  0.00    +0.000 A 
ATOM     24  C   UNL     1       5.559   5.692  16.287  0.00  0.00    +0.000 A 
ATOM     25  C   UNL     1       4.790   6.618  16.963  0.00  0.00    +0.000 A 
ATOM     26  O   UNL     1       6.712   5.957  15.612  0.00  0.00    +0.000 OA
ATOM     27  C   UNL     1       7.057   4.639  15.138  0.00  0.00    +0.000 C 
ATOM     28  O   UNL     1       6.103   3.624  15.519  0.00  0.00    +0.000 OA
ENDBRANCH  19  20
ENDBRANCH   4  18
TORSDOF 5
ENDMDL
MODEL 5
REMARK VINA RESULT:      -7.7      8.023     11.813
REMARK  Name = 
REMARK  5 active torsions:
REMARK  status: ('A' for Active; 'I' for Inactive)
REMARK    1  A    between atoms: C_2  and  C_3
REMARK    2  A    between atoms: C_6  and  C_7
REMARK    3  A    between atoms: C_8  and  C_9
REMARK    4  A    between atoms: C_24  and  C_25
REMARK    5  A    between atoms: C_25  and  O_26
REMARK                            x       y       z     vdW  Elec       q    Type
REMARK                         _______ _______ _______ _____ _____    ______ ____
ROOT
ATOM      1  C   UNL     1      -0.861  11.752  22.549  0.00  0.00    +0.000 A 
ATOM      2  C   UNL     1      -1.002  10.517  23.190  0.00  0.00    +0.000 A 
ATOM      3  C   UNL     1      -0.436   9.359  22.650  0.00  0.00    +0.000 A 
ATOM      4  C   UNL     1       0.390   9.437  21.530  0.00  0.00    +0.000 A 
ATOM      5  C   UNL     1       0.612  10.674  20.925  0.00  0.00    +0.000 A 
ATOM      6  C   UNL     1      -0.020  11.823  21.424  0.00  0.00    +0.000 A 
ENDROOT
BRANCH   1   8
ATOM      7  O   UNL     1      -0.782  13.741  23.753  0.00  0.00    +0.000 OA
ATOM      8  C   UNL     1      -1.489  13.017  23.055  0.00  0.00    +0.000 C 
ATOM      9  N   UNL     1      -2.810  13.368  22.732  0.00  0.00    +0.000 N 
ATOM     10  C   UNL     1      -3.704  12.678  21.803  0.00  0.00    +0.000 C 
ATOM     11  C   UNL     1      -4.232  13.607  20.723  0.00  0.00    +0.000 C 
ATOM     12  C   UNL     1      -4.864  14.856  21.312  0.00  0.00    +0.000 C 
ATOM     13  C   UNL     1      -3.908  15.552  22.296  0.00  0.00    +0.000 C 
ATOM     14  C   UNL     1      -3.398  14.563  23.357  0.00  0.00    +0.000 C 
BRANCH  13  15
ATOM     15  C   UNL     1      -4.600  16.753  22.946  0.00  0.00    +0.000 C 
BRANCH  15  16
ATOM     16  O   UNL     1      -5.790  17.084  22.237  0.00  0.00    +0.000 OA
ATOM     17  H   UNL     1      -6.351  16.290  22.217  0.00  0.00    +0.000 HD
ENDBRANCH  15  16
ENDBRANCH  13  15
ENDBRANCH   1   8
BRANCH   4  18
ATOM     18  C   UNL     1       1.072   8.260  21.087  0.00  0.00    +0.000 C 
ATOM     19  C   UNL     1       1.635   7.315  20.603  0.00  0.00    +0.000 C 
BRANCH  19  20
ATOM     20  C   UNL     1       2.282   6.231  19.928  0.00  0.00    +0.000 A 
ATOM     21  C   UNL     1       2.830   6.414  18.646  0.00  0.00    +0.000 A 
ATOM     22  C   UNL     1       3.454   5.352  17.980  0.00  0.00    +0.000 A 
ATOM     23  C   UNL     1       3.507   4.131  18.621  0.00  0.00    +0.000 A 
ATOM     24  C   UNL     1       2.970   3.952  19.873  0.00  0.00    +0.000 A 
ATOM     25  C   UNL     1       2.351   4.981  20.554  0.00  0.00    +0.000 A 
ATOM     26  O   UNL     1       3.124   2.677  20.327  0.00  0.00    +0.000 OA
ATOM     27  C   UNL     1       3.811   2.073  19.212  0.00  0.00    +0.000 C 
ATOM     28  O   UNL     1       4.068   2.994  18.130  0.00  0.00    +0.000 OA
ENDBRANCH  19  20
ENDBRANCH   4  18
TORSDOF 5
ENDMDL
MODEL 6
REMARK VINA RESULT:      -7.6      1.589      1.702
REMARK  Name = 
REMARK  5 active torsions:
REMARK  status: ('A' for Active; 'I' for Inactive)
REMARK    1  A    between atoms: C_2  and  C_3
REMARK    2  A    between atoms: C_6  and  C_7
REMARK    3  A    between atoms: C_8  and  C_9
REMARK    4  A    between atoms: C_24  and  C_25
REMARK    5  A    between atoms: C_25  and  O_26
REMARK                            x       y       z     vdW  Elec       q    Type
REMARK                         _______ _______ _______ _____ _____    ______ ____
ROOT
ATOM      1  C   UNL     1       6.989   6.234  18.038  0.00  0.00    +0.000 A 
ATOM      2  C   UNL     1       7.978   6.492  18.993  0.00  0.00    +0.000 A 
ATOM      3  C   UNL     1       8.656   7.714  19.013  0.00  0.00    +0.000 A 
ATOM      4  C   UNL     1       8.266   8.747  18.162  0.00  0.00    +0.000 A 
ATOM      5  C   UNL     1       7.223   8.538  17.260  0.00  0.00    +0.000 A 
ATOM      6  C   UNL     1       6.597   7.284  17.190  0.00  0.00    +0.000 A 
ENDROOT
BRANCH   1   8
ATOM      7  O   UNL     1       6.956   3.929  17.726  0.00  0.00    +0.000 OA
ATOM      8  C   UNL     1       6.266   4.924  17.937  0.00  0.00    +0.000 C 
ATOM      9  N   UNL     1       4.873   4.834  18.094  0.00  0.00    +0.000 N 
ATOM     10  C   UNL     1       3.959   5.905  18.488  0.00  0.00    +0.000 C 
ATOM     11  C   UNL     1       3.136   5.532  19.710  0.00  0.00    +0.000 C 
ATOM     12  C   UNL     1       2.424   4.202  19.526  0.00  0.00    +0.000 C 
ATOM     13  C   UNL     1       3.406   3.100  19.097  0.00  0.00    +0.000 C 
ATOM     14  C   UNL     1       4.218   3.537  17.866  0.00  0.00    +0.000 C 
BRANCH  13  15
ATOM     15  C   UNL     1       2.652   1.795  18.829  0.00  0.00    +0.000 C 
BRANCH  15  16
ATOM     16  O   UNL     1       1.744   1.960  17.744  0.00  0.00    +0.000 OA
ATOM     17  H   UNL     1       2.045   1.385  17.019  0.00  0.00    +0.000 HD
ENDBRANCH  15  16
ENDBRANCH  13  15
ENDBRANCH   1   8
BRANCH   4  18
ATOM     18  C   UNL     1       8.879  10.033  18.305  0.00  0.00    +0.000 C 
ATOM     19  C   UNL     1       9.282  11.158  18.429  0.00  0.00    +0.000 C 
BRANCH  19  20
ATOM     20  C   UNL     1       9.658  12.532  18.570  0.00  0.00    +0.000 A 
ATOM     21  C   UNL     1      10.836  12.882  19.254  0.00  0.00    +0.000 A 
ATOM     22  C   UNL     1      11.201  14.226  19.401  0.00  0.00    +0.000 A 
ATOM     23  C   UNL     1      10.367  15.184  18.858  0.00  0.00    +0.000 A 
ATOM     24  C   UNL     1       9.216  14.841  18.192  0.00  0.00    +0.000 A 
ATOM     25  C   UNL     1       8.833  13.525  18.030  0.00  0.00    +0.000 A 
ATOM     26  O   UNL     1       8.536  15.929  17.737  0.00  0.00    +0.000 OA
ATOM     27  C   UNL     1       9.388  16.996  18.202  0.00  0.00    +0.000 C 
ATOM     28  O   UNL     1      10.559  16.529  18.906  0.00  0.00    +0.000 OA
ENDBRANCH  19  20
ENDBRANCH   4  18
TORSDOF 5
ENDMDL
MODEL 7
REMARK VINA RESULT:      -7.6      6.217      9.487
REMARK  Name = 
REMARK  5 active torsions:
REMARK  status: ('A' for Active; 'I' for Inactive)
REMARK    1  A    between atoms: C_2  and  C_3
REMARK    2  A    between atoms: C_6  and  C_7
REMARK    3  A    between atoms: C_8  and  C_9
REMARK    4  A    between atoms: C_24  and  C_25
REMARK    5  A    between atoms: C_25  and  O_26
REMARK                            x       y       z     vdW  Elec       q    Type
REMARK                         _______ _______ _______ _____ _____    ______ ____
ROOT
ATOM      1  C   UNL     1       2.432   6.556  18.822  0.00  0.00    +0.000 A 
ATOM      2  C   UNL     1       2.040   6.375  20.152  0.00  0.00    +0.000 A 
ATOM      3  C   UNL     1       1.560   7.446  20.911  0.00  0.00    +0.000 A 
ATOM      4  C   UNL     1       1.341   8.687  20.316  0.00  0.00    +0.000 A 
ATOM      5  C   UNL     1       1.645   8.865  18.966  0.00  0.00    +0.000 A 
ATOM      6  C   UNL     1       2.200   7.809  18.226  0.00  0.00    +0.000 A 
ENDROOT
BRANCH   1   8
ATOM      7  O   UNL     1       2.201   4.649  17.510  0.00  0.00    +0.000 OA
ATOM      8  C   UNL     1       3.002   5.457  17.975  0.00  0.00    +0.000 C 
ATOM      9  N   UNL     1       4.379   5.364  17.711  0.00  0.00    +0.000 N 
ATOM     10  C   UNL     1       5.414   6.330  18.077  0.00  0.00    +0.000 C 
ATOM     11  C   UNL     1       6.210   6.797  16.871  0.00  0.00    +0.000 C 
ATOM     12  C   UNL     1       6.765   5.630  16.073  0.00  0.00    +0.000 C 
ATOM     13  C   UNL     1       5.659   4.624  15.716  0.00  0.00    +0.000 C 
ATOM     14  C   UNL     1       4.880   4.196  16.972  0.00  0.00    +0.000 C 
BRANCH  13  15
ATOM     15  C   UNL     1       6.257   3.413  14.996  0.00  0.00    +0.000 C 
BRANCH  15  16
ATOM     16  O   UNL     1       6.284   3.634  13.589  0.00  0.00    +0.000 OA
ATOM     17  H   UNL     1       5.691   4.382  13.399  0.00  0.00    +0.000 HD
ENDBRANCH  15  16
ENDBRANCH  13  15
ENDBRANCH   1   8
BRANCH   4  18
ATOM     18  C   UNL     1       0.711   9.721  21.078  0.00  0.00    +0.000 C 
ATOM     19  C   UNL     1       0.096  10.590  21.636  0.00  0.00    +0.000 C 
BRANCH  19  20
ATOM     20  C   UNL     1      -0.704  11.626  22.214  0.00  0.00    +0.000 A 
ATOM     21  C   UNL     1      -0.317  12.974  22.100  0.00  0.00    +0.000 A 
ATOM     22  C   UNL     1      -1.093  13.988  22.673  0.00  0.00    +0.000 A 
ATOM     23  C   UNL     1      -2.239  13.619  23.350  0.00  0.00    +0.000 A 
ATOM     24  C   UNL     1      -2.615  12.303  23.463  0.00  0.00    +0.000 A 
ATOM     25  C   UNL     1      -1.870  11.283  22.906  0.00  0.00    +0.000 A 
ATOM     26  O   UNL     1      -3.770  12.151  24.169  0.00  0.00    +0.000 OA
ATOM     27  C   UNL     1      -4.070  13.524  24.495  0.00  0.00    +0.000 C 
ATOM     28  O   UNL     1      -3.108  14.463  23.969  0.00  0.00    +0.000 OA
ENDBRANCH  19  20
ENDBRANCH   4  18
TORSDOF 5
ENDMDL
MODEL 8
REMARK VINA RESULT:      -7.6      1.258      1.361
REMARK  Name = 
REMARK  5 active torsions:
REMARK  status: ('A' for Active; 'I' for Inactive)
REMARK    1  A    between atoms: C_2  and  C_3
REMARK    2  A    between atoms: C_6  and  C_7
REMARK    3  A    between atoms: C_8  and  C_9
REMARK    4  A    between atoms: C_24  and  C_25
REMARK    5  A    between atoms: C_25  and  O_26
REMARK                            x       y       z     vdW  Elec       q    Type
REMARK                         _______ _______ _______ _____ _____    ______ ____
ROOT
ATOM      1  C   UNL     1       6.727   6.200  18.056  0.00  0.00    +0.000 A 
ATOM      2  C   UNL     1       7.879   6.387  18.827  0.00  0.00    +0.000 A 
ATOM      3  C   UNL     1       8.573   7.600  18.797  0.00  0.00    +0.000 A 
ATOM      4  C   UNL     1       8.055   8.689  18.098  0.00  0.00    +0.000 A 
ATOM      5  C   UNL     1       6.861   8.547  17.392  0.00  0.00    +0.000 A 
ATOM      6  C   UNL     1       6.207   7.306  17.361  0.00  0.00    +0.000 A 
ENDROOT
BRANCH   1   8
ATOM      7  O   UNL     1       6.571   3.903  18.393  0.00  0.00    +0.000 OA
ATOM      8  C   UNL     1       5.971   4.905  18.009  0.00  0.00    +0.000 C 
ATOM      9  N   UNL     1       4.639   4.841  17.566  0.00  0.00    +0.000 N 
ATOM     10  C   UNL     1       3.769   5.966  17.223  0.00  0.00    +0.000 C 
ATOM     11  C   UNL     1       2.476   5.950  18.019  0.00  0.00    +0.000 C 
ATOM     12  C   UNL     1       1.762   4.613  17.911  0.00  0.00    +0.000 C 
ATOM     13  C   UNL     1       2.704   3.450  18.262  0.00  0.00    +0.000 C 
ATOM     14  C   UNL     1       3.999   3.524  17.436  0.00  0.00    +0.000 C 
BRANCH  13  15
ATOM     15  C   UNL     1       1.991   2.111  18.056  0.00  0.00    +0.000 C 
BRANCH  15  16
ATOM     16  O   UNL     1       1.443   1.645  19.285  0.00  0.00    +0.000 OA
ATOM     17  H   UNL     1       2.186   1.435  19.876  0.00  0.00    +0.000 HD
ENDBRANCH  15  16
ENDBRANCH  13  15
ENDBRANCH   1   8
BRANCH   4  18
ATOM     18  C   UNL     1       8.709   9.957  18.206  0.00  0.00    +0.000 C 
ATOM     19  C   UNL     1       9.340  10.968  18.366  0.00  0.00    +0.000 C 
BRANCH  19  20
ATOM     20  C   UNL     1      10.152  12.116  18.629  0.00  0.00    +0.000 A 
ATOM     21  C   UNL     1      11.408  11.975  19.248  0.00  0.00    +0.000 A 
ATOM     22  C   UNL     1      12.199  13.099  19.515  0.00  0.00    +0.000 A 
ATOM     23  C   UNL     1      11.705  14.337  19.155  0.00  0.00    +0.000 A 
ATOM     24  C   UNL     1      10.478  14.474  18.553  0.00  0.00    +0.000 A 
ATOM     25  C   UNL     1       9.677  13.384  18.276  0.00  0.00    +0.000 A 
ATOM     26  O   UNL     1      10.175  15.773  18.282  0.00  0.00    +0.000 OA
ATOM     27  C   UNL     1      11.349  16.438  18.792  0.00  0.00    +0.000 C 
ATOM     28  O   UNL     1      12.330  15.531  19.338  0.00  0.00    +0.000 OA
ENDBRANCH  19  20
ENDBRANCH   4  18
TORSDOF 5
ENDMDL
MODEL 9
REMARK VINA RESULT:      -7.5      3.041     11.198
REMARK  Name = 
REMARK  5 active torsions:
REMARK  status: ('A' for Active; 'I' for Inactive)
REMARK    1  A    between atoms: C_2  and  C_3
REMARK    2  A    between atoms: C_6  and  C_7
REMARK    3  A    between atoms: C_8  and  C_9
REMARK    4  A    between atoms: C_24  and  C_25
REMARK    5  A    between atoms: C_25  and  O_26
REMARK                            x       y       z     vdW  Elec       q    Type
REMARK                         _______ _______ _______ _____ _____    ______ ____
ROOT
ATOM      1  C   UNL     1       9.927  12.333  18.667  0.00  0.00    +0.000 A 
ATOM      2  C   UNL     1      10.361  11.127  19.227  0.00  0.00    +0.000 A 
ATOM      3  C   UNL     1       9.639   9.946  19.037  0.00  0.00    +0.000 A 
ATOM      4  C   UNL     1       8.542   9.924  18.177  0.00  0.00    +0.000 A 
ATOM      5  C   UNL     1       8.143  11.100  17.541  0.00  0.00    +0.000 A 
ATOM      6  C   UNL     1       8.825  12.301  17.795  0.00  0.00    +0.000 A 
ENDROOT
BRANCH   1   8
ATOM      7  O   UNL     1      11.089  14.188  17.879  0.00  0.00    +0.000 OA
ATOM      8  C   UNL     1      10.633  13.640  18.880  0.00  0.00    +0.000 C 
ATOM      9  N   UNL     1      10.752  14.217  20.155  0.00  0.00    +0.000 N 
ATOM     10  C   UNL     1      10.137  13.749  21.396  0.00  0.00    +0.000 C 
ATOM     11  C   UNL     1       9.300  14.829  22.061  0.00  0.00    +0.000 C 
ATOM     12  C   UNL     1      10.086  16.114  22.254  0.00  0.00    +0.000 C 
ATOM     13  C   UNL     1      10.734  16.574  20.938  0.00  0.00    +0.000 C 
ATOM     14  C   UNL     1      11.557  15.439  20.306  0.00  0.00    +0.000 C 
BRANCH  13  15
ATOM     15  C   UNL     1      11.596  17.816  21.177  0.00  0.00    +0.000 C 
BRANCH  15  16
ATOM     16  O   UNL     1      11.647  18.619  20.003  0.00  0.00    +0.000 OA
ATOM     17  H   UNL     1      10.948  18.308  19.403  0.00  0.00    +0.000 HD
ENDBRANCH  15  16
ENDBRANCH  13  15
ENDBRANCH   1   8
BRANCH   4  18
ATOM     18  C   UNL     1       7.911   8.673  17.887  0.00  0.00    +0.000 C 
ATOM     19  C   UNL     1       7.290   7.658  17.713  0.00  0.00    +0.000 C 
BRANCH  19  20
ATOM     20  C   UNL     1       6.479   6.488  17.578  0.00  0.00    +0.000 A 
ATOM     21  C   UNL     1       5.855   6.189  16.353  0.00  0.00    +0.000 A 
ATOM     22  C   UNL     1       5.052   5.050  16.223  0.00  0.00    +0.000 A 
ATOM     23  C   UNL     1       4.895   4.241  17.330  0.00  0.00    +0.000 A 
ATOM     24  C   UNL     1       5.502   4.534  18.527  0.00  0.00    +0.000 A 
ATOM     25  C   UNL     1       6.301   5.649  18.684  0.00  0.00    +0.000 A 
ATOM     26  O   UNL     1       5.220   3.616  19.492  0.00  0.00    +0.000 OA
ATOM     27  C   UNL     1       4.356   2.717  18.766  0.00  0.00    +0.000 C 
ATOM     28  O   UNL     1       4.154   3.102  17.389  0.00  0.00    +0.000 OA
ENDBRANCH  19  20
ENDBRANCH   4  18
TORSDOF 5
ENDMDL
