MODEL 1
REMARK VINA RESULT:      -8.1      0.000      0.000
REMARK  Name = 
REMARK  7 active torsions:
REMARK  status: ('A' for Active; 'I' for Inactive)
REMARK    1  A    between atoms: C_1  and  C_2
REMARK    2  A    between atoms: C_2  and  C_3
REMARK    3  A    between atoms: C_2  and  C_4
REMARK    4  A    between atoms: C_4  and  N_5
REMARK    5  A    between atoms: C_4  and  C_18
REMARK    6  A    between atoms: C_18  and  C_20
REMARK    7  A    between atoms: C_23  and  C_24
REMARK                            x       y       z     vdW  Elec       q    Type
REMARK                         _______ _______ _______ _____ _____    ______ ____
ROOT
ATOM      1  C   UNL     1       2.896   4.078  19.082  0.00  0.00    +0.000 C 
ENDROOT
BRANCH   1   2
ATOM      2  N   UNL     1       2.817   5.496  19.403  0.00  0.00    +0.000 N 
ATOM      3  C   UNL     1       2.341   6.458  18.555  0.00  0.00    +0.000 C 
ATOM      4  O   UNL     1       2.086   6.222  17.378  0.00  0.00    +0.000 OA
ATOM      5  N   UNL     1       2.131   7.694  19.145  0.00  0.00    +0.000 N 
ATOM      6  C   UNL     1       1.639   8.786  18.297  0.00  0.00    +0.000 C 
ATOM      7  C   UNL     1       1.597  10.151  18.995  0.00  0.00    +0.000 C 
ATOM      8  C   UNL     1       0.825  10.024  20.282  0.00  0.00    +0.000 A 
ATOM      9  C   UNL     1      -0.069  10.997  20.729  0.00  0.00    +0.000 A 
ATOM     10  C   UNL     1      -0.779  10.796  21.915  0.00  0.00    +0.000 A 
ATOM     11  C   UNL     1      -0.592   9.634  22.664  0.00  0.00    +0.000 A 
ATOM     12  C   UNL     1       0.318   8.673  22.235  0.00  0.00    +0.000 A 
ATOM     13  C   UNL     1       1.027   8.866  21.046  0.00  0.00    +0.000 A 
ATOM     14  C   UNL     1       2.042   7.853  20.596  0.00  0.00    +0.000 C 
ATOM     15  H   UNL     1       3.214   5.757  20.295  0.00  0.00    +0.000 HD
ENDBRANCH   1   2
BRANCH   1  17
ATOM     16  C   UNL     1       2.101   3.924  21.531  0.00  0.00    +0.000 C 
ATOM     17  C   UNL     1       2.200   3.220  20.169  0.00  0.00    +0.000 C 
ATOM     18  C   UNL     1       0.793   2.785  19.739  0.00  0.00    +0.000 C 
ENDBRANCH   1  17
BRANCH   1  19
ATOM     19  C   UNL     1       4.399   3.748  18.974  0.00  0.00    +0.000 C 
ATOM     20  O   UNL     1       4.997   3.200  19.906  0.00  0.00    +0.000 OA
BRANCH  19  21
ATOM     21  C   UNL     1       5.159   4.086  17.730  0.00  0.00    +0.000 A 
ATOM     22  C   UNL     1       4.602   3.978  16.451  0.00  0.00    +0.000 A 
ATOM     23  C   UNL     1       5.341   4.349  15.319  0.00  0.00    +0.000 A 
ATOM     24  C   UNL     1       6.652   4.821  15.448  0.00  0.00    +0.000 A 
ATOM     25  C   UNL     1       7.223   4.914  16.719  0.00  0.00    +0.000 A 
ATOM     26  C   UNL     1       6.482   4.546  17.854  0.00  0.00    +0.000 A 
BRANCH  24  27
ATOM     27  C   UNL     1       7.403   5.207  14.286  0.00  0.00    +0.000 C 
ATOM     28  N   UNL     1       8.010   5.532  13.345  0.00  0.00    +0.000 NA
ENDBRANCH  24  27
ENDBRANCH  19  21
ENDBRANCH   1  19
TORSDOF 5
ENDMDL
MODEL 2
REMARK VINA RESULT:      -8.0      1.419      1.636
REMARK  Name = 
REMARK  7 active torsions:
REMARK  status: ('A' for Active; 'I' for Inactive)
REMARK    1  A    between atoms: C_1  and  C_2
REMARK    2  A    between atoms: C_2  and  C_3
REMARK    3  A    between atoms: C_2  and  C_4
REMARK    4  A    between atoms: C_4  and  N_5
REMARK    5  A    between atoms: C_4  and  C_18
REMARK    6  A    between atoms: C_18  and  C_20
REMARK    7  A    between atoms: C_23  and  C_24
REMARK                            x       y       z     vdW  Elec       q    Type
REMARK                         _______ _______ _______ _____ _____    ______ ____
ROOT
ATOM      1  C   UNL     1       2.742   5.631  18.680  0.00  0.00    +0.000 C 
ENDROOT
BRANCH   1   2
ATOM      2  N   UNL     1       2.586   6.944  19.292  0.00  0.00    +0.000 N 
ATOM      3  C   UNL     1       2.063   8.037  18.658  0.00  0.00    +0.000 C 
ATOM      4  O   UNL     1       1.825   8.042  17.454  0.00  0.00    +0.000 OA
ATOM      5  N   UNL     1       1.783   9.107  19.492  0.00  0.00    +0.000 N 
ATOM      6  C   UNL     1       1.237  10.327  18.886  0.00  0.00    +0.000 C 
ATOM      7  C   UNL     1       1.119  11.510  19.856  0.00  0.00    +0.000 C 
ATOM      8  C   UNL     1       0.349  11.074  21.075  0.00  0.00    +0.000 A 
ATOM      9  C   UNL     1      -0.598  11.883  21.703  0.00  0.00    +0.000 A 
ATOM     10  C   UNL     1      -1.301  11.399  22.809  0.00  0.00    +0.000 A 
ATOM     11  C   UNL     1      -1.056  10.116  23.298  0.00  0.00    +0.000 A 
ATOM     12  C   UNL     1      -0.093   9.317  22.690  0.00  0.00    +0.000 A 
ATOM     13  C   UNL     1       0.610   9.793  21.580  0.00  0.00    +0.000 A 
ATOM     14  C   UNL     1       1.680   8.952  20.943  0.00  0.00    +0.000 C 
ATOM     15  H   UNL     1       2.964   7.030  20.225  0.00  0.00    +0.000 HD
ENDBRANCH   1   2
BRANCH   1  17
ATOM     16  C   UNL     1       1.312   5.076  20.753  0.00  0.00    +0.000 C 
ATOM     17  C   UNL     1       2.112   4.525  19.563  0.00  0.00    +0.000 C 
ATOM     18  C   UNL     1       1.201   3.595  18.751  0.00  0.00    +0.000 C 
ENDBRANCH   1  17
BRANCH   1  19
ATOM     19  C   UNL     1       4.260   5.421  18.502  0.00  0.00    +0.000 C 
ATOM     20  O   UNL     1       5.039   5.590  19.447  0.00  0.00    +0.000 OA
BRANCH  19  21
ATOM     21  C   UNL     1       4.815   5.005  17.177  0.00  0.00    +0.000 A 
ATOM     22  C   UNL     1       5.090   3.671  16.857  0.00  0.00    +0.000 A 
ATOM     23  C   UNL     1       5.569   3.327  15.585  0.00  0.00    +0.000 A 
ATOM     24  C   UNL     1       5.792   4.314  14.618  0.00  0.00    +0.000 A 
ATOM     25  C   UNL     1       5.539   5.650  14.934  0.00  0.00    +0.000 A 
ATOM     26  C   UNL     1       5.056   5.995  16.207  0.00  0.00    +0.000 A 
BRANCH  24  27
ATOM     27  C   UNL     1       6.275   3.957  13.314  0.00  0.00    +0.000 C 
ATOM     28  N   UNL     1       6.658   3.658  12.254  0.00  0.00    +0.000 NA
ENDBRANCH  24  27
ENDBRANCH  19  21
ENDBRANCH   1  19
TORSDOF 5
ENDMDL
MODEL 3
REMARK VINA RESULT:      -7.9      1.381      1.832
REMARK  Name = 
REMARK  7 active torsions:
REMARK  status: ('A' for Active; 'I' for Inactive)
REMARK    1  A    between atoms: C_1  and  C_2
REMARK    2  A    between atoms: C_2  and  C_3
REMARK    3  A    between atoms: C_2  and  C_4
REMARK    4  A    between atoms: C_4  and  N_5
REMARK    5  A    between atoms: C_4  and  C_18
REMARK    6  A    between atoms: C_18  and  C_20
REMARK    7  A    between atoms: C_23  and  C_24
REMARK                            x       y       z     vdW  Elec       q    Type
REMARK                         _______ _______ _______ _____ _____    ______ ____
ROOT
ATOM      1  C   UNL     1       2.433   5.773  18.708  0.00  0.00    +0.000 C 
ENDROOT
BRANCH   1   2
ATOM      2  N   UNL     1       2.337   7.084  19.336  0.00  0.00    +0.000 N 
ATOM      3  C   UNL     1       1.907   8.217  18.702  0.00  0.00    +0.000 C 
ATOM      4  O   UNL     1       1.717   8.255  17.490  0.00  0.00    +0.000 OA
ATOM      5  N   UNL     1       1.664   9.291  19.543  0.00  0.00    +0.000 N 
ATOM      6  C   UNL     1       1.218  10.552  18.937  0.00  0.00    +0.000 C 
ATOM      7  C   UNL     1       1.137  11.725  19.922  0.00  0.00    +0.000 C 
ATOM      8  C   UNL     1       0.296  11.321  21.104  0.00  0.00    +0.000 A 
ATOM      9  C   UNL     1      -0.622  12.178  21.710  0.00  0.00    +0.000 A 
ATOM     10  C   UNL     1      -1.395  11.724  22.781  0.00  0.00    +0.000 A 
ATOM     11  C   UNL     1      -1.250  10.421  23.257  0.00  0.00    +0.000 A 
ATOM     12  C   UNL     1      -0.316   9.571  22.672  0.00  0.00    +0.000 A 
ATOM     13  C   UNL     1       0.457  10.018  21.597  0.00  0.00    +0.000 A 
ATOM     14  C   UNL     1       1.495   9.121  20.986  0.00  0.00    +0.000 C 
ATOM     15  H   UNL     1       2.684   7.132  20.284  0.00  0.00    +0.000 HD
ENDBRANCH   1   2
BRANCH   1  17
ATOM     16  C   UNL     1       2.018   3.260  19.107  0.00  0.00    +0.000 C 
ATOM     17  C   UNL     1       1.696   4.697  19.544  0.00  0.00    +0.000 C 
ATOM     18  C   UNL     1       1.998   4.832  21.043  0.00  0.00    +0.000 C 
ENDBRANCH   1  17
BRANCH   1  19
ATOM     19  C   UNL     1       3.941   5.467  18.590  0.00  0.00    +0.000 C 
ATOM     20  O   UNL     1       4.669   5.468  19.588  0.00  0.00    +0.000 OA
BRANCH  19  21
ATOM     21  C   UNL     1       4.548   5.161  17.257  0.00  0.00    +0.000 A 
ATOM     22  C   UNL     1       4.854   6.154  16.320  0.00  0.00    +0.000 A 
ATOM     23  C   UNL     1       5.462   5.821  15.102  0.00  0.00    +0.000 A 
ATOM     24  C   UNL     1       5.763   4.489  14.797  0.00  0.00    +0.000 A 
ATOM     25  C   UNL     1       5.444   3.488  15.718  0.00  0.00    +0.000 A 
ATOM     26  C   UNL     1       4.837   3.822  16.940  0.00  0.00    +0.000 A 
BRANCH  24  27
ATOM     27  C   UNL     1       6.393   4.153  13.552  0.00  0.00    +0.000 C 
ATOM     28  N   UNL     1       6.915   3.888  12.543  0.00  0.00    +0.000 NA
ENDBRANCH  24  27
ENDBRANCH  19  21
ENDBRANCH   1  19
TORSDOF 5
ENDMDL
MODEL 4
REMARK VINA RESULT:      -7.3      2.093      7.315
REMARK  Name = 
REMARK  7 active torsions:
REMARK  status: ('A' for Active; 'I' for Inactive)
REMARK    1  A    between atoms: C_1  and  C_2
REMARK    2  A    between atoms: C_2  and  C_3
REMARK    3  A    between atoms: C_2  and  C_4
REMARK    4  A    between atoms: C_4  and  N_5
REMARK    5  A    between atoms: C_4  and  C_18
REMARK    6  A    between atoms: C_18  and  C_20
REMARK    7  A    between atoms: C_23  and  C_24
REMARK                            x       y       z     vdW  Elec       q    Type
REMARK                         _______ _______ _______ _____ _____    ______ ____
ROOT
ATOM      1  C   UNL     1       3.233   3.342  19.569  0.00  0.00    +0.000 C 
ENDROOT
BRANCH   1   2
ATOM      2  N   UNL     1       3.898   4.077  18.502  0.00  0.00    +0.000 N 
ATOM      3  C   UNL     1       5.248   4.280  18.425  0.00  0.00    +0.000 C 
ATOM      4  O   UNL     1       6.005   3.992  19.347  0.00  0.00    +0.000 OA
ATOM      5  N   UNL     1       5.686   4.790  17.213  0.00  0.00    +0.000 N 
ATOM      6  C   UNL     1       7.121   5.055  17.057  0.00  0.00    +0.000 C 
ATOM      7  C   UNL     1       7.487   5.772  15.751  0.00  0.00    +0.000 C 
ATOM      8  C   UNL     1       6.910   5.006  14.589  0.00  0.00    +0.000 A 
ATOM      9  C   UNL     1       7.597   4.813  13.392  0.00  0.00    +0.000 A 
ATOM     10  C   UNL     1       7.015   4.061  12.369  0.00  0.00    +0.000 A 
ATOM     11  C   UNL     1       5.743   3.510  12.531  0.00  0.00    +0.000 A 
ATOM     12  C   UNL     1       5.043   3.724  13.715  0.00  0.00    +0.000 A 
ATOM     13  C   UNL     1       5.623   4.470  14.744  0.00  0.00    +0.000 A 
ATOM     14  C   UNL     1       4.858   4.740  16.008  0.00  0.00    +0.000 C 
ATOM     15  H   UNL     1       3.280   4.508  17.829  0.00  0.00    +0.000 HD
ENDBRANCH   1   2
BRANCH   1  17
ATOM     16  C   UNL     1       0.739   2.812  19.181  0.00  0.00    +0.000 C 
ATOM     17  C   UNL     1       2.192   2.347  18.998  0.00  0.00    +0.000 C 
ATOM     18  C   UNL     1       2.431   2.061  17.510  0.00  0.00    +0.000 C 
ENDBRANCH   1  17
BRANCH   1  19
ATOM     19  C   UNL     1       2.569   4.404  20.470  0.00  0.00    +0.000 C 
ATOM     20  O   UNL     1       2.235   4.134  21.628  0.00  0.00    +0.000 OA
BRANCH  19  21
ATOM     21  C   UNL     1       2.321   5.786  19.952  0.00  0.00    +0.000 A 
ATOM     22  C   UNL     1       2.499   6.133  18.608  0.00  0.00    +0.000 A 
ATOM     23  C   UNL     1       2.211   7.430  18.163  0.00  0.00    +0.000 A 
ATOM     24  C   UNL     1       1.751   8.404  19.058  0.00  0.00    +0.000 A 
ATOM     25  C   UNL     1       1.588   8.072  20.404  0.00  0.00    +0.000 A 
ATOM     26  C   UNL     1       1.873   6.771  20.850  0.00  0.00    +0.000 A 
BRANCH  24  27
ATOM     27  C   UNL     1       1.450   9.730  18.596  0.00  0.00    +0.000 C 
ATOM     28  N   UNL     1       1.197  10.808  18.231  0.00  0.00    +0.000 NA
ENDBRANCH  24  27
ENDBRANCH  19  21
ENDBRANCH   1  19
TORSDOF 5
ENDMDL
MODEL 5
REMARK VINA RESULT:      -7.1      4.410      7.005
REMARK  Name = 
REMARK  7 active torsions:
REMARK  status: ('A' for Active; 'I' for Inactive)
REMARK    1  A    between atoms: C_1  and  C_2
REMARK    2  A    between atoms: C_2  and  C_3
REMARK    3  A    between atoms: C_2  and  C_4
REMARK    4  A    between atoms: C_4  and  N_5
REMARK    5  A    between atoms: C_4  and  C_18
REMARK    6  A    between atoms: C_18  and  C_20
REMARK    7  A    between atoms: C_23  and  C_24
REMARK                            x       y       z     vdW  Elec       q    Type
REMARK                         _______ _______ _______ _____ _____    ______ ____
ROOT
ATOM      1  C   UNL     1       0.344  10.455  18.931  0.00  0.00    +0.000 C 
ENDROOT
BRANCH   1   2
ATOM      2  N   UNL     1       0.775  11.822  19.185  0.00  0.00    +0.000 N 
ATOM      3  C   UNL     1       1.835  12.428  18.570  0.00  0.00    +0.000 C 
ATOM      4  O   UNL     1       2.621  11.806  17.860  0.00  0.00    +0.000 OA
ATOM      5  N   UNL     1       1.918  13.795  18.777  0.00  0.00    +0.000 N 
ATOM      6  C   UNL     1       3.041  14.517  18.167  0.00  0.00    +0.000 C 
ATOM      7  C   UNL     1       3.143  15.988  18.588  0.00  0.00    +0.000 C 
ATOM      8  C   UNL     1       1.820  16.664  18.345  0.00  0.00    +0.000 A 
ATOM      9  C   UNL     1       1.711  17.958  17.835  0.00  0.00    +0.000 A 
ATOM     10  C   UNL     1       0.449  18.509  17.602  0.00  0.00    +0.000 A 
ATOM     11  C   UNL     1      -0.706  17.780  17.885  0.00  0.00    +0.000 A 
ATOM     12  C   UNL     1      -0.602  16.499  18.419  0.00  0.00    +0.000 A 
ATOM     13  C   UNL     1       0.658  15.940  18.650  0.00  0.00    +0.000 A 
ATOM     14  C   UNL     1       0.780  14.574  19.263  0.00  0.00    +0.000 C 
ATOM     15  H   UNL     1       0.273  12.300  19.920  0.00  0.00    +0.000 HD
ENDBRANCH   1   2
BRANCH   1  17
ATOM     16  C   UNL     1      -1.908  11.632  19.371  0.00  0.00    +0.000 C 
ATOM     17  C   UNL     1      -1.201  10.352  18.899  0.00  0.00    +0.000 C 
ATOM     18  C   UNL     1      -1.722   9.993  17.502  0.00  0.00    +0.000 C 
ENDBRANCH   1  17
BRANCH   1  19
ATOM     19  C   UNL     1       0.948   9.600  20.065  0.00  0.00    +0.000 C 
ATOM     20  O   UNL     1       0.910   9.985  21.238  0.00  0.00    +0.000 OA
BRANCH  19  21
ATOM     21  C   UNL     1       1.590   8.283  19.759  0.00  0.00    +0.000 A 
ATOM     22  C   UNL     1       1.564   7.205  20.651  0.00  0.00    +0.000 A 
ATOM     23  C   UNL     1       2.142   5.977  20.300  0.00  0.00    +0.000 A 
ATOM     24  C   UNL     1       2.765   5.812  19.058  0.00  0.00    +0.000 A 
ATOM     25  C   UNL     1       2.813   6.888  18.169  0.00  0.00    +0.000 A 
ATOM     26  C   UNL     1       2.230   8.118  18.518  0.00  0.00    +0.000 A 
BRANCH  24  27
ATOM     27  C   UNL     1       3.350   4.551  18.700  0.00  0.00    +0.000 C 
ATOM     28  N   UNL     1       3.815   3.519  18.417  0.00  0.00    +0.000 NA
ENDBRANCH  24  27
ENDBRANCH  19  21
ENDBRANCH   1  19
TORSDOF 5
ENDMDL
MODEL 6
REMARK VINA RESULT:      -7.1      2.057      7.629
REMARK  Name = 
REMARK  7 active torsions:
REMARK  status: ('A' for Active; 'I' for Inactive)
REMARK    1  A    between atoms: C_1  and  C_2
REMARK    2  A    between atoms: C_2  and  C_3
REMARK    3  A    between atoms: C_2  and  C_4
REMARK    4  A    between atoms: C_4  and  N_5
REMARK    5  A    between atoms: C_4  and  C_18
REMARK    6  A    between atoms: C_18  and  C_20
REMARK    7  A    between atoms: C_23  and  C_24
REMARK                            x       y       z     vdW  Elec       q    Type
REMARK                         _______ _______ _______ _____ _____    ______ ____
ROOT
ATOM      1  C   UNL     1       3.569   4.021  19.428  0.00  0.00    +0.000 C 
ENDROOT
BRANCH   1   2
ATOM      2  N   UNL     1       4.209   4.565  18.238  0.00  0.00    +0.000 N 
ATOM      3  C   UNL     1       5.561   4.601  18.033  0.00  0.00    +0.000 C 
ATOM      4  O   UNL     1       6.364   4.318  18.918  0.00  0.00    +0.000 OA
ATOM      5  N   UNL     1       5.939   4.934  16.742  0.00  0.00    +0.000 N 
ATOM      6  C   UNL     1       7.375   5.013  16.445  0.00  0.00    +0.000 C 
ATOM      7  C   UNL     1       7.696   5.550  15.044  0.00  0.00    +0.000 C 
ATOM      8  C   UNL     1       6.935   4.746  14.022  0.00  0.00    +0.000 A 
ATOM      9  C   UNL     1       7.487   4.357  12.801  0.00  0.00    +0.000 A 
ATOM     10  C   UNL     1       6.735   3.581  11.915  0.00  0.00    +0.000 A 
ATOM     11  C   UNL     1       5.432   3.202  12.236  0.00  0.00    +0.000 A 
ATOM     12  C   UNL     1       4.869   3.611  13.442  0.00  0.00    +0.000 A 
ATOM     13  C   UNL     1       5.618   4.382  14.335  0.00  0.00    +0.000 A 
ATOM     14  C   UNL     1       5.005   4.862  15.620  0.00  0.00    +0.000 C 
ATOM     15  H   UNL     1       3.583   4.998  17.574  0.00  0.00    +0.000 HD
ENDBRANCH   1   2
BRANCH   1  17
ATOM     16  C   UNL     1       3.462   1.948  17.898  0.00  0.00    +0.000 C 
ATOM     17  C   UNL     1       3.443   2.480  19.339  0.00  0.00    +0.000 C 
ATOM     18  C   UNL     1       4.543   1.769  20.138  0.00  0.00    +0.000 C 
ENDBRANCH   1  17
BRANCH   1  19
ATOM     19  C   UNL     1       2.187   4.701  19.517  0.00  0.00    +0.000 C 
ATOM     20  O   UNL     1       1.170   4.042  19.761  0.00  0.00    +0.000 OA
BRANCH  19  21
ATOM     21  C   UNL     1       2.055   6.177  19.310  0.00  0.00    +0.000 A 
ATOM     22  C   UNL     1       2.225   6.783  18.060  0.00  0.00    +0.000 A 
ATOM     23  C   UNL     1       2.048   8.165  17.909  0.00  0.00    +0.000 A 
ATOM     24  C   UNL     1       1.711   8.964  19.008  0.00  0.00    +0.000 A 
ATOM     25  C   UNL     1       1.558   8.371  20.263  0.00  0.00    +0.000 A 
ATOM     26  C   UNL     1       1.731   6.986  20.414  0.00  0.00    +0.000 A 
BRANCH  24  27
ATOM     27  C   UNL     1       1.523  10.378  18.846  0.00  0.00    +0.000 C 
ATOM     28  N   UNL     1       1.365  11.525  18.704  0.00  0.00    +0.000 NA
ENDBRANCH  24  27
ENDBRANCH  19  21
ENDBRANCH   1  19
TORSDOF 5
ENDMDL
MODEL 7
REMARK VINA RESULT:      -6.9      2.069      7.446
REMARK  Name = 
REMARK  7 active torsions:
REMARK  status: ('A' for Active; 'I' for Inactive)
REMARK    1  A    between atoms: C_1  and  C_2
REMARK    2  A    between atoms: C_2  and  C_3
REMARK    3  A    between atoms: C_2  and  C_4
REMARK    4  A    between atoms: C_4  and  N_5
REMARK    5  A    between atoms: C_4  and  C_18
REMARK    6  A    between atoms: C_18  and  C_20
REMARK    7  A    between atoms: C_23  and  C_24
REMARK                            x       y       z     vdW  Elec       q    Type
REMARK                         _______ _______ _______ _____ _____    ______ ____
ROOT
ATOM      1  C   UNL     1       3.516   3.998  19.784  0.00  0.00    +0.000 C 
ENDROOT
BRANCH   1   2
ATOM      2  N   UNL     1       4.125   4.606  18.609  0.00  0.00    +0.000 N 
ATOM      3  C   UNL     1       5.470   4.779  18.435  0.00  0.00    +0.000 C 
ATOM      4  O   UNL     1       6.277   4.578  19.339  0.00  0.00    +0.000 OA
ATOM      5  N   UNL     1       5.843   5.150  17.154  0.00  0.00    +0.000 N 
ATOM      6  C   UNL     1       7.269   5.375  16.890  0.00  0.00    +0.000 C 
ATOM      7  C   UNL     1       7.567   5.944  15.497  0.00  0.00    +0.000 C 
ATOM      8  C   UNL     1       6.916   5.069  14.457  0.00  0.00    +0.000 A 
ATOM      9  C   UNL     1       7.532   4.739  13.250  0.00  0.00    +0.000 A 
ATOM     10  C   UNL     1       6.884   3.893  12.348  0.00  0.00    +0.000 A 
ATOM     11  C   UNL     1       5.619   3.382  12.639  0.00  0.00    +0.000 A 
ATOM     12  C   UNL     1       4.990   3.730  13.830  0.00  0.00    +0.000 A 
ATOM     13  C   UNL     1       5.635   4.573  14.740  0.00  0.00    +0.000 A 
ATOM     14  C   UNL     1       4.947   4.986  16.009  0.00  0.00    +0.000 C 
ATOM     15  H   UNL     1       3.473   4.973  17.930  0.00  0.00    +0.000 HD
ENDBRANCH   1   2
BRANCH   1  17
ATOM     16  C   UNL     1       3.236   2.017  18.157  0.00  0.00    +0.000 C 
ATOM     17  C   UNL     1       3.393   2.463  19.619  0.00  0.00    +0.000 C 
ATOM     18  C   UNL     1       4.591   1.724  20.230  0.00  0.00    +0.000 C 
ENDBRANCH   1  17
BRANCH   1  19
ATOM     19  C   UNL     1       2.133   4.666  19.941  0.00  0.00    +0.000 C 
ATOM     20  O   UNL     1       1.150   4.010  20.302  0.00  0.00    +0.000 OA
BRANCH  19  21
ATOM     21  C   UNL     1       1.962   6.125  19.660  0.00  0.00    +0.000 A 
ATOM     22  C   UNL     1       1.588   7.046  20.644  0.00  0.00    +0.000 A 
ATOM     23  C   UNL     1       1.482   8.410  20.341  0.00  0.00    +0.000 A 
ATOM     24  C   UNL     1       1.739   8.873  19.045  0.00  0.00    +0.000 A 
ATOM     25  C   UNL     1       2.094   7.959  18.051  0.00  0.00    +0.000 A 
ATOM     26  C   UNL     1       2.203   6.592  18.355  0.00  0.00    +0.000 A 
BRANCH  24  27
ATOM     27  C   UNL     1       1.637  10.272  18.740  0.00  0.00    +0.000 C 
ATOM     28  N   UNL     1       1.567  11.410  18.491  0.00  0.00    +0.000 NA
ENDBRANCH  24  27
ENDBRANCH  19  21
ENDBRANCH   1  19
TORSDOF 5
ENDMDL
MODEL 8
REMARK VINA RESULT:      -6.9      4.312      6.795
REMARK  Name = 
REMARK  7 active torsions:
REMARK  status: ('A' for Active; 'I' for Inactive)
REMARK    1  A    between atoms: C_1  and  C_2
REMARK    2  A    between atoms: C_2  and  C_3
REMARK    3  A    between atoms: C_2  and  C_4
REMARK    4  A    between atoms: C_4  and  N_5
REMARK    5  A    between atoms: C_4  and  C_18
REMARK    6  A    between atoms: C_18  and  C_20
REMARK    7  A    between atoms: C_23  and  C_24
REMARK                            x       y       z     vdW  Elec       q    Type
REMARK                         _______ _______ _______ _____ _____    ______ ____
ROOT
ATOM      1  C   UNL     1      -0.293  10.053  20.382  0.00  0.00    +0.000 C 
ENDROOT
BRANCH   1   2
ATOM      2  N   UNL     1      -1.303  10.873  19.727  0.00  0.00    +0.000 N 
ATOM      3  C   UNL     1      -2.059  10.468  18.661  0.00  0.00    +0.000 C 
ATOM      4  O   UNL     1      -1.832   9.421  18.061  0.00  0.00    +0.000 OA
ATOM      5  N   UNL     1      -3.117  11.307  18.353  0.00  0.00    +0.000 N 
ATOM      6  C   UNL     1      -3.966  10.951  17.209  0.00  0.00    +0.000 C 
ATOM      7  C   UNL     1      -5.003  12.021  16.843  0.00  0.00    +0.000 C 
ATOM      8  C   UNL     1      -5.802  12.375  18.069  0.00  0.00    +0.000 A 
ATOM      9  C   UNL     1      -7.178  12.598  18.039  0.00  0.00    +0.000 A 
ATOM     10  C   UNL     1      -7.861  12.887  19.223  0.00  0.00    +0.000 A 
ATOM     11  C   UNL     1      -7.176  12.965  20.435  0.00  0.00    +0.000 A 
ATOM     12  C   UNL     1      -5.799  12.768  20.465  0.00  0.00    +0.000 A 
ATOM     13  C   UNL     1      -5.110  12.474  19.285  0.00  0.00    +0.000 A 
ATOM     14  C   UNL     1      -3.618  12.301  19.302  0.00  0.00    +0.000 C 
ATOM     15  H   UNL     1      -1.372  11.822  20.067  0.00  0.00    +0.000 HD
ENDBRANCH   1   2
BRANCH   1  17
ATOM     16  C   UNL     1      -0.961  11.682  22.266  0.00  0.00    +0.000 C 
ATOM     17  C   UNL     1      -0.032  10.539  21.829  0.00  0.00    +0.000 C 
ATOM     18  C   UNL     1      -0.150   9.396  22.846  0.00  0.00    +0.000 C 
ENDBRANCH   1  17
BRANCH   1  19
ATOM     19  C   UNL     1       0.975  10.160  19.509  0.00  0.00    +0.000 C 
ATOM     20  O   UNL     1       1.411  11.261  19.155  0.00  0.00    +0.000 OA
BRANCH  19  21
ATOM     21  C   UNL     1       1.701   8.926  19.076  0.00  0.00    +0.000 A 
ATOM     22  C   UNL     1       2.295   8.800  17.816  0.00  0.00    +0.000 A 
ATOM     23  C   UNL     1       3.002   7.640  17.473  0.00  0.00    +0.000 A 
ATOM     24  C   UNL     1       3.117   6.582  18.382  0.00  0.00    +0.000 A 
ATOM     25  C   UNL     1       2.512   6.689  19.636  0.00  0.00    +0.000 A 
ATOM     26  C   UNL     1       1.806   7.854  19.981  0.00  0.00    +0.000 A 
BRANCH  24  27
ATOM     27  C   UNL     1       3.848   5.398  18.030  0.00  0.00    +0.000 C 
ATOM     28  N   UNL     1       4.441   4.438  17.732  0.00  0.00    +0.000 NA
ENDBRANCH  24  27
ENDBRANCH  19  21
ENDBRANCH   1  19
TORSDOF 5
ENDMDL
MODEL 9
REMARK VINA RESULT:      -6.8      2.768      9.142
REMARK  Name = 
REMARK  7 active torsions:
REMARK  status: ('A' for Active; 'I' for Inactive)
REMARK    1  A    between atoms: C_1  and  C_2
REMARK    2  A    between atoms: C_2  and  C_3
REMARK    3  A    between atoms: C_2  and  C_4
REMARK    4  A    between atoms: C_4  and  N_5
REMARK    5  A    between atoms: C_4  and  C_18
REMARK    6  A    between atoms: C_18  and  C_20
REMARK    7  A    between atoms: C_23  and  C_24
REMARK                            x       y       z     vdW  Elec       q    Type
REMARK                         _______ _______ _______ _____ _____    ______ ____
ROOT
ATOM      1  C   UNL     1       0.732   8.929  20.253  0.00  0.00    +0.000 C 
ENDROOT
BRANCH   1   2
ATOM      2  N   UNL     1       1.912   8.116  19.999  0.00  0.00    +0.000 N 
ATOM      3  C   UNL     1       1.954   6.754  20.112  0.00  0.00    +0.000 C 
ATOM      4  O   UNL     1       1.029   6.110  20.599  0.00  0.00    +0.000 OA
ATOM      5  N   UNL     1       3.097   6.167  19.592  0.00  0.00    +0.000 N 
ATOM      6  C   UNL     1       3.227   4.708  19.693  0.00  0.00    +0.000 C 
ATOM      7  C   UNL     1       4.592   4.169  19.245  0.00  0.00    +0.000 C 
ATOM      8  C   UNL     1       4.898   4.685  17.864  0.00  0.00    +0.000 A 
ATOM      9  C   UNL     1       5.494   3.900  16.876  0.00  0.00    +0.000 A 
ATOM     10  C   UNL     1       5.716   4.434  15.605  0.00  0.00    +0.000 A 
ATOM     11  C   UNL     1       5.356   5.750  15.316  0.00  0.00    +0.000 A 
ATOM     12  C   UNL     1       4.785   6.544  16.307  0.00  0.00    +0.000 A 
ATOM     13  C   UNL     1       4.556   6.014  17.580  0.00  0.00    +0.000 A 
ATOM     14  C   UNL     1       3.978   6.876  18.666  0.00  0.00    +0.000 C 
ATOM     15  H   UNL     1       2.755   8.635  19.794  0.00  0.00    +0.000 HD
ENDBRANCH   1   2
BRANCH   1  17
ATOM     16  C   UNL     1       1.384   9.709  17.883  0.00  0.00    +0.000 C 
ATOM     17  C   UNL     1       0.513   9.965  19.122  0.00  0.00    +0.000 C 
ATOM     18  C   UNL     1      -0.956  10.030  18.683  0.00  0.00    +0.000 C 
ENDBRANCH   1  17
BRANCH   1  19
ATOM     19  C   UNL     1       0.972   9.616  21.614  0.00  0.00    +0.000 C 
ATOM     20  O   UNL     1       1.889   9.249  22.357  0.00  0.00    +0.000 OA
BRANCH  19  21
ATOM     21  C   UNL     1       0.095  10.744  22.057  0.00  0.00    +0.000 A 
ATOM     22  C   UNL     1       0.291  12.064  21.637  0.00  0.00    +0.000 A 
ATOM     23  C   UNL     1      -0.585  13.079  22.046  0.00  0.00    +0.000 A 
ATOM     24  C   UNL     1      -1.664  12.791  22.890  0.00  0.00    +0.000 A 
ATOM     25  C   UNL     1      -1.857  11.480  23.329  0.00  0.00    +0.000 A 
ATOM     26  C   UNL     1      -0.982  10.462  22.917  0.00  0.00    +0.000 A 
BRANCH  24  27
ATOM     27  C   UNL     1      -2.563  13.833  23.299  0.00  0.00    +0.000 C 
ATOM     28  N   UNL     1      -3.301  14.677  23.621  0.00  0.00    +0.000 NA
ENDBRANCH  24  27
ENDBRANCH  19  21
ENDBRANCH   1  19
TORSDOF 5
ENDMDL
