MODEL 1
REMARK VINA RESULT:      -5.0      0.000      0.000
REMARK  Name = 
REMARK  10 active torsions:
REMARK  status: ('A' for Active; 'I' for Inactive)
REMARK    1  A    between atoms: C_1  and  O_2
REMARK    2  A    between atoms: O_2  and  N_3
REMARK    3  A    between atoms: C_4  and  C_5
REMARK    4  A    between atoms: C_4  and  C_6
REMARK    5  A    between atoms: C_6  and  C_7
REMARK    6  A    between atoms: C_7  and  C_8
REMARK    7  A    between atoms: C_9  and  C_10
REMARK    8  A    between atoms: C_10  and  N_11
REMARK    9  A    between atoms: N_11  and  C_12
REMARK   10  A    between atoms: N_11  and  C_13
REMARK                            x       y       z     vdW  Elec       q    Type
REMARK                         _______ _______ _______ _____ _____    ______ ____
ROOT
ATOM      1  C   UNL     1       7.326   7.252  17.292  0.00  0.00    +0.000 C 
ENDROOT
BRANCH   1   2
ATOM      2  C   UNL     1       8.051   8.458  17.869  0.00  0.00    +0.000 C 
ATOM      3  C   UNL     1       8.673   9.492  18.363  0.00  0.00    +0.000 C 
BRANCH   3   4
ATOM      4  C   UNL     1       9.398  10.698  18.939  0.00  0.00    +0.000 C 
BRANCH   4   5
ATOM      5  N   UNL     1       9.826  11.611  17.865  0.00  0.00    +0.000 NA
ATOM      6  C   UNL     1       8.905  12.742  17.707  0.00  0.00    +0.000 C 
ATOM      7  C   UNL     1      11.172  12.107  18.140  0.00  0.00    +0.000 C 
ENDBRANCH   4   5
ENDBRANCH   3   4
ENDBRANCH   1   2
BRANCH   1   8
ATOM      8  C   UNL     1       7.344   6.067  18.252  0.00  0.00    +0.000 C 
BRANCH   8  10
ATOM      9  N   UNL     1       5.815   4.510  19.308  0.00  0.00    +0.000 NA
ATOM     10  C   UNL     1       5.945   5.517  18.494  0.00  0.00    +0.000 C 
ATOM     11  C   UNL     1       4.801   6.188  17.762  0.00  0.00    +0.000 C 
BRANCH   9  13
ATOM     12  C   UNL     1       4.408   2.719  19.640  0.00  0.00    +0.000 C 
ATOM     13  O   UNL     1       4.474   4.127  19.450  0.00  0.00    +0.000 OA
ENDBRANCH   9  13
ENDBRANCH   8  10
ENDBRANCH   1   8
TORSDOF 6
ENDMDL
MODEL 2
REMARK VINA RESULT:      -5.0      4.080      5.589
REMARK  Name = 
REMARK  10 active torsions:
REMARK  status: ('A' for Active; 'I' for Inactive)
REMARK    1  A    between atoms: C_1  and  O_2
REMARK    2  A    between atoms: O_2  and  N_3
REMARK    3  A    between atoms: C_4  and  C_5
REMARK    4  A    between atoms: C_4  and  C_6
REMARK    5  A    between atoms: C_6  and  C_7
REMARK    6  A    between atoms: C_7  and  C_8
REMARK    7  A    between atoms: C_9  and  C_10
REMARK    8  A    between atoms: C_10  and  N_11
REMARK    9  A    between atoms: N_11  and  C_12
REMARK   10  A    between atoms: N_11  and  C_13
REMARK                            x       y       z     vdW  Elec       q    Type
REMARK                         _______ _______ _______ _____ _____    ______ ____
ROOT
ATOM      1  C   UNL     1       2.541   5.814  17.902  0.00  0.00    +0.000 C 
ENDROOT
BRANCH   1   2
ATOM      2  C   UNL     1       3.996   6.159  17.628  0.00  0.00    +0.000 C 
ATOM      3  C   UNL     1       5.244   6.456  17.394  0.00  0.00    +0.000 C 
BRANCH   3   4
ATOM      4  C   UNL     1       6.699   6.801  17.121  0.00  0.00    +0.000 C 
BRANCH   4   5
ATOM      5  N   UNL     1       7.437   5.615  16.651  0.00  0.00    +0.000 NA
ATOM      6  C   UNL     1       7.551   4.590  17.695  0.00  0.00    +0.000 C 
ATOM      7  C   UNL     1       6.775   5.051  15.477  0.00  0.00    +0.000 C 
ENDBRANCH   4   5
ENDBRANCH   3   4
ENDBRANCH   1   2
BRANCH   1   8
ATOM      8  C   UNL     1       2.249   4.339  17.644  0.00  0.00    +0.000 C 
BRANCH   8  10
ATOM      9  N   UNL     1       1.776   4.246  20.020  0.00  0.00    +0.000 NA
ATOM     10  C   UNL     1       1.635   3.665  18.864  0.00  0.00    +0.000 C 
ATOM     11  C   UNL     1       0.902   2.359  18.637  0.00  0.00    +0.000 C 
BRANCH   9  13
ATOM     12  C   UNL     1       2.126   3.025  21.939  0.00  0.00    +0.000 C 
ATOM     13  O   UNL     1       1.142   3.526  21.043  0.00  0.00    +0.000 OA
ENDBRANCH   9  13
ENDBRANCH   8  10
ENDBRANCH   1   8
TORSDOF 6
ENDMDL
MODEL 3
REMARK VINA RESULT:      -4.9      2.175      2.775
REMARK  Name = 
REMARK  10 active torsions:
REMARK  status: ('A' for Active; 'I' for Inactive)
REMARK    1  A    between atoms: C_1  and  O_2
REMARK    2  A    between atoms: O_2  and  N_3
REMARK    3  A    between atoms: C_4  and  C_5
REMARK    4  A    between atoms: C_4  and  C_6
REMARK    5  A    between atoms: C_6  and  C_7
REMARK    6  A    between atoms: C_7  and  C_8
REMARK    7  A    between atoms: C_9  and  C_10
REMARK    8  A    between atoms: C_10  and  N_11
REMARK    9  A    between atoms: N_11  and  C_12
REMARK   10  A    between atoms: N_11  and  C_13
REMARK                            x       y       z     vdW  Elec       q    Type
REMARK                         _______ _______ _______ _____ _____    ______ ____
ROOT
ATOM      1  C   UNL     1       7.897   8.657  17.668  0.00  0.00    +0.000 C 
ENDROOT
BRANCH   1   2
ATOM      2  C   UNL     1       8.728   9.652  18.462  0.00  0.00    +0.000 C 
ATOM      3  C   UNL     1       9.440  10.506  19.142  0.00  0.00    +0.000 C 
BRANCH   3   4
ATOM      4  C   UNL     1      10.272  11.502  19.935  0.00  0.00    +0.000 C 
BRANCH   4   5
ATOM      5  N   UNL     1      10.777  12.574  19.059  0.00  0.00    +0.000 NA
ATOM      6  C   UNL     1      11.509  13.598  19.812  0.00  0.00    +0.000 C 
ATOM      7  C   UNL     1      11.643  12.007  18.029  0.00  0.00    +0.000 C 
ENDBRANCH   4   5
ENDBRANCH   3   4
ENDBRANCH   1   2
BRANCH   1   8
ATOM      8  C   UNL     1       8.007   7.245  18.236  0.00  0.00    +0.000 C 
BRANCH   8  10
ATOM      9  N   UNL     1       7.120   6.279  16.197  0.00  0.00    +0.000 NA
ATOM     10  C   UNL     1       7.101   6.269  17.498  0.00  0.00    +0.000 C 
ATOM     11  C   UNL     1       6.237   5.353  18.341  0.00  0.00    +0.000 C 
BRANCH   9  13
ATOM     12  C   UNL     1       6.968   4.527  14.713  0.00  0.00    +0.000 C 
ATOM     13  O   UNL     1       6.256   5.316  15.658  0.00  0.00    +0.000 OA
ENDBRANCH   9  13
ENDBRANCH   8  10
ENDBRANCH   1   8
TORSDOF 6
ENDMDL
MODEL 4
REMARK VINA RESULT:      -4.9      3.835      7.855
REMARK  Name = 
REMARK  10 active torsions:
REMARK  status: ('A' for Active; 'I' for Inactive)
REMARK    1  A    between atoms: C_1  and  O_2
REMARK    2  A    between atoms: O_2  and  N_3
REMARK    3  A    between atoms: C_4  and  C_5
REMARK    4  A    between atoms: C_4  and  C_6
REMARK    5  A    between atoms: C_6  and  C_7
REMARK    6  A    between atoms: C_7  and  C_8
REMARK    7  A    between atoms: C_9  and  C_10
REMARK    8  A    between atoms: C_10  and  N_11
REMARK    9  A    between atoms: N_11  and  C_12
REMARK   10  A    between atoms: N_11  and  C_13
REMARK                            x       y       z     vdW  Elec       q    Type
REMARK                         _______ _______ _______ _____ _____    ______ ____
ROOT
ATOM      1  C   UNL     1       8.617  10.333  18.127  0.00  0.00    +0.000 C 
ENDROOT
BRANCH   1   2
ATOM      2  C   UNL     1       8.158   8.899  17.914  0.00  0.00    +0.000 C 
ATOM      3  C   UNL     1       7.763   7.671  17.731  0.00  0.00    +0.000 C 
BRANCH   3   4
ATOM      4  C   UNL     1       7.303   6.237  17.517  0.00  0.00    +0.000 C 
BRANCH   4   5
ATOM      5  N   UNL     1       6.727   6.069  16.171  0.00  0.00    +0.000 NA
ATOM      6  C   UNL     1       6.957   4.721  15.640  0.00  0.00    +0.000 C 
ATOM      7  C   UNL     1       5.294   6.348  16.205  0.00  0.00    +0.000 C 
ENDBRANCH   4   5
ENDBRANCH   3   4
ENDBRANCH   1   2
BRANCH   1   8
ATOM      8  C   UNL     1       9.577  10.451  19.307  0.00  0.00    +0.000 C 
BRANCH   8  10
ATOM      9  N   UNL     1       9.809  12.810  18.794  0.00  0.00    +0.000 NA
ATOM     10  C   UNL     1      10.392  11.737  19.243  0.00  0.00    +0.000 C 
ATOM     11  C   UNL     1      11.832  11.667  19.710  0.00  0.00    +0.000 C 
BRANCH   9  13
ATOM     12  C   UNL     1      10.057  14.997  18.124  0.00  0.00    +0.000 C 
ATOM     13  O   UNL     1      10.671  13.915  18.813  0.00  0.00    +0.000 OA
ENDBRANCH   9  13
ENDBRANCH   8  10
ENDBRANCH   1   8
TORSDOF 6
ENDMDL
MODEL 5
REMARK VINA RESULT:      -4.9      1.019      1.182
REMARK  Name = 
REMARK  10 active torsions:
REMARK  status: ('A' for Active; 'I' for Inactive)
REMARK    1  A    between atoms: C_1  and  O_2
REMARK    2  A    between atoms: O_2  and  N_3
REMARK    3  A    between atoms: C_4  and  C_5
REMARK    4  A    between atoms: C_4  and  C_6
REMARK    5  A    between atoms: C_6  and  C_7
REMARK    6  A    between atoms: C_7  and  C_8
REMARK    7  A    between atoms: C_9  and  C_10
REMARK    8  A    between atoms: C_10  and  N_11
REMARK    9  A    between atoms: N_11  and  C_12
REMARK   10  A    between atoms: N_11  and  C_13
REMARK                            x       y       z     vdW  Elec       q    Type
REMARK                         _______ _______ _______ _____ _____    ______ ____
ROOT
ATOM      1  C   UNL     1       7.678   7.776  17.633  0.00  0.00    +0.000 C 
ENDROOT
BRANCH   1   2
ATOM      2  C   UNL     1       8.404   8.973  18.227  0.00  0.00    +0.000 C 
ATOM      3  C   UNL     1       9.027   9.999  18.736  0.00  0.00    +0.000 C 
BRANCH   3   4
ATOM      4  C   UNL     1       9.753  11.195  19.329  0.00  0.00    +0.000 C 
BRANCH   4   5
ATOM      5  N   UNL     1      10.390  11.997  18.269  0.00  0.00    +0.000 NA
ATOM      6  C   UNL     1       9.447  12.933  17.647  0.00  0.00    +0.000 C 
ATOM      7  C   UNL     1      11.526  12.733  18.816  0.00  0.00    +0.000 C 
ENDBRANCH   4   5
ENDBRANCH   3   4
ENDBRANCH   1   2
BRANCH   1   8
ATOM      8  C   UNL     1       7.846   6.527  18.493  0.00  0.00    +0.000 C 
BRANCH   8  10
ATOM      9  N   UNL     1       5.748   5.344  18.771  0.00  0.00    +0.000 NA
ATOM     10  C   UNL     1       6.858   5.436  18.099  0.00  0.00    +0.000 C 
ATOM     11  C   UNL     1       7.248   4.532  16.947  0.00  0.00    +0.000 C 
BRANCH   9  13
ATOM     12  C   UNL     1       4.595   3.441  19.356  0.00  0.00    +0.000 C 
ATOM     13  O   UNL     1       4.931   4.313  18.285  0.00  0.00    +0.000 OA
ENDBRANCH   9  13
ENDBRANCH   8  10
ENDBRANCH   1   8
TORSDOF 6
ENDMDL
MODEL 6
REMARK VINA RESULT:      -4.9      2.860      8.056
REMARK  Name = 
REMARK  10 active torsions:
REMARK  status: ('A' for Active; 'I' for Inactive)
REMARK    1  A    between atoms: C_1  and  O_2
REMARK    2  A    between atoms: O_2  and  N_3
REMARK    3  A    between atoms: C_4  and  C_5
REMARK    4  A    between atoms: C_4  and  C_6
REMARK    5  A    between atoms: C_6  and  C_7
REMARK    6  A    between atoms: C_7  and  C_8
REMARK    7  A    between atoms: C_9  and  C_10
REMARK    8  A    between atoms: C_10  and  N_11
REMARK    9  A    between atoms: N_11  and  C_12
REMARK   10  A    between atoms: N_11  and  C_13
REMARK                            x       y       z     vdW  Elec       q    Type
REMARK                         _______ _______ _______ _____ _____    ______ ____
ROOT
ATOM      1  C   UNL     1       4.482   6.125  17.262  0.00  0.00    +0.000 C 
ENDROOT
BRANCH   1   2
ATOM      2  C   UNL     1       4.090   4.681  17.532  0.00  0.00    +0.000 C 
ATOM      3  C   UNL     1       3.754   3.443  17.764  0.00  0.00    +0.000 C 
BRANCH   3   4
ATOM      4  C   UNL     1       3.362   1.999  18.035  0.00  0.00    +0.000 C 
BRANCH   4   5
ATOM      5  N   UNL     1       2.299   1.930  19.053  0.00  0.00    +0.000 NA
ATOM      6  C   UNL     1       2.707   2.556  20.315  0.00  0.00    +0.000 C 
ATOM      7  C   UNL     1       1.088   2.573  18.552  0.00  0.00    +0.000 C 
ENDBRANCH   4   5
ENDBRANCH   3   4
ENDBRANCH   1   2
BRANCH   1   8
ATOM      8  C   UNL     1       5.802   6.222  16.505  0.00  0.00    +0.000 C 
BRANCH   8  10
ATOM      9  N   UNL     1       7.300   7.970  17.266  0.00  0.00    +0.000 NA
ATOM     10  C   UNL     1       6.927   6.730  17.397  0.00  0.00    +0.000 C 
ATOM     11  C   UNL     1       7.533   5.746  18.376  0.00  0.00    +0.000 C 
BRANCH   9  13
ATOM     12  C   UNL     1       8.442   9.716  18.237  0.00  0.00    +0.000 C 
ATOM     13  O   UNL     1       8.325   8.301  18.164  0.00  0.00    +0.000 OA
ENDBRANCH   9  13
ENDBRANCH   8  10
ENDBRANCH   1   8
TORSDOF 6
ENDMDL
MODEL 7
REMARK VINA RESULT:      -4.9      2.781      7.759
REMARK  Name = 
REMARK  10 active torsions:
REMARK  status: ('A' for Active; 'I' for Inactive)
REMARK    1  A    between atoms: C_1  and  O_2
REMARK    2  A    between atoms: O_2  and  N_3
REMARK    3  A    between atoms: C_4  and  C_5
REMARK    4  A    between atoms: C_4  and  C_6
REMARK    5  A    between atoms: C_6  and  C_7
REMARK    6  A    between atoms: C_7  and  C_8
REMARK    7  A    between atoms: C_9  and  C_10
REMARK    8  A    between atoms: C_10  and  N_11
REMARK    9  A    between atoms: N_11  and  C_12
REMARK   10  A    between atoms: N_11  and  C_13
REMARK                            x       y       z     vdW  Elec       q    Type
REMARK                         _______ _______ _______ _____ _____    ______ ____
ROOT
ATOM      1  C   UNL     1       5.251   6.391  16.490  0.00  0.00    +0.000 C 
ENDROOT
BRANCH   1   2
ATOM      2  C   UNL     1       4.175   5.510  17.105  0.00  0.00    +0.000 C 
ATOM      3  C   UNL     1       3.253   4.754  17.632  0.00  0.00    +0.000 C 
BRANCH   3   4
ATOM      4  C   UNL     1       2.177   3.873  18.247  0.00  0.00    +0.000 C 
BRANCH   4   5
ATOM      5  N   UNL     1       2.769   2.916  19.199  0.00  0.00    +0.000 NA
ATOM      6  C   UNL     1       1.791   2.452  20.190  0.00  0.00    +0.000 C 
ATOM      7  C   UNL     1       3.319   1.772  18.477  0.00  0.00    +0.000 C 
ENDBRANCH   4   5
ENDBRANCH   3   4
ENDBRANCH   1   2
BRANCH   1   8
ATOM      8  C   UNL     1       6.648   5.820  16.713  0.00  0.00    +0.000 C 
BRANCH   8  10
ATOM      9  N   UNL     1       7.765   7.851  17.423  0.00  0.00    +0.000 NA
ATOM     10  C   UNL     1       7.432   6.632  17.735  0.00  0.00    +0.000 C 
ATOM     11  C   UNL     1       7.768   5.954  19.048  0.00  0.00    +0.000 C 
BRANCH   9  13
ATOM     12  C   UNL     1       8.626   9.857  18.150  0.00  0.00    +0.000 C 
ATOM     13  O   UNL     1       8.461   8.481  18.465  0.00  0.00    +0.000 OA
ENDBRANCH   9  13
ENDBRANCH   8  10
ENDBRANCH   1   8
TORSDOF 6
ENDMDL
MODEL 8
REMARK VINA RESULT:      -4.8      4.809      7.431
REMARK  Name = 
REMARK  10 active torsions:
REMARK  status: ('A' for Active; 'I' for Inactive)
REMARK    1  A    between atoms: C_1  and  O_2
REMARK    2  A    between atoms: O_2  and  N_3
REMARK    3  A    between atoms: C_4  and  C_5
REMARK    4  A    between atoms: C_4  and  C_6
REMARK    5  A    between atoms: C_6  and  C_7
REMARK    6  A    between atoms: C_7  and  C_8
REMARK    7  A    between atoms: C_9  and  C_10
REMARK    8  A    between atoms: C_10  and  N_11
REMARK    9  A    between atoms: N_11  and  C_12
REMARK   10  A    between atoms: N_11  and  C_13
REMARK                            x       y       z     vdW  Elec       q    Type
REMARK                         _______ _______ _______ _____ _____    ______ ____
ROOT
ATOM      1  C   UNL     1       6.823   5.454  18.423  0.00  0.00    +0.000 C 
ENDROOT
BRANCH   1   2
ATOM      2  C   UNL     1       5.515   4.873  18.937  0.00  0.00    +0.000 C 
ATOM      3  C   UNL     1       4.394   4.376  19.379  0.00  0.00    +0.000 C 
BRANCH   3   4
ATOM      4  C   UNL     1       3.086   3.796  19.893  0.00  0.00    +0.000 C 
BRANCH   4   5
ATOM      5  N   UNL     1       2.287   3.248  18.784  0.00  0.00    +0.000 NA
ATOM      6  C   UNL     1       1.924   4.280  17.806  0.00  0.00    +0.000 C 
ATOM      7  C   UNL     1       3.026   2.178  18.119  0.00  0.00    +0.000 C 
ENDBRANCH   4   5
ENDBRANCH   3   4
ENDBRANCH   1   2
BRANCH   1   8
ATOM      8  C   UNL     1       7.532   4.497  17.470  0.00  0.00    +0.000 C 
BRANCH   8  10
ATOM      9  N   UNL     1       7.609   5.501  15.265  0.00  0.00    +0.000 NA
ATOM     10  C   UNL     1       7.020   4.640  16.043  0.00  0.00    +0.000 C 
ATOM     11  C   UNL     1       5.854   3.764  15.634  0.00  0.00    +0.000 C 
BRANCH   9  13
ATOM     12  C   UNL     1       8.083   5.351  13.018  0.00  0.00    +0.000 C 
ATOM     13  O   UNL     1       7.048   5.508  13.980  0.00  0.00    +0.000 OA
ENDBRANCH   9  13
ENDBRANCH   8  10
ENDBRANCH   1   8
TORSDOF 6
ENDMDL
MODEL 9
REMARK VINA RESULT:      -4.8      3.453      7.807
REMARK  Name = 
REMARK  10 active torsions:
REMARK  status: ('A' for Active; 'I' for Inactive)
REMARK    1  A    between atoms: C_1  and  O_2
REMARK    2  A    between atoms: O_2  and  N_3
REMARK    3  A    between atoms: C_4  and  C_5
REMARK    4  A    between atoms: C_4  and  C_6
REMARK    5  A    between atoms: C_6  and  C_7
REMARK    6  A    between atoms: C_7  and  C_8
REMARK    7  A    between atoms: C_9  and  C_10
REMARK    8  A    between atoms: C_10  and  N_11
REMARK    9  A    between atoms: N_11  and  C_12
REMARK   10  A    between atoms: N_11  and  C_13
REMARK                            x       y       z     vdW  Elec       q    Type
REMARK                         _______ _______ _______ _____ _____    ______ ____
ROOT
ATOM      1  C   UNL     1       8.553   9.908  18.029  0.00  0.00    +0.000 C 
ENDROOT
BRANCH   1   2
ATOM      2  C   UNL     1       8.142   8.444  18.005  0.00  0.00    +0.000 C 
ATOM      3  C   UNL     1       7.789   7.189  17.984  0.00  0.00    +0.000 C 
BRANCH   3   4
ATOM      4  C   UNL     1       7.378   5.725  17.961  0.00  0.00    +0.000 C 
BRANCH   4   5
ATOM      5  N   UNL     1       6.153   5.541  17.163  0.00  0.00    +0.000 NA
ATOM      6  C   UNL     1       6.191   4.304  16.376  0.00  0.00    +0.000 C 
ATOM      7  C   UNL     1       4.985   5.531  18.040  0.00  0.00    +0.000 C 
ENDBRANCH   4   5
ENDBRANCH   3   4
ENDBRANCH   1   2
BRANCH   1   8
ATOM      8  C   UNL     1       9.361  10.250  19.276  0.00  0.00    +0.000 C 
BRANCH   8  10
ATOM      9  N   UNL     1      10.032  12.187  17.981  0.00  0.00    +0.000 NA
ATOM     10  C   UNL     1      10.203  11.504  19.075  0.00  0.00    +0.000 C 
ATOM     11  C   UNL     1      11.183  11.862  20.173  0.00  0.00    +0.000 C 
BRANCH   9  13
ATOM     12  C   UNL     1      11.494  13.393  16.677  0.00  0.00    +0.000 C 
ATOM     13  O   UNL     1      10.855  13.322  17.945  0.00  0.00    +0.000 OA
ENDBRANCH   9  13
ENDBRANCH   8  10
ENDBRANCH   1   8
TORSDOF 6
ENDMDL
