MODEL 1
REMARK VINA RESULT:      -8.1      0.000      0.000
REMARK  Name = 
REMARK  4 active torsions:
REMARK  status: ('A' for Active; 'I' for Inactive)
REMARK    1  A    between atoms: C_2  and  C_3
REMARK    2  A    between atoms: C_3  and  C_4
REMARK    3  A    between atoms: C_17  and  N_18
REMARK    4  A    between atoms: N_26  and  C_27
REMARK                            x       y       z     vdW  Elec       q    Type
REMARK                         _______ _______ _______ _____ _____    ______ ____
ROOT
ATOM      1  C   UNL     1      -1.334  13.923  21.661  0.00  0.00    +0.000 C 
ATOM      2  C   UNL     1      -0.503  14.952  20.918  0.00  0.00    +0.000 A 
ATOM      3  C   UNL     1       0.852  14.983  20.618  0.00  0.00    +0.000 A 
ATOM      4  C   UNL     1       1.368  16.087  19.927  0.00  0.00    +0.000 A 
ATOM      5  C   UNL     1       0.544  17.166  19.569  0.00  0.00    +0.000 A 
ATOM      6  C   UNL     1      -0.816  17.140  19.866  0.00  0.00    +0.000 A 
ATOM      7  C   UNL     1      -1.305  16.020  20.513  0.00  0.00    +0.000 A 
ATOM      8  C   UNL     1      -2.692  15.725  20.872  0.00  0.00    +0.000 C 
ATOM      9  O   UNL     1      -3.623  16.474  20.638  0.00  0.00    +0.000 OA
ATOM     10  N   UNL     1      -2.682  14.494  21.506  0.00  0.00    +0.000 N 
ATOM     11  C   UNL     1      -3.825  13.941  22.094  0.00  0.00    +0.000 A 
ATOM     12  C   UNL     1      -5.017  13.919  21.365  0.00  0.00    +0.000 A 
ATOM     13  C   UNL     1      -6.171  13.397  21.949  0.00  0.00    +0.000 A 
ATOM     14  C   UNL     1      -6.108  12.974  23.273  0.00  0.00    +0.000 A 
ATOM     15  C   UNL     1      -4.889  13.025  23.933  0.00  0.00    +0.000 A 
ATOM     16  N   UNL     1      -3.734  13.441  23.345  0.00  0.00    +0.000 NA
ENDROOT
BRANCH  14  17
ATOM     17  N   UNL     1      -7.295  12.485  23.958  0.00  0.00    +0.000 N 
ATOM     18  O   UNL     1      -7.612  11.297  23.785  0.00  0.00    +0.000 OA
ATOM     19  O   UNL     1      -7.915  13.282  24.672  0.00  0.00    +0.000 OA
ENDBRANCH  14  17
BRANCH   1  20
ATOM     20  C   UNL     1      -1.273  12.527  21.020  0.00  0.00    +0.000 C 
BRANCH  20  22
ATOM     21  O   UNL     1      -0.998  11.599  23.207  0.00  0.00    +0.000 OA
ATOM     22  C   UNL     1      -0.895  11.424  21.993  0.00  0.00    +0.000 C 
ATOM     23  N   UNL     1      -0.432  10.232  21.462  0.00  0.00    +0.000 N 
ATOM     24  C   UNL     1      -0.451   9.834  20.044  0.00  0.00    +0.000 C 
ATOM     25  C   UNL     1       0.966   9.474  19.567  0.00  0.00    +0.000 C 
ATOM     26  N   UNL     1       1.529   8.425  20.433  0.00  0.00    +0.000 N 
ATOM     27  C   UNL     1       1.553   8.755  21.871  0.00  0.00    +0.000 C 
ATOM     28  C   UNL     1       0.149   9.207  22.348  0.00  0.00    +0.000 C 
BRANCH  26  29
ATOM     29  C   UNL     1       1.931   7.200  19.941  0.00  0.00    +0.000 A 
ATOM     30  C   UNL     1       1.787   6.020  20.689  0.00  0.00    +0.000 A 
ATOM     31  C   UNL     1       2.222   4.780  20.200  0.00  0.00    +0.000 A 
ATOM     32  C   UNL     1       2.807   4.689  18.944  0.00  0.00    +0.000 A 
ATOM     33  C   UNL     1       2.946   5.833  18.170  0.00  0.00    +0.000 A 
ATOM     34  C   UNL     1       2.512   7.068  18.666  0.00  0.00    +0.000 A 
ENDBRANCH  26  29
ENDBRANCH  20  22
ENDBRANCH   1  20
TORSDOF 4
ENDMDL
MODEL 2
REMARK VINA RESULT:      -7.8      3.686      6.535
REMARK  Name = 
REMARK  4 active torsions:
REMARK  status: ('A' for Active; 'I' for Inactive)
REMARK    1  A    between atoms: C_2  and  C_3
REMARK    2  A    between atoms: C_3  and  C_4
REMARK    3  A    between atoms: C_17  and  N_18
REMARK    4  A    between atoms: N_26  and  C_27
REMARK                            x       y       z     vdW  Elec       q    Type
REMARK                         _______ _______ _______ _____ _____    ______ ____
ROOT
ATOM      1  C   UNL     1      -0.106  11.201  18.528  0.00  0.00    +0.000 C 
ATOM      2  C   UNL     1      -1.572  10.896  18.280  0.00  0.00    +0.000 A 
ATOM      3  C   UNL     1      -2.182   9.841  17.615  0.00  0.00    +0.000 A 
ATOM      4  C   UNL     1      -3.579   9.821  17.515  0.00  0.00    +0.000 A 
ATOM      5  C   UNL     1      -4.358  10.861  18.044  0.00  0.00    +0.000 A 
ATOM      6  C   UNL     1      -3.751  11.921  18.713  0.00  0.00    +0.000 A 
ATOM      7  C   UNL     1      -2.374  11.895  18.832  0.00  0.00    +0.000 A 
ATOM      8  C   UNL     1      -1.516  12.846  19.539  0.00  0.00    +0.000 C 
ATOM      9  O   UNL     1      -1.936  13.825  20.128  0.00  0.00    +0.000 OA
ATOM     10  N   UNL     1      -0.214  12.402  19.371  0.00  0.00    +0.000 N 
ATOM     11  C   UNL     1       0.893  13.132  19.818  0.00  0.00    +0.000 A 
ATOM     12  C   UNL     1       0.889  13.638  21.120  0.00  0.00    +0.000 A 
ATOM     13  C   UNL     1       1.973  14.392  21.569  0.00  0.00    +0.000 A 
ATOM     14  C   UNL     1       2.999  14.672  20.671  0.00  0.00    +0.000 A 
ATOM     15  C   UNL     1       2.934  14.135  19.394  0.00  0.00    +0.000 A 
ATOM     16  N   UNL     1       1.930  13.318  18.974  0.00  0.00    +0.000 NA
ENDROOT
BRANCH  14  17
ATOM     17  N   UNL     1       4.122  15.511  21.061  0.00  0.00    +0.000 N 
ATOM     18  O   UNL     1       4.327  16.543  20.402  0.00  0.00    +0.000 OA
ATOM     19  O   UNL     1       4.803  15.146  22.026  0.00  0.00    +0.000 OA
ENDBRANCH  14  17
BRANCH   1  20
ATOM     20  C   UNL     1       0.619  10.081  19.291  0.00  0.00    +0.000 C 
BRANCH  20  22
ATOM     21  O   UNL     1       1.972   9.752  17.346  0.00  0.00    +0.000 OA
ATOM     22  C   UNL     1       1.629   9.323  18.449  0.00  0.00    +0.000 C 
ATOM     23  N   UNL     1       2.138   8.143  18.965  0.00  0.00    +0.000 N 
ATOM     24  C   UNL     1       1.961   7.633  20.335  0.00  0.00    +0.000 C 
ATOM     25  C   UNL     1       1.347   6.224  20.310  0.00  0.00    +0.000 C 
ATOM     26  N   UNL     1       2.183   5.333  19.488  0.00  0.00    +0.000 N 
ATOM     27  C   UNL     1       2.418   5.803  18.109  0.00  0.00    +0.000 C 
ATOM     28  C   UNL     1       2.953   7.258  18.113  0.00  0.00    +0.000 C 
BRANCH  26  29
ATOM     29  C   UNL     1       2.762   4.189  19.997  0.00  0.00    +0.000 A 
ATOM     30  C   UNL     1       3.924   3.635  19.433  0.00  0.00    +0.000 A 
ATOM     31  C   UNL     1       4.495   2.457  19.933  0.00  0.00    +0.000 A 
ATOM     32  C   UNL     1       3.920   1.804  21.016  0.00  0.00    +0.000 A 
ATOM     33  C   UNL     1       2.784   2.336  21.609  0.00  0.00    +0.000 A 
ATOM     34  C   UNL     1       2.217   3.511  21.103  0.00  0.00    +0.000 A 
ENDBRANCH  26  29
ENDBRANCH  20  22
ENDBRANCH   1  20
TORSDOF 4
ENDMDL
MODEL 3
REMARK VINA RESULT:      -7.8      1.954      2.719
REMARK  Name = 
REMARK  4 active torsions:
REMARK  status: ('A' for Active; 'I' for Inactive)
REMARK    1  A    between atoms: C_2  and  C_3
REMARK    2  A    between atoms: C_3  and  C_4
REMARK    3  A    between atoms: C_17  and  N_18
REMARK    4  A    between atoms: N_26  and  C_27
REMARK                            x       y       z     vdW  Elec       q    Type
REMARK                         _______ _______ _______ _____ _____    ______ ____
ROOT
ATOM      1  C   UNL     1       0.899  13.042  20.261  0.00  0.00    +0.000 C 
ATOM      2  C   UNL     1       1.753  13.965  19.411  0.00  0.00    +0.000 A 
ATOM      3  C   UNL     1       3.019  13.791  18.869  0.00  0.00    +0.000 A 
ATOM      4  C   UNL     1       3.590  14.836  18.132  0.00  0.00    +0.000 A 
ATOM      5  C   UNL     1       2.917  16.057  17.966  0.00  0.00    +0.000 A 
ATOM      6  C   UNL     1       1.646  16.236  18.507  0.00  0.00    +0.000 A 
ATOM      7  C   UNL     1       1.091  15.174  19.196  0.00  0.00    +0.000 A 
ATOM      8  C   UNL     1      -0.241  15.090  19.793  0.00  0.00    +0.000 C 
ATOM      9  O   UNL     1      -1.055  15.995  19.758  0.00  0.00    +0.000 OA
ATOM     10  N   UNL     1      -0.334  13.836  20.375  0.00  0.00    +0.000 N 
ATOM     11  C   UNL     1      -1.436  13.443  21.143  0.00  0.00    +0.000 A 
ATOM     12  C   UNL     1      -2.722  13.665  20.646  0.00  0.00    +0.000 A 
ATOM     13  C   UNL     1      -3.829  13.305  21.414  0.00  0.00    +0.000 A 
ATOM     14  C   UNL     1      -3.609  12.794  22.690  0.00  0.00    +0.000 A 
ATOM     15  C   UNL     1      -2.304  12.601  23.116  0.00  0.00    +0.000 A 
ATOM     16  N   UNL     1      -1.215  12.858  22.340  0.00  0.00    +0.000 NA
ENDROOT
BRANCH  14  17
ATOM     17  N   UNL     1      -4.725  12.465  23.564  0.00  0.00    +0.000 N 
ATOM     18  O   UNL     1      -5.871  12.704  23.152  0.00  0.00    +0.000 OA
ATOM     19  O   UNL     1      -4.463  11.965  24.664  0.00  0.00    +0.000 OA
ENDBRANCH  14  17
BRANCH   1  20
ATOM     20  C   UNL     1       0.603  11.698  19.575  0.00  0.00    +0.000 C 
BRANCH  20  22
ATOM     21  O   UNL     1       0.699  10.630  21.712  0.00  0.00    +0.000 OA
ATOM     22  C   UNL     1       0.761  10.498  20.489  0.00  0.00    +0.000 C 
ATOM     23  N   UNL     1       0.981   9.265  19.898  0.00  0.00    +0.000 N 
ATOM     24  C   UNL     1       0.882   8.948  18.463  0.00  0.00    +0.000 C 
ATOM     25  C   UNL     1       2.199   8.342  17.952  0.00  0.00    +0.000 C 
ATOM     26  N   UNL     1       2.549   7.162  18.760  0.00  0.00    +0.000 N 
ATOM     27  C   UNL     1       2.641   7.411  20.212  0.00  0.00    +0.000 C 
ATOM     28  C   UNL     1       1.353   8.105  20.727  0.00  0.00    +0.000 C 
BRANCH  26  29
ATOM     29  C   UNL     1       2.703   5.908  18.206  0.00  0.00    +0.000 A 
ATOM     30  C   UNL     1       3.879   5.536  17.535  0.00  0.00    +0.000 A 
ATOM     31  C   UNL     1       4.023   4.271  16.948  0.00  0.00    +0.000 A 
ATOM     32  C   UNL     1       2.993   3.343  17.023  0.00  0.00    +0.000 A 
ATOM     33  C   UNL     1       1.826   3.671  17.697  0.00  0.00    +0.000 A 
ATOM     34  C   UNL     1       1.688   4.937  18.279  0.00  0.00    +0.000 A 
ENDBRANCH  26  29
ENDBRANCH  20  22
ENDBRANCH   1  20
TORSDOF 4
ENDMDL
MODEL 4
REMARK VINA RESULT:      -7.5      2.654      8.530
REMARK  Name = 
REMARK  4 active torsions:
REMARK  status: ('A' for Active; 'I' for Inactive)
REMARK    1  A    between atoms: C_2  and  C_3
REMARK    2  A    between atoms: C_3  and  C_4
REMARK    3  A    between atoms: C_17  and  N_18
REMARK    4  A    between atoms: N_26  and  C_27
REMARK                            x       y       z     vdW  Elec       q    Type
REMARK                         _______ _______ _______ _____ _____    ______ ____
ROOT
ATOM      1  C   UNL     1       0.908   9.944  20.783  0.00  0.00    +0.000 C 
ATOM      2  C   UNL     1       1.383   8.586  20.298  0.00  0.00    +0.000 A 
ATOM      3  C   UNL     1       1.424   7.355  20.937  0.00  0.00    +0.000 A 
ATOM      4  C   UNL     1       1.943   6.251  20.248  0.00  0.00    +0.000 A 
ATOM      5  C   UNL     1       2.447   6.383  18.944  0.00  0.00    +0.000 A 
ATOM      6  C   UNL     1       2.406   7.616  18.298  0.00  0.00    +0.000 A 
ATOM      7  C   UNL     1       1.852   8.680  18.987  0.00  0.00    +0.000 A 
ATOM      8  C   UNL     1       1.636  10.044  18.508  0.00  0.00    +0.000 C 
ATOM      9  O   UNL     1       1.941  10.424  17.392  0.00  0.00    +0.000 OA
ATOM     10  N   UNL     1       1.061  10.743  19.557  0.00  0.00    +0.000 N 
ATOM     11  C   UNL     1       0.817  12.120  19.499  0.00  0.00    +0.000 A 
ATOM     12  C   UNL     1       0.182  12.648  18.373  0.00  0.00    +0.000 A 
ATOM     13  C   UNL     1      -0.041  14.022  18.289  0.00  0.00    +0.000 A 
ATOM     14  C   UNL     1       0.443  14.833  19.311  0.00  0.00    +0.000 A 
ATOM     15  C   UNL     1       1.063  14.237  20.400  0.00  0.00    +0.000 A 
ATOM     16  N   UNL     1       1.201  12.891  20.540  0.00  0.00    +0.000 NA
ENDROOT
BRANCH  14  17
ATOM     17  N   UNL     1       0.301  16.280  19.246  0.00  0.00    +0.000 N 
ATOM     18  O   UNL     1       0.747  16.946  20.194  0.00  0.00    +0.000 OA
ATOM     19  O   UNL     1      -0.252  16.758  18.249  0.00  0.00    +0.000 OA
ENDBRANCH  14  17
BRANCH   1  20
ATOM     20  C   UNL     1      -0.562   9.939  21.233  0.00  0.00    +0.000 C 
BRANCH  20  22
ATOM     21  O   UNL     1      -0.247  10.304  23.576  0.00  0.00    +0.000 OA
ATOM     22  C   UNL     1      -0.803  10.672  22.540  0.00  0.00    +0.000 C 
ATOM     23  N   UNL     1      -1.667  11.755  22.519  0.00  0.00    +0.000 N 
ATOM     24  C   UNL     1      -2.231  12.406  21.325  0.00  0.00    +0.000 C 
ATOM     25  C   UNL     1      -3.767  12.418  21.393  0.00  0.00    +0.000 C 
ATOM     26  N   UNL     1      -4.204  13.067  22.641  0.00  0.00    +0.000 N 
ATOM     27  C   UNL     1      -3.651  12.474  23.873  0.00  0.00    +0.000 C 
ATOM     28  C   UNL     1      -2.106  12.371  23.784  0.00  0.00    +0.000 C 
BRANCH  26  29
ATOM     29  C   UNL     1      -5.005  14.190  22.647  0.00  0.00    +0.000 A 
ATOM     30  C   UNL     1      -5.050  15.060  23.748  0.00  0.00    +0.000 A 
ATOM     31  C   UNL     1      -5.886  16.185  23.765  0.00  0.00    +0.000 A 
ATOM     32  C   UNL     1      -6.696  16.472  22.674  0.00  0.00    +0.000 A 
ATOM     33  C   UNL     1      -6.660  15.645  21.560  0.00  0.00    +0.000 A 
ATOM     34  C   UNL     1      -5.824  14.521  21.552  0.00  0.00    +0.000 A 
ENDBRANCH  26  29
ENDBRANCH  20  22
ENDBRANCH   1  20
TORSDOF 4
ENDMDL
MODEL 5
REMARK VINA RESULT:      -7.5      3.686      6.711
REMARK  Name = 
REMARK  4 active torsions:
REMARK  status: ('A' for Active; 'I' for Inactive)
REMARK    1  A    between atoms: C_2  and  C_3
REMARK    2  A    between atoms: C_3  and  C_4
REMARK    3  A    between atoms: C_17  and  N_18
REMARK    4  A    between atoms: N_26  and  C_27
REMARK                            x       y       z     vdW  Elec       q    Type
REMARK                         _______ _______ _______ _____ _____    ______ ____
ROOT
ATOM      1  C   UNL     1       0.770  13.116  18.493  0.00  0.00    +0.000 C 
ATOM      2  C   UNL     1      -0.665  12.751  18.829  0.00  0.00    +0.000 A 
ATOM      3  C   UNL     1      -1.479  11.732  18.354  0.00  0.00    +0.000 A 
ATOM      4  C   UNL     1      -2.794  11.640  18.827  0.00  0.00    +0.000 A 
ATOM      5  C   UNL     1      -3.301  12.576  19.742  0.00  0.00    +0.000 A 
ATOM      6  C   UNL     1      -2.488  13.598  20.224  0.00  0.00    +0.000 A 
ATOM      7  C   UNL     1      -1.182  13.642  19.769  0.00  0.00    +0.000 A 
ATOM      8  C   UNL     1      -0.124  14.567  20.170  0.00  0.00    +0.000 C 
ATOM      9  O   UNL     1      -0.278  15.457  20.986  0.00  0.00    +0.000 OA
ATOM     10  N   UNL     1       1.001  14.219  19.439  0.00  0.00    +0.000 N 
ATOM     11  C   UNL     1       2.184  14.966  19.478  0.00  0.00    +0.000 A 
ATOM     12  C   UNL     1       2.708  15.340  20.718  0.00  0.00    +0.000 A 
ATOM     13  C   UNL     1       3.870  16.109  20.771  0.00  0.00    +0.000 A 
ATOM     14  C   UNL     1       4.434  16.536  19.572  0.00  0.00    +0.000 A 
ATOM     15  C   UNL     1       3.859  16.124  18.379  0.00  0.00    +0.000 A 
ATOM     16  N   UNL     1       2.782  15.295  18.312  0.00  0.00    +0.000 NA
ENDROOT
BRANCH  14  17
ATOM     17  N   UNL     1       5.607  17.397  19.565  0.00  0.00    +0.000 N 
ATOM     18  O   UNL     1       5.499  18.524  20.074  0.00  0.00    +0.000 OA
ATOM     19  O   UNL     1       6.641  16.953  19.053  0.00  0.00    +0.000 OA
ENDBRANCH  14  17
BRANCH   1  20
ATOM     20  C   UNL     1       1.759  11.971  18.763  0.00  0.00    +0.000 C 
BRANCH  20  22
ATOM     21  O   UNL     1       1.181  11.568  21.048  0.00  0.00    +0.000 OA
ATOM     22  C   UNL     1       1.364  11.085  19.931  0.00  0.00    +0.000 C 
ATOM     23  N   UNL     1       1.224   9.729  19.689  0.00  0.00    +0.000 N 
ATOM     24  C   UNL     1       1.222   9.065  18.374  0.00  0.00    +0.000 C 
ATOM     25  C   UNL     1       2.307   7.978  18.318  0.00  0.00    +0.000 C 
ATOM     26  N   UNL     1       2.112   7.024  19.422  0.00  0.00    +0.000 N 
ATOM     27  C   UNL     1       2.081   7.633  20.766  0.00  0.00    +0.000 C 
ATOM     28  C   UNL     1       1.054   8.793  20.815  0.00  0.00    +0.000 C 
BRANCH  26  29
ATOM     29  C   UNL     1       1.899   5.679  19.207  0.00  0.00    +0.000 A 
ATOM     30  C   UNL     1       2.133   5.084  17.956  0.00  0.00    +0.000 A 
ATOM     31  C   UNL     1       1.888   3.723  17.730  0.00  0.00    +0.000 A 
ATOM     32  C   UNL     1       1.408   2.918  18.755  0.00  0.00    +0.000 A 
ATOM     33  C   UNL     1       1.186   3.469  20.009  0.00  0.00    +0.000 A 
ATOM     34  C   UNL     1       1.430   4.830  20.226  0.00  0.00    +0.000 A 
ENDBRANCH  26  29
ENDBRANCH  20  22
ENDBRANCH   1  20
TORSDOF 4
ENDMDL
MODEL 6
REMARK VINA RESULT:      -7.5      3.300      5.775
REMARK  Name = 
REMARK  4 active torsions:
REMARK  status: ('A' for Active; 'I' for Inactive)
REMARK    1  A    between atoms: C_2  and  C_3
REMARK    2  A    between atoms: C_3  and  C_4
REMARK    3  A    between atoms: C_17  and  N_18
REMARK    4  A    between atoms: N_26  and  C_27
REMARK                            x       y       z     vdW  Elec       q    Type
REMARK                         _______ _______ _______ _____ _____    ______ ____
ROOT
ATOM      1  C   UNL     1      -0.336  11.570  18.753  0.00  0.00    +0.000 C 
ATOM      2  C   UNL     1      -1.578  10.979  18.110  0.00  0.00    +0.000 A 
ATOM      3  C   UNL     1      -1.722   9.963  17.177  0.00  0.00    +0.000 A 
ATOM      4  C   UNL     1      -3.008   9.630  16.731  0.00  0.00    +0.000 A 
ATOM      5  C   UNL     1      -4.136  10.330  17.188  0.00  0.00    +0.000 A 
ATOM      6  C   UNL     1      -3.997  11.350  18.125  0.00  0.00    +0.000 A 
ATOM      7  C   UNL     1      -2.720  11.630  18.578  0.00  0.00    +0.000 A 
ATOM      8  C   UNL     1      -2.322  12.598  19.598  0.00  0.00    +0.000 C 
ATOM      9  O   UNL     1      -3.108  13.313  20.194  0.00  0.00    +0.000 OA
ATOM     10  N   UNL     1      -0.943  12.519  19.700  0.00  0.00    +0.000 N 
ATOM     11  C   UNL     1      -0.197  13.389  20.504  0.00  0.00    +0.000 A 
ATOM     12  C   UNL     1      -0.605  13.612  21.821  0.00  0.00    +0.000 A 
ATOM     13  C   UNL     1       0.112  14.498  22.624  0.00  0.00    +0.000 A 
ATOM     14  C   UNL     1       1.180  15.187  22.056  0.00  0.00    +0.000 A 
ATOM     15  C   UNL     1       1.528  14.913  20.741  0.00  0.00    +0.000 A 
ATOM     16  N   UNL     1       0.898  13.980  19.977  0.00  0.00    +0.000 NA
ENDROOT
BRANCH  14  17
ATOM     17  N   UNL     1       1.923  16.175  22.823  0.00  0.00    +0.000 N 
ATOM     18  O   UNL     1       1.343  17.233  23.116  0.00  0.00    +0.000 OA
ATOM     19  O   UNL     1       3.086  15.900  23.139  0.00  0.00    +0.000 OA
ENDBRANCH  14  17
BRANCH   1  20
ATOM     20  C   UNL     1       0.500  10.527  19.511  0.00  0.00    +0.000 C 
BRANCH  20  22
ATOM     21  O   UNL     1       1.860  10.282  17.559  0.00  0.00    +0.000 OA
ATOM     22  C   UNL     1       1.513   9.806  18.640  0.00  0.00    +0.000 C 
ATOM     23  N   UNL     1       2.018   8.603  19.105  0.00  0.00    +0.000 N 
ATOM     24  C   UNL     1       1.835   8.033  20.450  0.00  0.00    +0.000 C 
ATOM     25  C   UNL     1       1.219   6.628  20.361  0.00  0.00    +0.000 C 
ATOM     26  N   UNL     1       2.056   5.772  19.504  0.00  0.00    +0.000 N 
ATOM     27  C   UNL     1       2.297   6.302  18.148  0.00  0.00    +0.000 C 
ATOM     28  C   UNL     1       2.835   7.755  18.218  0.00  0.00    +0.000 C 
BRANCH  26  29
ATOM     29  C   UNL     1       2.632   4.606  19.963  0.00  0.00    +0.000 A 
ATOM     30  C   UNL     1       3.754   4.039  19.336  0.00  0.00    +0.000 A 
ATOM     31  C   UNL     1       4.321   2.838  19.786  0.00  0.00    +0.000 A 
ATOM     32  C   UNL     1       3.781   2.176  20.881  0.00  0.00    +0.000 A 
ATOM     33  C   UNL     1       2.685   2.720  21.536  0.00  0.00    +0.000 A 
ATOM     34  C   UNL     1       2.123   3.918  21.079  0.00  0.00    +0.000 A 
ENDBRANCH  26  29
ENDBRANCH  20  22
ENDBRANCH   1  20
TORSDOF 4
ENDMDL
MODEL 7
REMARK VINA RESULT:      -7.4      2.690      8.581
REMARK  Name = 
REMARK  4 active torsions:
REMARK  status: ('A' for Active; 'I' for Inactive)
REMARK    1  A    between atoms: C_2  and  C_3
REMARK    2  A    between atoms: C_3  and  C_4
REMARK    3  A    between atoms: C_17  and  N_18
REMARK    4  A    between atoms: N_26  and  C_27
REMARK                            x       y       z     vdW  Elec       q    Type
REMARK                         _______ _______ _______ _____ _____    ______ ____
ROOT
ATOM      1  C   UNL     1       1.049   9.713  20.831  0.00  0.00    +0.000 C 
ATOM      2  C   UNL     1       1.459   8.360  20.277  0.00  0.00    +0.000 A 
ATOM      3  C   UNL     1       1.419   7.094  20.846  0.00  0.00    +0.000 A 
ATOM      4  C   UNL     1       1.892   6.003  20.105  0.00  0.00    +0.000 A 
ATOM      5  C   UNL     1       2.431   6.180  18.821  0.00  0.00    +0.000 A 
ATOM      6  C   UNL     1       2.473   7.447  18.246  0.00  0.00    +0.000 A 
ATOM      7  C   UNL     1       1.963   8.500  18.984  0.00  0.00    +0.000 A 
ATOM      8  C   UNL     1       1.832   9.899  18.580  0.00  0.00    +0.000 C 
ATOM      9  O   UNL     1       2.182  10.323  17.493  0.00  0.00    +0.000 OA
ATOM     10  N   UNL     1       1.273  10.569  19.656  0.00  0.00    +0.000 N 
ATOM     11  C   UNL     1       1.106  11.959  19.672  0.00  0.00    +0.000 A 
ATOM     12  C   UNL     1       0.526  12.584  18.565  0.00  0.00    +0.000 A 
ATOM     13  C   UNL     1       0.380  13.971  18.556  0.00  0.00    +0.000 A 
ATOM     14  C   UNL     1       0.884  14.695  19.632  0.00  0.00    +0.000 A 
ATOM     15  C   UNL     1       1.446  14.005  20.696  0.00  0.00    +0.000 A 
ATOM     16  N   UNL     1       1.508  12.647  20.762  0.00  0.00    +0.000 NA
ENDROOT
BRANCH  14  17
ATOM     17  N   UNL     1       0.823  16.148  19.647  0.00  0.00    +0.000 N 
ATOM     18  O   UNL     1       0.842  16.738  18.555  0.00  0.00    +0.000 OA
ATOM     19  O   UNL     1       0.754  16.708  20.748  0.00  0.00    +0.000 OA
ENDBRANCH  14  17
BRANCH   1  20
ATOM     20  C   UNL     1      -0.429   9.765  21.251  0.00  0.00    +0.000 C 
BRANCH  20  22
ATOM     21  O   UNL     1      -0.150  10.194  23.587  0.00  0.00    +0.000 OA
ATOM     22  C   UNL     1      -0.674  10.545  22.529  0.00  0.00    +0.000 C 
ATOM     23  N   UNL     1      -1.503  11.652  22.456  0.00  0.00    +0.000 N 
ATOM     24  C   UNL     1      -2.024  12.282  21.231  0.00  0.00    +0.000 C 
ATOM     25  C   UNL     1      -3.560  12.342  21.267  0.00  0.00    +0.000 C 
ATOM     26  N   UNL     1      -4.001  13.044  22.484  0.00  0.00    +0.000 N 
ATOM     27  C   UNL     1      -3.491  12.473  23.746  0.00  0.00    +0.000 C 
ATOM     28  C   UNL     1      -1.949  12.322  23.692  0.00  0.00    +0.000 C 
BRANCH  26  29
ATOM     29  C   UNL     1      -4.767  14.190  22.438  0.00  0.00    +0.000 A 
ATOM     30  C   UNL     1      -5.351  14.641  21.244  0.00  0.00    +0.000 A 
ATOM     31  C   UNL     1      -6.106  15.821  21.193  0.00  0.00    +0.000 A 
ATOM     32  C   UNL     1      -6.300  16.578  22.340  0.00  0.00    +0.000 A 
ATOM     33  C   UNL     1      -5.754  16.150  23.542  0.00  0.00    +0.000 A 
ATOM     34  C   UNL     1      -4.999  14.972  23.585  0.00  0.00    +0.000 A 
ENDBRANCH  26  29
ENDBRANCH  20  22
ENDBRANCH   1  20
TORSDOF 4
ENDMDL
MODEL 8
REMARK VINA RESULT:      -7.4      2.897      4.966
REMARK  Name = 
REMARK  4 active torsions:
REMARK  status: ('A' for Active; 'I' for Inactive)
REMARK    1  A    between atoms: C_2  and  C_3
REMARK    2  A    between atoms: C_3  and  C_4
REMARK    3  A    between atoms: C_17  and  N_18
REMARK    4  A    between atoms: N_26  and  C_27
REMARK                            x       y       z     vdW  Elec       q    Type
REMARK                         _______ _______ _______ _____ _____    ______ ____
ROOT
ATOM      1  C   UNL     1      -0.665  12.728  18.870  0.00  0.00    +0.000 C 
ATOM      2  C   UNL     1      -1.709  11.819  18.246  0.00  0.00    +0.000 A 
ATOM      3  C   UNL     1      -1.655  11.010  17.120  0.00  0.00    +0.000 A 
ATOM      4  C   UNL     1      -2.795  10.283  16.753  0.00  0.00    +0.000 A 
ATOM      5  C   UNL     1      -3.988  10.389  17.485  0.00  0.00    +0.000 A 
ATOM      6  C   UNL     1      -4.047  11.199  18.616  0.00  0.00    +0.000 A 
ATOM      7  C   UNL     1      -2.895  11.874  18.978  0.00  0.00    +0.000 A 
ATOM      8  C   UNL     1      -2.684  12.724  20.149  0.00  0.00    +0.000 C 
ATOM      9  O   UNL     1      -3.544  12.954  20.980  0.00  0.00    +0.000 OA
ATOM     10  N   UNL     1      -1.377  13.178  20.076  0.00  0.00    +0.000 N 
ATOM     11  C   UNL     1      -0.855  14.114  20.975  0.00  0.00    +0.000 A 
ATOM     12  C   UNL     1      -1.053  13.922  22.345  0.00  0.00    +0.000 A 
ATOM     13  C   UNL     1      -0.563  14.862  23.250  0.00  0.00    +0.000 A 
ATOM     14  C   UNL     1       0.054  16.004  22.748  0.00  0.00    +0.000 A 
ATOM     15  C   UNL     1       0.216  16.126  21.375  0.00  0.00    +0.000 A 
ATOM     16  N   UNL     1      -0.171  15.171  20.486  0.00  0.00    +0.000 NA
ENDROOT
BRANCH  14  17
ATOM     17  N   UNL     1       0.524  17.052  23.640  0.00  0.00    +0.000 N 
ATOM     18  O   UNL     1       0.203  18.222  23.376  0.00  0.00    +0.000 OA
ATOM     19  O   UNL     1       1.212  16.714  24.610  0.00  0.00    +0.000 OA
ENDBRANCH  14  17
BRANCH   1  20
ATOM     20  C   UNL     1       0.621  11.982  19.261  0.00  0.00    +0.000 C 
BRANCH  20  22
ATOM     21  O   UNL     1      -0.131  10.763  21.177  0.00  0.00    +0.000 OA
ATOM     22  C   UNL     1       0.373  10.712  20.054  0.00  0.00    +0.000 C 
ATOM     23  N   UNL     1       0.736   9.509  19.471  0.00  0.00    +0.000 N 
ATOM     24  C   UNL     1       1.159   9.301  18.075  0.00  0.00    +0.000 C 
ATOM     25  C   UNL     1       2.541   8.631  18.025  0.00  0.00    +0.000 C 
ATOM     26  N   UNL     1       2.511   7.374  18.791  0.00  0.00    +0.000 N 
ATOM     27  C   UNL     1       2.072   7.514  20.192  0.00  0.00    +0.000 C 
ATOM     28  C   UNL     1       0.720   8.269  20.266  0.00  0.00    +0.000 C 
BRANCH  26  29
ATOM     29  C   UNL     1       2.798   6.153  18.216  0.00  0.00    +0.000 A 
ATOM     30  C   UNL     1       1.862   5.106  18.198  0.00  0.00    +0.000 A 
ATOM     31  C   UNL     1       2.165   3.857  17.640  0.00  0.00    +0.000 A 
ATOM     32  C   UNL     1       3.413   3.625  17.078  0.00  0.00    +0.000 A 
ATOM     33  C   UNL     1       4.355   4.644  17.060  0.00  0.00    +0.000 A 
ATOM     34  C   UNL     1       4.046   5.888  17.623  0.00  0.00    +0.000 A 
ENDBRANCH  26  29
ENDBRANCH  20  22
ENDBRANCH   1  20
TORSDOF 4
ENDMDL
MODEL 9
REMARK VINA RESULT:      -7.3      2.025      2.491
REMARK  Name = 
REMARK  4 active torsions:
REMARK  status: ('A' for Active; 'I' for Inactive)
REMARK    1  A    between atoms: C_2  and  C_3
REMARK    2  A    between atoms: C_3  and  C_4
REMARK    3  A    between atoms: C_17  and  N_18
REMARK    4  A    between atoms: N_26  and  C_27
REMARK                            x       y       z     vdW  Elec       q    Type
REMARK                         _______ _______ _______ _____ _____    ______ ____
ROOT
ATOM      1  C   UNL     1       0.051  13.717  20.701  0.00  0.00    +0.000 C 
ATOM      2  C   UNL     1       1.152  14.038  19.706  0.00  0.00    +0.000 A 
ATOM      3  C   UNL     1       2.146  13.238  19.161  0.00  0.00    +0.000 A 
ATOM      4  C   UNL     1       3.062  13.810  18.268  0.00  0.00    +0.000 A 
ATOM      5  C   UNL     1       3.004  15.175  17.948  0.00  0.00    +0.000 A 
ATOM      6  C   UNL     1       2.007  15.982  18.491  0.00  0.00    +0.000 A 
ATOM      7  C   UNL     1       1.093  15.382  19.339  0.00  0.00    +0.000 A 
ATOM      8  C   UNL     1      -0.072  15.992  19.978  0.00  0.00    +0.000 C 
ATOM      9  O   UNL     1      -0.386  17.160  19.836  0.00  0.00    +0.000 OA
ATOM     10  N   UNL     1      -0.672  14.998  20.733  0.00  0.00    +0.000 N 
ATOM     11  C   UNL     1      -1.759  15.249  21.579  0.00  0.00    +0.000 A 
ATOM     12  C   UNL     1      -2.843  15.981  21.090  0.00  0.00    +0.000 A 
ATOM     13  C   UNL     1      -3.919  16.263  21.930  0.00  0.00    +0.000 A 
ATOM     14  C   UNL     1      -3.843  15.857  23.259  0.00  0.00    +0.000 A 
ATOM     15  C   UNL     1      -2.735  15.133  23.674  0.00  0.00    +0.000 A 
ATOM     16  N   UNL     1      -1.722  14.768  22.841  0.00  0.00    +0.000 NA
ENDROOT
BRANCH  14  17
ATOM     17  N   UNL     1      -4.903  16.183  24.201  0.00  0.00    +0.000 N 
ATOM     18  O   UNL     1      -6.048  15.777  23.943  0.00  0.00    +0.000 OA
ATOM     19  O   UNL     1      -4.599  16.841  25.203  0.00  0.00    +0.000 OA
ENDBRANCH  14  17
BRANCH   1  20
ATOM     20  C   UNL     1      -0.882  12.593  20.221  0.00  0.00    +0.000 C 
BRANCH  20  22
ATOM     21  O   UNL     1      -1.376  11.474  22.276  0.00  0.00    +0.000 OA
ATOM     22  C   UNL     1      -0.908  11.386  21.140  0.00  0.00    +0.000 C 
ATOM     23  N   UNL     1      -0.386  10.198  20.655  0.00  0.00    +0.000 N 
ATOM     24  C   UNL     1       0.016   9.917  19.266  0.00  0.00    +0.000 C 
ATOM     25  C   UNL     1       1.482   9.457  19.212  0.00  0.00    +0.000 C 
ATOM     26  N   UNL     1       1.670   8.292  20.093  0.00  0.00    +0.000 N 
ATOM     27  C   UNL     1       1.261   8.505  21.495  0.00  0.00    +0.000 C 
ATOM     28  C   UNL     1      -0.187   9.055  21.563  0.00  0.00    +0.000 C 
BRANCH  26  29
ATOM     29  C   UNL     1       2.120   7.076  19.622  0.00  0.00    +0.000 A 
ATOM     30  C   UNL     1       1.963   5.893  20.363  0.00  0.00    +0.000 A 
ATOM     31  C   UNL     1       2.447   4.663  19.896  0.00  0.00    +0.000 A 
ATOM     32  C   UNL     1       3.094   4.584  18.670  0.00  0.00    +0.000 A 
ATOM     33  C   UNL     1       3.246   5.731  17.903  0.00  0.00    +0.000 A 
ATOM     34  C   UNL     1       2.764   6.956  18.377  0.00  0.00    +0.000 A 
ENDBRANCH  26  29
ENDBRANCH  20  22
ENDBRANCH   1  20
TORSDOF 4
ENDMDL
