MODEL 1
REMARK VINA RESULT:     -10.2      0.000      0.000
REMARK  Name = 
REMARK  4 active torsions:
REMARK  status: ('A' for Active; 'I' for Inactive)
REMARK    1  A    between atoms: C_1  and  C_2
REMARK    2  A    between atoms: C_7  and  N_8
REMARK    3  A    between atoms: C_9  and  C_11
REMARK    4  A    between atoms: C_11  and  C_12
REMARK                            x       y       z     vdW  Elec       q    Type
REMARK                         _______ _______ _______ _____ _____    ______ ____
ROOT
ATOM      1  N   UNL     1       2.362   7.412  19.043  0.00  0.00    +0.000 N 
ATOM      2  C   UNL     1       1.805   8.633  18.585  0.00  0.00    +0.000 C 
ATOM      3  O   UNL     1       1.906   8.942  17.388  0.00  0.00    +0.000 OA
ATOM      4  H   UNL     1       2.284   7.210  20.025  0.00  0.00    +0.000 HD
ENDROOT
BRANCH   1  11
ATOM      5  C   UNL     1       5.340   4.090  13.609  0.00  0.00    +0.000 C 
ATOM      6  C   UNL     1       6.102   3.960  14.933  0.00  0.00    +0.000 C 
ATOM      7  O   UNL     1       5.226   3.471  15.964  0.00  0.00    +0.000 OA
ATOM      8  C   UNL     1       4.585   4.429  16.717  0.00  0.00    +0.000 A 
ATOM      9  C   UNL     1       3.574   4.025  17.600  0.00  0.00    +0.000 A 
ATOM     10  C   UNL     1       2.851   4.969  18.402  0.00  0.00    +0.000 A 
ATOM     11  C   UNL     1       3.101   6.348  18.331  0.00  0.00    +0.000 A 
ATOM     12  C   UNL     1       4.176   6.719  17.466  0.00  0.00    +0.000 A 
ATOM     13  C   UNL     1       4.922   5.775  16.694  0.00  0.00    +0.000 A 
ATOM     14  N   UNL     1       6.053   6.180  15.963  0.00  0.00    +0.000 N 
ATOM     15  C   UNL     1       6.808   5.294  15.203  0.00  0.00    +0.000 C 
ATOM     16  O   UNL     1       7.876   5.622  14.706  0.00  0.00    +0.000 OA
ATOM     17  H   UNL     1       6.454   7.095  16.078  0.00  0.00    +0.000 HD
ENDBRANCH   1  11
BRANCH   2  18
ATOM     18  C   UNL     1       1.038   9.787  19.594  0.00  0.00    +0.000 C 
BRANCH  18  19
ATOM     19  C   UNL     1      -0.332  10.471  19.283  0.00  0.00    +0.000 A 
ATOM     20  C   UNL     1      -0.590  11.415  20.249  0.00  0.00    +0.000 A 
ATOM     21  C   UNL     1      -1.171  12.556  19.796  0.00  0.00    +0.000 A 
ATOM     22  C   UNL     1      -2.425  12.276  19.341  0.00  0.00    +0.000 A 
ATOM     23  C   UNL     1      -2.515  11.277  18.389  0.00  0.00    +0.000 A 
ATOM     24  C   UNL     1      -3.721  11.303  17.669  0.00  0.00    +0.000 A 
ATOM     25  C   UNL     1      -3.861  10.639  16.470  0.00  0.00    +0.000 A 
ATOM     26  C   UNL     1      -2.764   9.924  16.024  0.00  0.00    +0.000 A 
ATOM     27  C   UNL     1      -1.578   9.771  16.841  0.00  0.00    +0.000 A 
ATOM     28  C   UNL     1      -1.378  10.423  18.147  0.00  0.00    +0.000 A 
ENDBRANCH  18  19
ENDBRANCH   2  18
TORSDOF 3
ENDMDL
MODEL 2
REMARK VINA RESULT:      -9.8      1.215      1.240
REMARK  Name = 
REMARK  4 active torsions:
REMARK  status: ('A' for Active; 'I' for Inactive)
REMARK    1  A    between atoms: C_1  and  C_2
REMARK    2  A    between atoms: C_7  and  N_8
REMARK    3  A    between atoms: C_9  and  C_11
REMARK    4  A    between atoms: C_11  and  C_12
REMARK                            x       y       z     vdW  Elec       q    Type
REMARK                         _______ _______ _______ _____ _____    ______ ____
ROOT
ATOM      1  N   UNL     1       2.106   8.256  18.964  0.00  0.00    +0.000 N 
ATOM      2  C   UNL     1       1.443   8.536  20.186  0.00  0.00    +0.000 C 
ATOM      3  O   UNL     1       1.266   7.625  21.009  0.00  0.00    +0.000 OA
ATOM      4  H   UNL     1       2.205   9.014  18.311  0.00  0.00    +0.000 HD
ENDROOT
BRANCH   1  11
ATOM      5  C   UNL     1       5.614   4.103  14.507  0.00  0.00    +0.000 C 
ATOM      6  C   UNL     1       5.764   3.724  15.984  0.00  0.00    +0.000 C 
ATOM      7  O   UNL     1       4.468   3.566  16.590  0.00  0.00    +0.000 OA
ATOM      8  C   UNL     1       3.940   4.687  17.190  0.00  0.00    +0.000 A 
ATOM      9  C   UNL     1       2.608   4.655  17.622  0.00  0.00    +0.000 A 
ATOM     10  C   UNL     1       1.986   5.791  18.238  0.00  0.00    +0.000 A 
ATOM     11  C   UNL     1       2.671   7.002  18.423  0.00  0.00    +0.000 A 
ATOM     12  C   UNL     1       4.043   6.982  18.025  0.00  0.00    +0.000 A 
ATOM     13  C   UNL     1       4.674   5.838  17.445  0.00  0.00    +0.000 A 
ATOM     14  N   UNL     1       6.057   5.831  17.196  0.00  0.00    +0.000 N 
ATOM     15  C   UNL     1       6.711   4.739  16.637  0.00  0.00    +0.000 C 
ATOM     16  O   UNL     1       7.931   4.681  16.575  0.00  0.00    +0.000 OA
ATOM     17  H   UNL     1       6.660   6.555  17.550  0.00  0.00    +0.000 HD
ENDBRANCH   1  11
BRANCH   2  18
ATOM     18  C   UNL     1       0.785  10.062  20.605  0.00  0.00    +0.000 C 
BRANCH  18  19
ATOM     19  C   UNL     1      -0.543  10.648  20.030  0.00  0.00    +0.000 A 
ATOM     20  C   UNL     1      -1.033  11.590  20.905  0.00  0.00    +0.000 A 
ATOM     21  C   UNL     1      -1.590  12.682  20.321  0.00  0.00    +0.000 A 
ATOM     22  C   UNL     1      -2.718  12.311  19.653  0.00  0.00    +0.000 A 
ATOM     23  C   UNL     1      -2.570  11.293  18.730  0.00  0.00    +0.000 A 
ATOM     24  C   UNL     1      -3.622  11.227  17.801  0.00  0.00    +0.000 A 
ATOM     25  C   UNL     1      -3.497  10.535  16.616  0.00  0.00    +0.000 A 
ATOM     26  C   UNL     1      -2.295   9.887  16.398  0.00  0.00    +0.000 A 
ATOM     27  C   UNL     1      -1.272   9.826  17.423  0.00  0.00    +0.000 A 
ATOM     28  C   UNL     1      -1.357  10.512  18.724  0.00  0.00    +0.000 A 
ENDBRANCH  18  19
ENDBRANCH   2  18
TORSDOF 3
ENDMDL
MODEL 3
REMARK VINA RESULT:      -9.6      2.490      2.748
REMARK  Name = 
REMARK  4 active torsions:
REMARK  status: ('A' for Active; 'I' for Inactive)
REMARK    1  A    between atoms: C_1  and  C_2
REMARK    2  A    between atoms: C_7  and  N_8
REMARK    3  A    between atoms: C_9  and  C_11
REMARK    4  A    between atoms: C_11  and  C_12
REMARK                            x       y       z     vdW  Elec       q    Type
REMARK                         _______ _______ _______ _____ _____    ______ ____
ROOT
ATOM      1  N   UNL     1       2.083   6.531  20.416  0.00  0.00    +0.000 N 
ATOM      2  C   UNL     1       1.677   7.889  20.382  0.00  0.00    +0.000 C 
ATOM      3  O   UNL     1       1.818   8.545  19.338  0.00  0.00    +0.000 OA
ATOM      4  H   UNL     1       1.978   6.041  21.288  0.00  0.00    +0.000 HD
ENDROOT
BRANCH   1  11
ATOM      5  C   UNL     1       5.899   4.892  14.743  0.00  0.00    +0.000 C 
ATOM      6  C   UNL     1       5.964   3.862  15.876  0.00  0.00    +0.000 C 
ATOM      7  O   UNL     1       4.635   3.462  16.259  0.00  0.00    +0.000 OA
ATOM      8  C   UNL     1       4.061   4.179  17.284  0.00  0.00    +0.000 A 
ATOM      9  C   UNL     1       2.705   3.973  17.571  0.00  0.00    +0.000 A 
ATOM     10  C   UNL     1       2.034   4.698  18.611  0.00  0.00    +0.000 A 
ATOM     11  C   UNL     1       2.693   5.667  19.383  0.00  0.00    +0.000 A 
ATOM     12  C   UNL     1       4.087   5.810  19.104  0.00  0.00    +0.000 A 
ATOM     13  C   UNL     1       4.765   5.062  18.092  0.00  0.00    +0.000 A 
ATOM     14  N   UNL     1       6.161   5.146  17.951  0.00  0.00    +0.000 N 
ATOM     15  C   UNL     1       6.859   4.433  16.982  0.00  0.00    +0.000 C 
ATOM     16  O   UNL     1       8.081   4.387  16.973  0.00  0.00    +0.000 OA
ATOM     17  H   UNL     1       6.733   5.607  18.638  0.00  0.00    +0.000 HD
ENDBRANCH   1  11
BRANCH   2  18
ATOM     18  C   UNL     1       1.049   8.747  21.726  0.00  0.00    +0.000 C 
BRANCH  18  19
ATOM     19  C   UNL     1       0.128  10.005  21.628  0.00  0.00    +0.000 A 
ATOM     20  C   UNL     1      -0.812   9.950  22.631  0.00  0.00    +0.000 A 
ATOM     21  C   UNL     1      -1.107  11.144  23.207  0.00  0.00    +0.000 A 
ATOM     22  C   UNL     1      -1.722  11.948  22.294  0.00  0.00    +0.000 A 
ATOM     23  C   UNL     1      -1.046  12.140  21.103  0.00  0.00    +0.000 A 
ATOM     24  C   UNL     1      -1.495  13.262  20.385  0.00  0.00    +0.000 A 
ATOM     25  C   UNL     1      -0.740  13.823  19.378  0.00  0.00    +0.000 A 
ATOM     26  C   UNL     1       0.466  13.212  19.091  0.00  0.00    +0.000 A 
ATOM     27  C   UNL     1       0.854  11.967  19.724  0.00  0.00    +0.000 A 
ATOM     28  C   UNL     1       0.078  11.296  20.781  0.00  0.00    +0.000 A 
ENDBRANCH  18  19
ENDBRANCH   2  18
TORSDOF 3
ENDMDL
MODEL 4
REMARK VINA RESULT:      -9.6      2.958      9.486
REMARK  Name = 
REMARK  4 active torsions:
REMARK  status: ('A' for Active; 'I' for Inactive)
REMARK    1  A    between atoms: C_1  and  C_2
REMARK    2  A    between atoms: C_7  and  N_8
REMARK    3  A    between atoms: C_9  and  C_11
REMARK    4  A    between atoms: C_11  and  C_12
REMARK                            x       y       z     vdW  Elec       q    Type
REMARK                         _______ _______ _______ _____ _____    ______ ____
ROOT
ATOM      1  N   UNL     1       1.386   9.487  18.116  0.00  0.00    +0.000 N 
ATOM      2  C   UNL     1       2.098   8.375  18.632  0.00  0.00    +0.000 C 
ATOM      3  O   UNL     1       1.866   7.979  19.785  0.00  0.00    +0.000 OA
ATOM      4  H   UNL     1       1.622   9.794  17.188  0.00  0.00    +0.000 HD
ENDROOT
BRANCH   1  11
ATOM      5  C   UNL     1      -2.703  12.165  23.169  0.00  0.00    +0.000 C 
ATOM      6  C   UNL     1      -2.256  13.175  22.107  0.00  0.00    +0.000 C 
ATOM      7  O   UNL     1      -2.586  12.692  20.792  0.00  0.00    +0.000 OA
ATOM      8  C   UNL     1      -1.608  11.966  20.152  0.00  0.00    +0.000 A 
ATOM      9  C   UNL     1      -1.933  11.303  18.961  0.00  0.00    +0.000 A 
ATOM     10  C   UNL     1      -0.970  10.513  18.250  0.00  0.00    +0.000 A 
ATOM     11  C   UNL     1       0.342  10.344  18.718  0.00  0.00    +0.000 A 
ATOM     12  C   UNL     1       0.656  11.079  19.901  0.00  0.00    +0.000 A 
ATOM     13  C   UNL     1      -0.292  11.896  20.591  0.00  0.00    +0.000 A 
ATOM     14  N   UNL     1       0.106  12.702  21.672  0.00  0.00    +0.000 N 
ATOM     15  C   UNL     1      -0.783  13.514  22.368  0.00  0.00    +0.000 C 
ATOM     16  O   UNL     1      -0.399  14.327  23.195  0.00  0.00    +0.000 OA
ATOM     17  H   UNL     1       1.077  12.842  21.895  0.00  0.00    +0.000 HD
ENDBRANCH   1  11
BRANCH   2  18
ATOM     18  C   UNL     1       3.342   7.546  17.793  0.00  0.00    +0.000 C 
BRANCH  18  19
ATOM     19  C   UNL     1       3.425   5.995  17.628  0.00  0.00    +0.000 A 
ATOM     20  C   UNL     1       4.516   5.685  16.850  0.00  0.00    +0.000 A 
ATOM     21  C   UNL     1       5.197   4.574  17.232  0.00  0.00    +0.000 A 
ATOM     22  C   UNL     1       4.409   3.477  17.054  0.00  0.00    +0.000 A 
ATOM     23  C   UNL     1       3.168   3.516  17.662  0.00  0.00    +0.000 A 
ATOM     24  C   UNL     1       2.576   2.249  17.799  0.00  0.00    +0.000 A 
ATOM     25  C   UNL     1       1.533   2.030  18.672  0.00  0.00    +0.000 A 
ATOM     26  C   UNL     1       1.080   3.123  19.387  0.00  0.00    +0.000 A 
ATOM     27  C   UNL     1       1.586   4.457  19.131  0.00  0.00    +0.000 A 
ATOM     28  C   UNL     1       2.674   4.766  18.186  0.00  0.00    +0.000 A 
ENDBRANCH  18  19
ENDBRANCH   2  18
TORSDOF 3
ENDMDL
MODEL 5
REMARK VINA RESULT:      -9.4      3.592      9.489
REMARK  Name = 
REMARK  4 active torsions:
REMARK  status: ('A' for Active; 'I' for Inactive)
REMARK    1  A    between atoms: C_1  and  C_2
REMARK    2  A    between atoms: C_7  and  N_8
REMARK    3  A    between atoms: C_9  and  C_11
REMARK    4  A    between atoms: C_11  and  C_12
REMARK                            x       y       z     vdW  Elec       q    Type
REMARK                         _______ _______ _______ _____ _____    ______ ____
ROOT
ATOM      1  N   UNL     1       1.740   8.524  20.096  0.00  0.00    +0.000 N 
ATOM      2  C   UNL     1       1.904   8.509  18.687  0.00  0.00    +0.000 C 
ATOM      3  O   UNL     1       1.161   9.204  17.976  0.00  0.00    +0.000 OA
ATOM      4  H   UNL     1       2.343   7.927  20.635  0.00  0.00    +0.000 HD
ENDROOT
BRANCH   1  11
ATOM      5  C   UNL     1      -1.167  14.029  23.362  0.00  0.00    +0.000 C 
ATOM      6  C   UNL     1      -2.167  12.978  22.869  0.00  0.00    +0.000 C 
ATOM      7  O   UNL     1      -1.806  11.677  23.366  0.00  0.00    +0.000 OA
ATOM      8  C   UNL     1      -0.994  10.922  22.550  0.00  0.00    +0.000 A 
ATOM      9  C   UNL     1      -0.448   9.736  23.057  0.00  0.00    +0.000 A 
ATOM     10  C   UNL     1       0.421   8.909  22.271  0.00  0.00    +0.000 A 
ATOM     11  C   UNL     1       0.788   9.253  20.961  0.00  0.00    +0.000 A 
ATOM     12  C   UNL     1       0.168  10.436  20.456  0.00  0.00    +0.000 A 
ATOM     13  C   UNL     1      -0.727  11.242  21.226  0.00  0.00    +0.000 A 
ATOM     14  N   UNL     1      -1.411  12.319  20.636  0.00  0.00    +0.000 N 
ATOM     15  C   UNL     1      -2.293  13.125  21.347  0.00  0.00    +0.000 C 
ATOM     16  O   UNL     1      -3.001  13.952  20.791  0.00  0.00    +0.000 OA
ATOM     17  H   UNL     1      -1.409  12.462  19.640  0.00  0.00    +0.000 HD
ENDBRANCH   1  11
BRANCH   2  18
ATOM     18  C   UNL     1       3.034   7.527  17.853  0.00  0.00    +0.000 C 
BRANCH  18  19
ATOM     19  C   UNL     1       3.133   5.974  17.984  0.00  0.00    +0.000 A 
ATOM     20  C   UNL     1       4.118   5.515  17.140  0.00  0.00    +0.000 A 
ATOM     21  C   UNL     1       4.872   4.500  17.636  0.00  0.00    +0.000 A 
ATOM     22  C   UNL     1       4.095   3.390  17.784  0.00  0.00    +0.000 A 
ATOM     23  C   UNL     1       2.946   3.550  18.537  0.00  0.00    +0.000 A 
ATOM     24  C   UNL     1       2.410   2.336  18.998  0.00  0.00    +0.000 A 
ATOM     25  C   UNL     1       1.500   2.295  20.031  0.00  0.00    +0.000 A 
ATOM     26  C   UNL     1       1.119   3.508  20.573  0.00  0.00    +0.000 A 
ATOM     27  C   UNL     1       1.553   4.764  19.995  0.00  0.00    +0.000 A 
ATOM     28  C   UNL     1       2.495   4.880  18.869  0.00  0.00    +0.000 A 
ENDBRANCH  18  19
ENDBRANCH   2  18
TORSDOF 3
ENDMDL
MODEL 6
REMARK VINA RESULT:      -9.4      0.921      1.192
REMARK  Name = 
REMARK  4 active torsions:
REMARK  status: ('A' for Active; 'I' for Inactive)
REMARK    1  A    between atoms: C_1  and  C_2
REMARK    2  A    between atoms: C_7  and  N_8
REMARK    3  A    between atoms: C_9  and  C_11
REMARK    4  A    between atoms: C_11  and  C_12
REMARK                            x       y       z     vdW  Elec       q    Type
REMARK                         _______ _______ _______ _____ _____    ______ ____
ROOT
ATOM      1  N   UNL     1       2.669   6.508  19.784  0.00  0.00    +0.000 N 
ATOM      2  C   UNL     1       2.044   7.756  19.539  0.00  0.00    +0.000 C 
ATOM      3  O   UNL     1       2.074   8.244  18.399  0.00  0.00    +0.000 OA
ATOM      4  H   UNL     1       2.647   6.158  20.726  0.00  0.00    +0.000 HD
ENDROOT
BRANCH   1  11
ATOM      5  C   UNL     1       5.345   4.073  13.755  0.00  0.00    +0.000 C 
ATOM      6  C   UNL     1       6.241   3.867  14.981  0.00  0.00    +0.000 C 
ATOM      7  O   UNL     1       5.511   3.193  16.023  0.00  0.00    +0.000 OA
ATOM      8  C   UNL     1       4.876   4.003  16.936  0.00  0.00    +0.000 A 
ATOM      9  C   UNL     1       3.992   3.418  17.852  0.00  0.00    +0.000 A 
ATOM     10  C   UNL     1       3.280   4.201  18.820  0.00  0.00    +0.000 A 
ATOM     11  C   UNL     1       3.415   5.596  18.890  0.00  0.00    +0.000 A 
ATOM     12  C   UNL     1       4.367   6.153  17.981  0.00  0.00    +0.000 A 
ATOM     13  C   UNL     1       5.104   5.368  17.041  0.00  0.00    +0.000 A 
ATOM     14  N   UNL     1       6.123   5.948  16.265  0.00  0.00    +0.000 N 
ATOM     15  C   UNL     1       6.866   5.221  15.341  0.00  0.00    +0.000 C 
ATOM     16  O   UNL     1       7.851   5.693  14.793  0.00  0.00    +0.000 OA
ATOM     17  H   UNL     1       6.462   6.877  16.450  0.00  0.00    +0.000 HD
ENDBRANCH   1  11
BRANCH   2  18
ATOM     18  C   UNL     1       1.281   8.710  20.742  0.00  0.00    +0.000 C 
BRANCH  18  19
ATOM     19  C   UNL     1       0.235   9.834  20.456  0.00  0.00    +0.000 A 
ATOM     20  C   UNL     1       0.214  10.707  21.518  0.00  0.00    +0.000 A 
ATOM     21  C   UNL     1       0.071  12.016  21.184  0.00  0.00    +0.000 A 
ATOM     22  C   UNL     1      -1.164  12.211  20.641  0.00  0.00    +0.000 A 
ATOM     23  C   UNL     1      -1.491  11.400  19.570  0.00  0.00    +0.000 A 
ATOM     24  C   UNL     1      -2.560  11.895  18.804  0.00  0.00    +0.000 A 
ATOM     25  C   UNL     1      -2.805  11.440  17.527  0.00  0.00    +0.000 A 
ATOM     26  C   UNL     1      -1.963  10.454  17.046  0.00  0.00    +0.000 A 
ATOM     27  C   UNL     1      -0.961   9.836  17.892  0.00  0.00    +0.000 A 
ATOM     28  C   UNL     1      -0.672  10.249  19.276  0.00  0.00    +0.000 A 
ENDBRANCH  18  19
ENDBRANCH   2  18
TORSDOF 3
ENDMDL
MODEL 7
REMARK VINA RESULT:      -9.4      2.936      9.503
REMARK  Name = 
REMARK  4 active torsions:
REMARK  status: ('A' for Active; 'I' for Inactive)
REMARK    1  A    between atoms: C_1  and  C_2
REMARK    2  A    between atoms: C_7  and  N_8
REMARK    3  A    between atoms: C_9  and  C_11
REMARK    4  A    between atoms: C_11  and  C_12
REMARK                            x       y       z     vdW  Elec       q    Type
REMARK                         _______ _______ _______ _____ _____    ______ ____
ROOT
ATOM      1  N   UNL     1       1.019   9.444  17.794  0.00  0.00    +0.000 N 
ATOM      2  C   UNL     1       1.853   8.588  18.556  0.00  0.00    +0.000 C 
ATOM      3  O   UNL     1       1.624   8.425  19.765  0.00  0.00    +0.000 OA
ATOM      4  H   UNL     1       1.254   9.571  16.824  0.00  0.00    +0.000 HD
ENDROOT
BRANCH   1  11
ATOM      5  C   UNL     1      -3.556  12.653  22.060  0.00  0.00    +0.000 C 
ATOM      6  C   UNL     1      -3.245  13.416  20.768  0.00  0.00    +0.000 C 
ATOM      7  O   UNL     1      -3.464  12.568  19.626  0.00  0.00    +0.000 OA
ATOM      8  C   UNL     1      -2.370  11.864  19.177  0.00  0.00    +0.000 A 
ATOM      9  C   UNL     1      -2.560  10.877  18.200  0.00  0.00    +0.000 A 
ATOM     10  C   UNL     1      -1.469  10.091  17.699  0.00  0.00    +0.000 A 
ATOM     11  C   UNL     1      -0.158  10.253  18.173  0.00  0.00    +0.000 A 
ATOM     12  C   UNL     1       0.009  11.306  19.125  0.00  0.00    +0.000 A 
ATOM     13  C   UNL     1      -1.070  12.114  19.598  0.00  0.00    +0.000 A 
ATOM     14  N   UNL     1      -0.828  13.221  20.430  0.00  0.00    +0.000 N 
ATOM     15  C   UNL     1      -1.848  14.034  20.910  0.00  0.00    +0.000 C 
ATOM     16  O   UNL     1      -1.615  15.082  21.496  0.00  0.00    +0.000 OA
ATOM     17  H   UNL     1       0.104  13.562  20.594  0.00  0.00    +0.000 HD
ENDBRANCH   1  11
BRANCH   2  18
ATOM     18  C   UNL     1       3.236   7.783  17.942  0.00  0.00    +0.000 C 
BRANCH  18  19
ATOM     19  C   UNL     1       3.335   6.243  17.697  0.00  0.00    +0.000 A 
ATOM     20  C   UNL     1       4.401   5.990  16.864  0.00  0.00    +0.000 A 
ATOM     21  C   UNL     1       5.111   4.873  17.166  0.00  0.00    +0.000 A 
ATOM     22  C   UNL     1       4.333   3.773  16.962  0.00  0.00    +0.000 A 
ATOM     23  C   UNL     1       3.116   3.761  17.617  0.00  0.00    +0.000 A 
ATOM     24  C   UNL     1       2.548   2.479  17.712  0.00  0.00    +0.000 A 
ATOM     25  C   UNL     1       1.541   2.200  18.610  0.00  0.00    +0.000 A 
ATOM     26  C   UNL     1       1.100   3.250  19.395  0.00  0.00    +0.000 A 
ATOM     27  C   UNL     1       1.577   4.602  19.187  0.00  0.00    +0.000 A 
ATOM     28  C   UNL     1       2.623   4.976  18.220  0.00  0.00    +0.000 A 
ENDBRANCH  18  19
ENDBRANCH   2  18
TORSDOF 3
ENDMDL
MODEL 8
REMARK VINA RESULT:      -9.3      2.818      9.170
REMARK  Name = 
REMARK  4 active torsions:
REMARK  status: ('A' for Active; 'I' for Inactive)
REMARK    1  A    between atoms: C_1  and  C_2
REMARK    2  A    between atoms: C_7  and  N_8
REMARK    3  A    between atoms: C_9  and  C_11
REMARK    4  A    between atoms: C_11  and  C_12
REMARK                            x       y       z     vdW  Elec       q    Type
REMARK                         _______ _______ _______ _____ _____    ______ ____
ROOT
ATOM      1  N   UNL     1       3.068   6.250  18.214  0.00  0.00    +0.000 N 
ATOM      2  C   UNL     1       2.690   4.970  17.736  0.00  0.00    +0.000 C 
ATOM      3  O   UNL     1       1.537   4.558  17.934  0.00  0.00    +0.000 OA
ATOM      4  H   UNL     1       4.019   6.537  18.058  0.00  0.00    +0.000 HD
ENDROOT
BRANCH   1  11
ATOM      5  C   UNL     1       1.415  12.656  20.593  0.00  0.00    +0.000 C 
ATOM      6  C   UNL     1       0.211  11.758  20.287  0.00  0.00    +0.000 C 
ATOM      7  O   UNL     1       0.338  10.504  20.982  0.00  0.00    +0.000 OA
ATOM      8  C   UNL     1       0.954   9.488  20.287  0.00  0.00    +0.000 A 
ATOM      9  C   UNL     1       1.285   8.310  20.971  0.00  0.00    +0.000 A 
ATOM     10  C   UNL     1       1.944   7.218  20.317  0.00  0.00    +0.000 A 
ATOM     11  C   UNL     1       2.312   7.276  18.964  0.00  0.00    +0.000 A 
ATOM     12  C   UNL     1       1.908   8.466  18.283  0.00  0.00    +0.000 A 
ATOM     13  C   UNL     1       1.219   9.540  18.925  0.00  0.00    +0.000 A 
ATOM     14  N   UNL     1       0.728  10.626  18.179  0.00  0.00    +0.000 N 
ATOM     15  C   UNL     1       0.050  11.690  18.764  0.00  0.00    +0.000 C 
ATOM     16  O   UNL     1      -0.511  12.543  18.091  0.00  0.00    +0.000 OA
ATOM     17  H   UNL     1       0.714  10.611  17.173  0.00  0.00    +0.000 HD
ENDBRANCH   1  11
BRANCH   2  18
ATOM     18  C   UNL     1       3.748   3.881  16.940  0.00  0.00    +0.000 C 
BRANCH  18  19
ATOM     19  C   UNL     1       5.037   4.299  16.163  0.00  0.00    +0.000 A 
ATOM     20  C   UNL     1       5.920   4.882  17.041  0.00  0.00    +0.000 A 
ATOM     21  C   UNL     1       7.226   4.574  16.832  0.00  0.00    +0.000 A 
ATOM     22  C   UNL     1       7.630   5.100  15.642  0.00  0.00    +0.000 A 
ATOM     23  C   UNL     1       6.871   4.759  14.538  0.00  0.00    +0.000 A 
ATOM     24  C   UNL     1       7.535   4.972  13.318  0.00  0.00    +0.000 A 
ATOM     25  C   UNL     1       7.107   4.381  12.150  0.00  0.00    +0.000 A 
ATOM     26  C   UNL     1       5.975   3.591  12.231  0.00  0.00    +0.000 A 
ATOM     27  C   UNL     1       5.204   3.498  13.454  0.00  0.00    +0.000 A 
ATOM     28  C   UNL     1       5.585   4.132  14.728  0.00  0.00    +0.000 A 
ENDBRANCH  18  19
ENDBRANCH   2  18
TORSDOF 3
ENDMDL
MODEL 9
REMARK VINA RESULT:      -9.2      6.450      9.783
REMARK  Name = 
REMARK  4 active torsions:
REMARK  status: ('A' for Active; 'I' for Inactive)
REMARK    1  A    between atoms: C_1  and  C_2
REMARK    2  A    between atoms: C_7  and  N_8
REMARK    3  A    between atoms: C_9  and  C_11
REMARK    4  A    between atoms: C_11  and  C_12
REMARK                            x       y       z     vdW  Elec       q    Type
REMARK                         _______ _______ _______ _____ _____    ______ ____
ROOT
ATOM      1  N   UNL     1       8.936   8.911  19.129  0.00  0.00    +0.000 N 
ATOM      2  C   UNL     1       8.181   8.119  18.228  0.00  0.00    +0.000 C 
ATOM      3  O   UNL     1       7.738   8.628  17.187  0.00  0.00    +0.000 OA
ATOM      4  H   UNL     1       9.254   8.469  19.974  0.00  0.00    +0.000 HD
ENDROOT
BRANCH   1  11
ATOM      5  C   UNL     1       8.394  15.841  20.176  0.00  0.00    +0.000 C 
ATOM      6  C   UNL     1       9.813  15.282  20.325  0.00  0.00    +0.000 C 
ATOM      7  O   UNL     1      10.178  14.538  19.148  0.00  0.00    +0.000 OA
ATOM      8  C   UNL     1       9.914  13.188  19.181  0.00  0.00    +0.000 A 
ATOM      9  C   UNL     1      10.061  12.445  18.002  0.00  0.00    +0.000 A 
ATOM     10  C   UNL     1       9.785  11.038  17.957  0.00  0.00    +0.000 A 
ATOM     11  C   UNL     1       9.333  10.334  19.084  0.00  0.00    +0.000 A 
ATOM     12  C   UNL     1       9.249  11.109  20.281  0.00  0.00    +0.000 A 
ATOM     13  C   UNL     1       9.559  12.503  20.336  0.00  0.00    +0.000 A 
ATOM     14  N   UNL     1       9.589  13.184  21.565  0.00  0.00    +0.000 N 
ATOM     15  C   UNL     1       9.889  14.538  21.664  0.00  0.00    +0.000 C 
ATOM     16  O   UNL     1      10.070  15.080  22.744  0.00  0.00    +0.000 OA
ATOM     17  H   UNL     1       9.542  12.692  22.442  0.00  0.00    +0.000 HD
ENDBRANCH   1  11
BRANCH   2  18
ATOM     18  C   UNL     1       7.759   6.479  18.496  0.00  0.00    +0.000 C 
BRANCH  18  19
ATOM     19  C   UNL     1       6.519   5.765  17.871  0.00  0.00    +0.000 A 
ATOM     20  C   UNL     1       6.848   5.316  16.613  0.00  0.00    +0.000 A 
ATOM     21  C   UNL     1       6.328   4.106  16.281  0.00  0.00    +0.000 A 
ATOM     22  C   UNL     1       4.971   4.205  16.195  0.00  0.00    +0.000 A 
ATOM     23  C   UNL     1       4.328   4.718  17.306  0.00  0.00    +0.000 A 
ATOM     24  C   UNL     1       2.954   4.426  17.336  0.00  0.00    +0.000 A 
ATOM     25  C   UNL     1       2.219   4.533  18.497  0.00  0.00    +0.000 A 
ATOM     26  C   UNL     1       2.894   4.968  19.623  0.00  0.00    +0.000 A 
ATOM     27  C   UNL     1       4.270   5.416  19.553  0.00  0.00    +0.000 A 
ATOM     28  C   UNL     1       5.102   5.362  18.338  0.00  0.00    +0.000 A 
ENDBRANCH  18  19
ENDBRANCH   2  18
TORSDOF 3
ENDMDL
