MODEL 1
REMARK VINA RESULT:      -6.9      0.000      0.000
REMARK  Name = 
REMARK  5 active torsions:
REMARK  status: ('A' for Active; 'I' for Inactive)
REMARK    1  A    between atoms: C_1  and  C_2
REMARK    2  A    between atoms: C_2  and  C_3
REMARK    3  A    between atoms: N_6  and  C_7
REMARK    4  A    between atoms: C_16  and  C_17
REMARK    5  A    between atoms: N_25  and  C_26
REMARK                            x       y       z     vdW  Elec       q    Type
REMARK                         _______ _______ _______ _____ _____    ______ ____
ROOT
ATOM      1  C   UNL     1      10.452  14.450  18.088  0.00  0.00    +0.000 C 
ATOM      2  C   UNL     1      10.384  15.829  17.414  0.00  0.00    +0.000 C 
ATOM      3  O   UNL     1      11.114  16.085  16.454  0.00  0.00    +0.000 OA
ATOM      4  N   UNL     1       9.584  16.787  18.009  0.00  0.00    +0.000 N 
ATOM      5  C   UNL     1       9.767  18.183  17.655  0.00  0.00    +0.000 C 
ATOM      6  C   UNL     1       8.522  16.393  18.858  0.00  0.00    +0.000 A 
ATOM      7  C   UNL     1       7.520  17.276  19.233  0.00  0.00    +0.000 A 
ATOM      8  N   UNL     1       6.426  16.939  19.932  0.00  0.00    +0.000 NA
ATOM      9  C   UNL     1       6.377  15.667  20.350  0.00  0.00    +0.000 A 
ATOM     10  N   UNL     1       5.290  15.326  21.200  0.00  0.00    +0.000 N 
ATOM     11  C   UNL     1       4.034  15.899  21.138  0.00  0.00    +0.000 A 
ATOM     12  C   UNL     1       3.256  15.180  22.011  0.00  0.00    +0.000 A 
ATOM     13  N   UNL     1       4.011  14.261  22.679  0.00  0.00    +0.000 NA
ATOM     14  C   UNL     1       5.263  14.422  22.258  0.00  0.00    +0.000 A 
ATOM     15  N   UNL     1       7.309  14.733  20.058  0.00  0.00    +0.000 NA
ATOM     16  C   UNL     1       8.374  15.074  19.294  0.00  0.00    +0.000 A 
ATOM     17  N   UNL     1       9.337  14.093  19.004  0.00  0.00    +0.000 N 
ENDROOT
BRANCH  14  18
ATOM     18  C   UNL     1       6.429  13.827  22.934  0.00  0.00    +0.000 A 
ATOM     19  C   UNL     1       6.612  12.439  22.902  0.00  0.00    +0.000 A 
ATOM     20  C   UNL     1       7.692  11.842  23.560  0.00  0.00    +0.000 A 
ATOM     21  C   UNL     1       8.607  12.627  24.259  0.00  0.00    +0.000 A 
ATOM     22  C   UNL     1       8.424  14.003  24.329  0.00  0.00    +0.000 A 
ATOM     23  C   UNL     1       7.329  14.592  23.696  0.00  0.00    +0.000 A 
ENDBRANCH  14  18
BRANCH  17  24
ATOM     24  C   UNL     1       8.889  12.683  19.133  0.00  0.00    +0.000 C 
ATOM     25  C   UNL     1       9.215  11.815  17.914  0.00  0.00    +0.000 C 
ATOM     26  C   UNL     1       9.077  10.382  18.426  0.00  0.00    +0.000 C 
ATOM     27  C   UNL     1       9.434  10.427  19.908  0.00  0.00    +0.000 C 
ATOM     28  C   UNL     1       9.543  11.904  20.277  0.00  0.00    +0.000 C 
ENDBRANCH  17  24
BRANCH   1  30
ATOM     29  C   UNL     1      11.970  15.104  20.110  0.00  0.00    +0.000 C 
ATOM     30  C   UNL     1      11.840  14.380  18.776  0.00  0.00    +0.000 C 
ENDBRANCH   1  30
TORSDOF 3
ENDMDL
MODEL 2
REMARK VINA RESULT:      -6.7      9.862     13.362
REMARK  Name = 
REMARK  5 active torsions:
REMARK  status: ('A' for Active; 'I' for Inactive)
REMARK    1  A    between atoms: C_1  and  C_2
REMARK    2  A    between atoms: C_2  and  C_3
REMARK    3  A    between atoms: N_6  and  C_7
REMARK    4  A    between atoms: C_16  and  C_17
REMARK    5  A    between atoms: N_25  and  C_26
REMARK                            x       y       z     vdW  Elec       q    Type
REMARK                         _______ _______ _______ _____ _____    ______ ____
ROOT
ATOM      1  C   UNL     1      -4.949  14.290  22.807  0.00  0.00    +0.000 C 
ATOM      2  C   UNL     1      -6.390  13.769  22.917  0.00  0.00    +0.000 C 
ATOM      3  O   UNL     1      -7.167  14.265  23.737  0.00  0.00    +0.000 OA
ATOM      4  N   UNL     1      -6.721  12.655  22.168  0.00  0.00    +0.000 N 
ATOM      5  C   UNL     1      -7.916  11.903  22.504  0.00  0.00    +0.000 C 
ATOM      6  C   UNL     1      -5.968  12.331  21.014  0.00  0.00    +0.000 A 
ATOM      7  C   UNL     1      -6.428  11.423  20.072  0.00  0.00    +0.000 A 
ATOM      8  N   UNL     1      -5.825  11.161  18.903  0.00  0.00    +0.000 NA
ATOM      9  C   UNL     1      -4.654  11.782  18.706  0.00  0.00    +0.000 A 
ATOM     10  N   UNL     1      -3.940  11.419  17.532  0.00  0.00    +0.000 N 
ATOM     11  C   UNL     1      -4.527  11.032  16.342  0.00  0.00    +0.000 A 
ATOM     12  C   UNL     1      -3.499  10.928  15.439  0.00  0.00    +0.000 A 
ATOM     13  N   UNL     1      -2.298  11.133  16.054  0.00  0.00    +0.000 NA
ATOM     14  C   UNL     1      -2.563  11.329  17.343  0.00  0.00    +0.000 A 
ATOM     15  N   UNL     1      -4.108  12.669  19.567  0.00  0.00    +0.000 NA
ATOM     16  C   UNL     1      -4.763  12.972  20.712  0.00  0.00    +0.000 A 
ATOM     17  N   UNL     1      -4.180  13.891  21.600  0.00  0.00    +0.000 N 
ENDROOT
BRANCH  14  18
ATOM     18  C   UNL     1      -1.533  11.302  18.396  0.00  0.00    +0.000 A 
ATOM     19  C   UNL     1      -0.731  12.431  18.607  0.00  0.00    +0.000 A 
ATOM     20  C   UNL     1       0.276  12.425  19.578  0.00  0.00    +0.000 A 
ATOM     21  C   UNL     1       0.493  11.289  20.354  0.00  0.00    +0.000 A 
ATOM     22  C   UNL     1      -0.272  10.148  20.138  0.00  0.00    +0.000 A 
ATOM     23  C   UNL     1      -1.255  10.148  19.148  0.00  0.00    +0.000 A 
ENDBRANCH  14  18
BRANCH  17  24
ATOM     24  C   UNL     1      -3.167  14.807  21.015  0.00  0.00    +0.000 C 
ATOM     25  C   UNL     1      -3.432  16.288  21.299  0.00  0.00    +0.000 C 
ATOM     26  C   UNL     1      -2.096  16.971  21.007  0.00  0.00    +0.000 C 
ATOM     27  C   UNL     1      -1.018  15.938  21.315  0.00  0.00    +0.000 C 
ATOM     28  C   UNL     1      -1.745  14.617  21.551  0.00  0.00    +0.000 C 
ENDBRANCH  17  24
BRANCH   1  30
ATOM     29  C   UNL     1      -3.805  12.428  24.237  0.00  0.00    +0.000 C 
ATOM     30  C   UNL     1      -4.247  13.881  24.128  0.00  0.00    +0.000 C 
ENDBRANCH   1  30
TORSDOF 3
ENDMDL
MODEL 3
REMARK VINA RESULT:      -6.5      9.766     13.099
REMARK  Name = 
REMARK  5 active torsions:
REMARK  status: ('A' for Active; 'I' for Inactive)
REMARK    1  A    between atoms: C_1  and  C_2
REMARK    2  A    between atoms: C_2  and  C_3
REMARK    3  A    between atoms: N_6  and  C_7
REMARK    4  A    between atoms: C_16  and  C_17
REMARK    5  A    between atoms: N_25  and  C_26
REMARK                            x       y       z     vdW  Elec       q    Type
REMARK                         _______ _______ _______ _____ _____    ______ ____
ROOT
ATOM      1  C   UNL     1      -4.527  14.460  23.044  0.00  0.00    +0.000 C 
ATOM      2  C   UNL     1      -5.985  14.010  23.223  0.00  0.00    +0.000 C 
ATOM      3  O   UNL     1      -6.697  14.543  24.078  0.00  0.00    +0.000 OA
ATOM      4  N   UNL     1      -6.405  12.914  22.492  0.00  0.00    +0.000 N 
ATOM      5  C   UNL     1      -7.618  12.221  22.886  0.00  0.00    +0.000 C 
ATOM      6  C   UNL     1      -5.724  12.554  21.305  0.00  0.00    +0.000 A 
ATOM      7  C   UNL     1      -6.272  11.669  20.388  0.00  0.00    +0.000 A 
ATOM      8  N   UNL     1      -5.738  11.378  19.192  0.00  0.00    +0.000 NA
ATOM      9  C   UNL     1      -4.549  11.941  18.938  0.00  0.00    +0.000 A 
ATOM     10  N   UNL     1      -3.910  11.544  17.733  0.00  0.00    +0.000 N 
ATOM     11  C   UNL     1      -4.571  11.186  16.573  0.00  0.00    +0.000 A 
ATOM     12  C   UNL     1      -3.593  11.033  15.622  0.00  0.00    +0.000 A 
ATOM     13  N   UNL     1      -2.356  11.179  16.180  0.00  0.00    +0.000 NA
ATOM     14  C   UNL     1      -2.549  11.387  17.479  0.00  0.00    +0.000 A 
ATOM     15  N   UNL     1      -3.920  12.801  19.771  0.00  0.00    +0.000 NA
ATOM     16  C   UNL     1      -4.505  13.135  20.945  0.00  0.00    +0.000 A 
ATOM     17  N   UNL     1      -3.836  14.024  21.802  0.00  0.00    +0.000 N 
ENDROOT
BRANCH  14  18
ATOM     18  C   UNL     1      -1.474  11.310  18.483  0.00  0.00    +0.000 A 
ATOM     19  C   UNL     1      -1.330  10.148  19.252  0.00  0.00    +0.000 A 
ATOM     20  C   UNL     1      -0.339  10.055  20.234  0.00  0.00    +0.000 A 
ATOM     21  C   UNL     1       0.526  11.125  20.459  0.00  0.00    +0.000 A 
ATOM     22  C   UNL     1       0.379  12.297  19.728  0.00  0.00    +0.000 A 
ATOM     23  C   UNL     1      -0.631  12.397  18.770  0.00  0.00    +0.000 A 
ENDBRANCH  14  18
BRANCH  17  24
ATOM     24  C   UNL     1      -2.808  14.890  21.168  0.00  0.00    +0.000 C 
ATOM     25  C   UNL     1      -3.038  16.388  21.388  0.00  0.00    +0.000 C 
ATOM     26  C   UNL     1      -1.690  17.026  21.054  0.00  0.00    +0.000 C 
ATOM     27  C   UNL     1      -0.632  15.984  21.399  0.00  0.00    +0.000 C 
ATOM     28  C   UNL     1      -1.386  14.692  21.700  0.00  0.00    +0.000 C 
ENDBRANCH  17  24
BRANCH   1  30
ATOM     29  C   UNL     1      -3.027  15.104  25.083  0.00  0.00    +0.000 C 
ATOM     30  C   UNL     1      -3.784  14.017  24.331  0.00  0.00    +0.000 C 
ENDBRANCH   1  30
TORSDOF 3
ENDMDL
MODEL 4
REMARK VINA RESULT:      -6.1      9.869     13.149
REMARK  Name = 
REMARK  5 active torsions:
REMARK  status: ('A' for Active; 'I' for Inactive)
REMARK    1  A    between atoms: C_1  and  C_2
REMARK    2  A    between atoms: C_2  and  C_3
REMARK    3  A    between atoms: N_6  and  C_7
REMARK    4  A    between atoms: C_16  and  C_17
REMARK    5  A    between atoms: N_25  and  C_26
REMARK                            x       y       z     vdW  Elec       q    Type
REMARK                         _______ _______ _______ _____ _____    ______ ____
ROOT
ATOM      1  C   UNL     1      -1.676  13.468  22.440  0.00  0.00    +0.000 C 
ATOM      2  C   UNL     1      -1.810  14.432  23.629  0.00  0.00    +0.000 C 
ATOM      3  O   UNL     1      -0.883  14.554  24.434  0.00  0.00    +0.000 OA
ATOM      4  N   UNL     1      -3.039  15.034  23.823  0.00  0.00    +0.000 N 
ATOM      5  C   UNL     1      -3.339  15.639  25.108  0.00  0.00    +0.000 C 
ATOM      6  C   UNL     1      -3.941  15.163  22.739  0.00  0.00    +0.000 A 
ATOM      7  C   UNL     1      -5.038  16.009  22.798  0.00  0.00    +0.000 A 
ATOM      8  N   UNL     1      -5.860  16.270  21.771  0.00  0.00    +0.000 NA
ATOM      9  C   UNL     1      -5.617  15.579  20.648  0.00  0.00    +0.000 A 
ATOM     10  N   UNL     1      -6.554  15.746  19.592  0.00  0.00    +0.000 N 
ATOM     11  C   UNL     1      -7.258  16.909  19.342  0.00  0.00    +0.000 A 
ATOM     12  C   UNL     1      -7.917  16.694  18.157  0.00  0.00    +0.000 A 
ATOM     13  N   UNL     1      -7.727  15.413  17.729  0.00  0.00    +0.000 NA
ATOM     14  C   UNL     1      -6.985  14.811  18.654  0.00  0.00    +0.000 A 
ATOM     15  N   UNL     1      -4.589  14.716  20.492  0.00  0.00    +0.000 NA
ATOM     16  C   UNL     1      -3.729  14.516  21.519  0.00  0.00    +0.000 A 
ATOM     17  N   UNL     1      -2.669  13.611  21.344  0.00  0.00    +0.000 N 
ENDROOT
BRANCH  14  18
ATOM     18  C   UNL     1      -6.794  13.352  18.720  0.00  0.00    +0.000 A 
ATOM     19  C   UNL     1      -6.014  12.713  17.747  0.00  0.00    +0.000 A 
ATOM     20  C   UNL     1      -5.840  11.326  17.764  0.00  0.00    +0.000 A 
ATOM     21  C   UNL     1      -6.444  10.556  18.757  0.00  0.00    +0.000 A 
ATOM     22  C   UNL     1      -7.247  11.168  19.712  0.00  0.00    +0.000 A 
ATOM     23  C   UNL     1      -7.443  12.549  19.674  0.00  0.00    +0.000 A 
ENDBRANCH  14  18
BRANCH  17  24
ATOM     24  C   UNL     1      -2.286  13.322  19.938  0.00  0.00    +0.000 C 
ATOM     25  C   UNL     1      -0.784  13.448  19.666  0.00  0.00    +0.000 C 
ATOM     26  C   UNL     1      -0.579  12.706  18.345  0.00  0.00    +0.000 C 
ATOM     27  C   UNL     1      -1.647  11.619  18.301  0.00  0.00    +0.000 C 
ATOM     28  C   UNL     1      -2.588  11.896  19.470  0.00  0.00    +0.000 C 
ENDBRANCH  17  24
BRANCH   1  30
ATOM     29  C   UNL     1      -0.586  11.096  22.518  0.00  0.00    +0.000 C 
ATOM     30  C   UNL     1      -1.655  12.042  23.049  0.00  0.00    +0.000 C 
ENDBRANCH   1  30
TORSDOF 3
ENDMDL
MODEL 5
REMARK VINA RESULT:      -6.1      9.153     12.334
REMARK  Name = 
REMARK  5 active torsions:
REMARK  status: ('A' for Active; 'I' for Inactive)
REMARK    1  A    between atoms: C_1  and  C_2
REMARK    2  A    between atoms: C_2  and  C_3
REMARK    3  A    between atoms: N_6  and  C_7
REMARK    4  A    between atoms: C_16  and  C_17
REMARK    5  A    between atoms: N_25  and  C_26
REMARK                            x       y       z     vdW  Elec       q    Type
REMARK                         _______ _______ _______ _____ _____    ______ ____
ROOT
ATOM      1  C   UNL     1      -3.208  15.033  23.117  0.00  0.00    +0.000 C 
ATOM      2  C   UNL     1      -4.667  14.800  23.538  0.00  0.00    +0.000 C 
ATOM      3  O   UNL     1      -5.168  15.481  24.437  0.00  0.00    +0.000 OA
ATOM      4  N   UNL     1      -5.328  13.726  22.971  0.00  0.00    +0.000 N 
ATOM      5  C   UNL     1      -6.545  13.233  23.591  0.00  0.00    +0.000 C 
ATOM      6  C   UNL     1      -4.886  13.198  21.734  0.00  0.00    +0.000 A 
ATOM      7  C   UNL     1      -5.673  12.337  20.984  0.00  0.00    +0.000 A 
ATOM      8  N   UNL     1      -5.368  11.898  19.754  0.00  0.00    +0.000 NA
ATOM      9  C   UNL     1      -4.169  12.274  19.287  0.00  0.00    +0.000 A 
ATOM     10  N   UNL     1      -3.775  11.714  18.041  0.00  0.00    +0.000 N 
ATOM     11  C   UNL     1      -4.644  11.375  17.021  0.00  0.00    +0.000 A 
ATOM     12  C   UNL     1      -3.849  11.026  15.959  0.00  0.00    +0.000 A 
ATOM     13  N   UNL     1      -2.534  11.038  16.321  0.00  0.00    +0.000 NA
ATOM     14  C   UNL     1      -2.500  11.357  17.612  0.00  0.00    +0.000 A 
ATOM     15  N   UNL     1      -3.318  13.093  19.945  0.00  0.00    +0.000 NA
ATOM     16  C   UNL     1      -3.672  13.581  21.157  0.00  0.00    +0.000 A 
ATOM     17  N   UNL     1      -2.774  14.425  21.832  0.00  0.00    +0.000 N 
ENDROOT
BRANCH  14  18
ATOM     18  C   UNL     1      -1.303  11.199  18.456  0.00  0.00    +0.000 A 
ATOM     19  C   UNL     1      -1.197  10.089  19.304  0.00  0.00    +0.000 A 
ATOM     20  C   UNL     1      -0.088   9.927  20.140  0.00  0.00    +0.000 A 
ATOM     21  C   UNL     1       0.934  10.874  20.138  0.00  0.00    +0.000 A 
ATOM     22  C   UNL     1       0.833  11.998  19.327  0.00  0.00    +0.000 A 
ATOM     23  C   UNL     1      -0.290  12.171  18.517  0.00  0.00    +0.000 A 
ENDBRANCH  14  18
BRANCH  17  24
ATOM     24  C   UNL     1      -1.754  15.098  20.987  0.00  0.00    +0.000 C 
ATOM     25  C   UNL     1      -1.741  16.623  21.126  0.00  0.00    +0.000 C 
ATOM     26  C   UNL     1      -0.390  17.041  20.546  0.00  0.00    +0.000 C 
ATOM     27  C   UNL     1       0.559  15.875  20.804  0.00  0.00    +0.000 C 
ATOM     28  C   UNL     1      -0.305  14.724  21.311  0.00  0.00    +0.000 C 
ENDBRANCH  17  24
BRANCH   1  30
ATOM     29  C   UNL     1      -1.303  15.574  24.819  0.00  0.00    +0.000 C 
ATOM     30  C   UNL     1      -2.341  14.578  24.319  0.00  0.00    +0.000 C 
ENDBRANCH   1  30
TORSDOF 3
ENDMDL
MODEL 6
REMARK VINA RESULT:      -6.1      9.899     13.017
REMARK  Name = 
REMARK  5 active torsions:
REMARK  status: ('A' for Active; 'I' for Inactive)
REMARK    1  A    between atoms: C_1  and  C_2
REMARK    2  A    between atoms: C_2  and  C_3
REMARK    3  A    between atoms: N_6  and  C_7
REMARK    4  A    between atoms: C_16  and  C_17
REMARK    5  A    between atoms: N_25  and  C_26
REMARK                            x       y       z     vdW  Elec       q    Type
REMARK                         _______ _______ _______ _____ _____    ______ ____
ROOT
ATOM      1  C   UNL     1      -5.595  14.560  21.851  0.00  0.00    +0.000 C 
ATOM      2  C   UNL     1      -5.172  15.321  23.117  0.00  0.00    +0.000 C 
ATOM      3  O   UNL     1      -5.964  16.086  23.674  0.00  0.00    +0.000 OA
ATOM      4  N   UNL     1      -3.850  15.214  23.509  0.00  0.00    +0.000 N 
ATOM      5  C   UNL     1      -3.307  16.181  24.446  0.00  0.00    +0.000 C 
ATOM      6  C   UNL     1      -3.079  14.102  23.095  0.00  0.00    +0.000 A 
ATOM      7  C   UNL     1      -1.866  13.791  23.692  0.00  0.00    +0.000 A 
ATOM      8  N   UNL     1      -1.146  12.690  23.433  0.00  0.00    +0.000 NA
ATOM      9  C   UNL     1      -1.626  11.901  22.461  0.00  0.00    +0.000 A 
ATOM     10  N   UNL     1      -0.810  10.799  22.085  0.00  0.00    +0.000 N 
ATOM     11  C   UNL     1       0.027  10.111  22.942  0.00  0.00    +0.000 A 
ATOM     12  C   UNL     1       0.496   9.042  22.222  0.00  0.00    +0.000 A 
ATOM     13  N   UNL     1       0.063   9.107  20.930  0.00  0.00    +0.000 NA
ATOM     14  C   UNL     1      -0.645  10.229  20.825  0.00  0.00    +0.000 A 
ATOM     15  N   UNL     1      -2.786  12.124  21.803  0.00  0.00    +0.000 NA
ATOM     16  C   UNL     1      -3.534  13.205  22.125  0.00  0.00    +0.000 A 
ATOM     17  N   UNL     1      -4.733  13.426  21.428  0.00  0.00    +0.000 N 
ENDROOT
BRANCH  14  18
ATOM     18  C   UNL     1      -1.047  10.818  19.536  0.00  0.00    +0.000 A 
ATOM     19  C   UNL     1      -1.863  10.084  18.666  0.00  0.00    +0.000 A 
ATOM     20  C   UNL     1      -2.236  10.602  17.422  0.00  0.00    +0.000 A 
ATOM     21  C   UNL     1      -1.798  11.867  17.031  0.00  0.00    +0.000 A 
ATOM     22  C   UNL     1      -0.962  12.597  17.867  0.00  0.00    +0.000 A 
ATOM     23  C   UNL     1      -0.568  12.063  19.094  0.00  0.00    +0.000 A 
ENDBRANCH  14  18
BRANCH  17  24
ATOM     24  C   UNL     1      -5.324  12.239  20.758  0.00  0.00    +0.000 C 
ATOM     25  C   UNL     1      -6.824  12.063  21.017  0.00  0.00    +0.000 C 
ATOM     26  C   UNL     1      -7.282  11.097  19.926  0.00  0.00    +0.000 C 
ATOM     27  C   UNL     1      -6.364  11.341  18.733  0.00  0.00    +0.000 C 
ATOM     28  C   UNL     1      -5.255  12.265  19.228  0.00  0.00    +0.000 C 
ENDBRANCH  17  24
BRANCH   1  30
ATOM     29  C   UNL     1      -7.066  15.604  19.962  0.00  0.00    +0.000 C 
ATOM     30  C   UNL     1      -5.760  15.634  20.744  0.00  0.00    +0.000 C 
ENDBRANCH   1  30
TORSDOF 3
ENDMDL
MODEL 7
REMARK VINA RESULT:      -6.0      8.864     12.034
REMARK  Name = 
REMARK  5 active torsions:
REMARK  status: ('A' for Active; 'I' for Inactive)
REMARK    1  A    between atoms: C_1  and  C_2
REMARK    2  A    between atoms: C_2  and  C_3
REMARK    3  A    between atoms: N_6  and  C_7
REMARK    4  A    between atoms: C_16  and  C_17
REMARK    5  A    between atoms: N_25  and  C_26
REMARK                            x       y       z     vdW  Elec       q    Type
REMARK                         _______ _______ _______ _____ _____    ______ ____
ROOT
ATOM      1  C   UNL     1      -4.363  11.262  18.382  0.00  0.00    +0.000 C 
ATOM      2  C   UNL     1      -5.804  11.222  18.912  0.00  0.00    +0.000 C 
ATOM      3  O   UNL     1      -6.620  10.435  18.426  0.00  0.00    +0.000 OA
ATOM      4  N   UNL     1      -6.167  12.183  19.837  0.00  0.00    +0.000 N 
ATOM      5  C   UNL     1      -7.575  12.435  20.085  0.00  0.00    +0.000 C 
ATOM      6  C   UNL     1      -5.173  12.821  20.619  0.00  0.00    +0.000 A 
ATOM      7  C   UNL     1      -5.494  13.556  21.751  0.00  0.00    +0.000 A 
ATOM      8  N   UNL     1      -4.600  14.083  22.600  0.00  0.00    +0.000 NA
ATOM      9  C   UNL     1      -3.314  13.937  22.248  0.00  0.00    +0.000 A 
ATOM     10  N   UNL     1      -2.360  14.598  23.067  0.00  0.00    +0.000 N 
ATOM     11  C   UNL     1      -2.503  14.815  24.425  0.00  0.00    +0.000 A 
ATOM     12  C   UNL     1      -1.304  15.332  24.845  0.00  0.00    +0.000 A 
ATOM     13  N   UNL     1      -0.472  15.538  23.783  0.00  0.00    +0.000 NA
ATOM     14  C   UNL     1      -1.154  15.188  22.696  0.00  0.00    +0.000 A 
ATOM     15  N   UNL     1      -2.896  13.258  21.157  0.00  0.00    +0.000 NA
ATOM     16  C   UNL     1      -3.811  12.675  20.347  0.00  0.00    +0.000 A 
ATOM     17  N   UNL     1      -3.360  11.979  19.213  0.00  0.00    +0.000 N 
ENDROOT
BRANCH  14  18
ATOM     18  C   UNL     1      -0.727  15.524  21.327  0.00  0.00    +0.000 A 
ATOM     19  C   UNL     1       0.455  14.971  20.817  0.00  0.00    +0.000 A 
ATOM     20  C   UNL     1       0.904  15.295  19.533  0.00  0.00    +0.000 A 
ATOM     21  C   UNL     1       0.173  16.176  18.738  0.00  0.00    +0.000 A 
ATOM     22  C   UNL     1      -0.985  16.759  19.238  0.00  0.00    +0.000 A 
ATOM     23  C   UNL     1      -1.413  16.457  20.531  0.00  0.00    +0.000 A 
ENDBRANCH  14  18
BRANCH  17  24
ATOM     24  C   UNL     1      -1.947  11.523  19.248  0.00  0.00    +0.000 C 
ATOM     25  C   UNL     1      -1.719  10.155  18.599  0.00  0.00    +0.000 C 
ATOM     26  C   UNL     1      -0.211  10.100  18.360  0.00  0.00    +0.000 C 
ATOM     27  C   UNL     1       0.235  11.541  18.141  0.00  0.00    +0.000 C 
ATOM     28  C   UNL     1      -0.965  12.418  18.487  0.00  0.00    +0.000 C 
ENDBRANCH  17  24
BRANCH   1  30
ATOM     29  C   UNL     1      -3.823  10.971  15.843  0.00  0.00    +0.000 C 
ATOM     30  C   UNL     1      -4.455  11.821  16.938  0.00  0.00    +0.000 C 
ENDBRANCH   1  30
TORSDOF 3
ENDMDL
MODEL 8
REMARK VINA RESULT:      -5.8      2.124      5.975
REMARK  Name = 
REMARK  5 active torsions:
REMARK  status: ('A' for Active; 'I' for Inactive)
REMARK    1  A    between atoms: C_1  and  C_2
REMARK    2  A    between atoms: C_2  and  C_3
REMARK    3  A    between atoms: N_6  and  C_7
REMARK    4  A    between atoms: C_16  and  C_17
REMARK    5  A    between atoms: N_25  and  C_26
REMARK                            x       y       z     vdW  Elec       q    Type
REMARK                         _______ _______ _______ _____ _____    ______ ____
ROOT
ATOM      1  C   UNL     1       5.424  14.950  21.910  0.00  0.00    +0.000 C 
ATOM      2  C   UNL     1       4.738  16.096  21.150  0.00  0.00    +0.000 C 
ATOM      3  O   UNL     1       3.773  16.680  21.650  0.00  0.00    +0.000 OA
ATOM      4  N   UNL     1       5.158  16.340  19.856  0.00  0.00    +0.000 N 
ATOM      5  C   UNL     1       4.317  17.130  18.974  0.00  0.00    +0.000 C 
ATOM      6  C   UNL     1       6.447  15.926  19.441  0.00  0.00    +0.000 A 
ATOM      7  C   UNL     1       7.026  16.401  18.274  0.00  0.00    +0.000 A 
ATOM      8  N   UNL     1       8.284  16.146  17.886  0.00  0.00    +0.000 NA
ATOM      9  C   UNL     1       8.970  15.300  18.668  0.00  0.00    +0.000 A 
ATOM     10  N   UNL     1      10.258  14.919  18.204  0.00  0.00    +0.000 N 
ATOM     11  C   UNL     1      11.095  15.724  17.456  0.00  0.00    +0.000 A 
ATOM     12  C   UNL     1      12.280  15.039  17.362  0.00  0.00    +0.000 A 
ATOM     13  N   UNL     1      12.167  13.805  17.932  0.00  0.00    +0.000 NA
ATOM     14  C   UNL     1      10.909  13.697  18.351  0.00  0.00    +0.000 A 
ATOM     15  N   UNL     1       8.491  14.766  19.814  0.00  0.00    +0.000 NA
ATOM     16  C   UNL     1       7.243  15.088  20.225  0.00  0.00    +0.000 A 
ATOM     17  N   UNL     1       6.758  14.519  21.415  0.00  0.00    +0.000 N 
ENDROOT
BRANCH  14  18
ATOM     18  C   UNL     1      10.297  12.421  18.762  0.00  0.00    +0.000 A 
ATOM     19  C   UNL     1       9.581  11.665  17.825  0.00  0.00    +0.000 A 
ATOM     20  C   UNL     1       8.962  10.466  18.191  0.00  0.00    +0.000 A 
ATOM     21  C   UNL     1       9.054  10.003  19.503  0.00  0.00    +0.000 A 
ATOM     22  C   UNL     1       9.733  10.755  20.454  0.00  0.00    +0.000 A 
ATOM     23  C   UNL     1      10.324  11.966  20.091  0.00  0.00    +0.000 A 
ENDBRANCH  14  18
BRANCH  17  24
ATOM     24  C   UNL     1       7.786  14.016  22.362  0.00  0.00    +0.000 C 
ATOM     25  C   UNL     1       7.733  14.674  23.744  0.00  0.00    +0.000 C 
ATOM     26  C   UNL     1       8.538  13.733  24.639  0.00  0.00    +0.000 C 
ATOM     27  C   UNL     1       8.369  12.339  24.045  0.00  0.00    +0.000 C 
ATOM     28  C   UNL     1       7.672  12.527  22.701  0.00  0.00    +0.000 C 
ENDBRANCH  17  24
BRANCH   1  30
ATOM     29  C   UNL     1       3.347  13.778  20.846  0.00  0.00    +0.000 C 
ATOM     30  C   UNL     1       4.396  13.790  21.950  0.00  0.00    +0.000 C 
ENDBRANCH   1  30
TORSDOF 3
ENDMDL
MODEL 9
REMARK VINA RESULT:      -5.8      9.155     12.933
REMARK  Name = 
REMARK  5 active torsions:
REMARK  status: ('A' for Active; 'I' for Inactive)
REMARK    1  A    between atoms: C_1  and  C_2
REMARK    2  A    between atoms: C_2  and  C_3
REMARK    3  A    between atoms: N_6  and  C_7
REMARK    4  A    between atoms: C_16  and  C_17
REMARK    5  A    between atoms: N_25  and  C_26
REMARK                            x       y       z     vdW  Elec       q    Type
REMARK                         _______ _______ _______ _____ _____    ______ ____
ROOT
ATOM      1  C   UNL     1      -2.700  15.413  23.081  0.00  0.00    +0.000 C 
ATOM      2  C   UNL     1      -1.317  15.981  22.725  0.00  0.00    +0.000 C 
ATOM      3  O   UNL     1      -0.716  16.698  23.529  0.00  0.00    +0.000 OA
ATOM      4  N   UNL     1      -0.856  15.768  21.439  0.00  0.00    +0.000 N 
ATOM      5  C   UNL     1       0.237  16.579  20.933  0.00  0.00    +0.000 C 
ATOM      6  C   UNL     1      -1.364  14.689  20.676  0.00  0.00    +0.000 A 
ATOM      7  C   UNL     1      -0.735  14.251  19.520  0.00  0.00    +0.000 A 
ATOM      8  N   UNL     1      -1.092  13.166  18.819  0.00  0.00    +0.000 NA
ATOM      9  C   UNL     1      -2.191  12.533  19.253  0.00  0.00    +0.000 A 
ATOM     10  N   UNL     1      -2.658  11.458  18.449  0.00  0.00    +0.000 N 
ATOM     11  C   UNL     1      -1.847  10.628  17.698  0.00  0.00    +0.000 A 
ATOM     12  C   UNL     1      -2.672   9.645  17.213  0.00  0.00    +0.000 A 
ATOM     13  N   UNL     1      -3.970   9.899  17.551  0.00  0.00    +0.000 NA
ATOM     14  C   UNL     1      -3.969  11.053  18.213  0.00  0.00    +0.000 A 
ATOM     15  N   UNL     1      -2.889  12.889  20.355  0.00  0.00    +0.000 NA
ATOM     16  C   UNL     1      -2.475  13.949  21.089  0.00  0.00    +0.000 A 
ATOM     17  N   UNL     1      -3.214  14.310  22.228  0.00  0.00    +0.000 N 
ENDROOT
BRANCH  14  18
ATOM     18  C   UNL     1      -5.190  11.824  18.502  0.00  0.00    +0.000 A 
ATOM     19  C   UNL     1      -5.965  11.496  19.622  0.00  0.00    +0.000 A 
ATOM     20  C   UNL     1      -7.147  12.188  19.905  0.00  0.00    +0.000 A 
ATOM     21  C   UNL     1      -7.569  13.222  19.072  0.00  0.00    +0.000 A 
ATOM     22  C   UNL     1      -6.831  13.541  17.939  0.00  0.00    +0.000 A 
ATOM     23  C   UNL     1      -5.669  12.828  17.643  0.00  0.00    +0.000 A 
ENDBRANCH  14  18
BRANCH  17  24
ATOM     24  C   UNL     1      -4.076  13.248  22.808  0.00  0.00    +0.000 C 
ATOM     25  C   UNL     1      -3.816  12.980  24.293  0.00  0.00    +0.000 C 
ATOM     26  C   UNL     1      -5.054  12.216  24.759  0.00  0.00    +0.000 C 
ATOM     27  C   UNL     1      -6.204  12.704  23.884  0.00  0.00    +0.000 C 
ATOM     28  C   UNL     1      -5.576  13.556  22.785  0.00  0.00    +0.000 C 
ENDBRANCH  17  24
BRANCH   1  30
ATOM     29  C   UNL     1      -4.537  16.749  24.370  0.00  0.00    +0.000 C 
ATOM     30  C   UNL     1      -3.660  16.630  23.131  0.00  0.00    +0.000 C 
ENDBRANCH   1  30
TORSDOF 3
ENDMDL
