MODEL 1
REMARK VINA RESULT:      -7.8      0.000      0.000
REMARK  Name = 
REMARK  9 active torsions:
REMARK  status: ('A' for Active; 'I' for Inactive)
REMARK    1  A    between atoms: C_1  and  C_2
REMARK    2  A    between atoms: C_2  and  C_3
REMARK    3  A    between atoms: C_3  and  O_4
REMARK    4  A    between atoms: O_4  and  C_5
REMARK    5  A    between atoms: C_8  and  C_9
REMARK    6  A    between atoms: C_12  and  S_13
REMARK    7  A    between atoms: S_13  and  C_14
REMARK    8  A    between atoms: C_14  and  C_15
REMARK    9  A    between atoms: C_15  and  C_17
REMARK                            x       y       z     vdW  Elec       q    Type
REMARK                         _______ _______ _______ _____ _____    ______ ____
ROOT
ATOM      1  C   UNL     1       8.530   9.094  18.340  0.00  0.00    +0.000 A 
ATOM      2  N   UNL     1       7.681   9.063  17.322  0.00  0.00    +0.000 NA
ATOM      3  N   UNL     1       7.175   7.790  17.198  0.00  0.00    +0.000 NA
ATOM      4  C   UNL     1       7.726   7.066  18.136  0.00  0.00    +0.000 A 
ATOM      5  N   UNL     1       8.561   7.837  18.889  0.00  0.00    +0.000 N 
ATOM      6  H   UNL     1       9.101   7.513  19.680  0.00  0.00    +0.000 HD
ENDROOT
BRANCH   1  10
ATOM      7  C   UNL     1      10.669  12.513  19.823  0.00  0.00    +0.000 A 
ATOM      8  C   UNL     1      10.016  11.621  20.670  0.00  0.00    +0.000 A 
ATOM      9  C   UNL     1       9.339  10.517  20.154  0.00  0.00    +0.000 A 
ATOM     10  C   UNL     1       9.293  10.266  18.780  0.00  0.00    +0.000 A 
ATOM     11  C   UNL     1       9.949  11.159  17.924  0.00  0.00    +0.000 A 
ATOM     12  C   UNL     1      10.631  12.276  18.446  0.00  0.00    +0.000 A 
BRANCH   7  13
ATOM     13  O   UNL     1      11.354  13.625  20.254  0.00  0.00    +0.000 OA
BRANCH  13  14
ATOM     14  C   UNL     1      11.932  14.405  19.199  0.00  0.00    +0.000 C 
BRANCH  14  16
ATOM     15  C   UNL     1      11.938  16.597  17.994  0.00  0.00    +0.000 C 
ATOM     16  C   UNL     1      11.333  15.803  19.147  0.00  0.00    +0.000 C 
ENDBRANCH  14  16
ENDBRANCH  13  14
ENDBRANCH   7  13
ENDBRANCH   1  10
BRANCH   4  17
ATOM     17  S   UNL     1       7.362   5.426  18.520  0.00  0.00    +0.000 S 
BRANCH  17  18
ATOM     18  C   UNL     1       7.122   4.651  16.895  0.00  0.00    +0.000 C 
BRANCH  18  19
ATOM     19  C   UNL     1       5.757   4.957  16.301  0.00  0.00    +0.000 C 
ATOM     20  O   UNL     1       5.590   5.462  15.187  0.00  0.00    +0.000 OA
BRANCH  19  21
ATOM     21  C   UNL     1       4.546   4.718  17.132  0.00  0.00    +0.000 A 
ATOM     22  C   UNL     1       4.234   3.385  17.444  0.00  0.00    +0.000 A 
ATOM     23  C   UNL     1       3.116   3.082  18.222  0.00  0.00    +0.000 A 
ATOM     24  C   UNL     1       2.315   4.113  18.702  0.00  0.00    +0.000 A 
ATOM     25 CL   UNL     1       0.940   3.742  19.665  0.00  0.00    +0.000 Cl
ATOM     26  C   UNL     1       2.623   5.443  18.411  0.00  0.00    +0.000 A 
ATOM     27  C   UNL     1       3.737   5.750  17.620  0.00  0.00    +0.000 A 
ENDBRANCH  19  21
ENDBRANCH  18  19
ENDBRANCH  17  18
ENDBRANCH   4  17
TORSDOF 8
ENDMDL
MODEL 2
REMARK VINA RESULT:      -7.7      0.692      1.230
REMARK  Name = 
REMARK  9 active torsions:
REMARK  status: ('A' for Active; 'I' for Inactive)
REMARK    1  A    between atoms: C_1  and  C_2
REMARK    2  A    between atoms: C_2  and  C_3
REMARK    3  A    between atoms: C_3  and  O_4
REMARK    4  A    between atoms: O_4  and  C_5
REMARK    5  A    between atoms: C_8  and  C_9
REMARK    6  A    between atoms: C_12  and  S_13
REMARK    7  A    between atoms: S_13  and  C_14
REMARK    8  A    between atoms: C_14  and  C_15
REMARK    9  A    between atoms: C_15  and  C_17
REMARK                            x       y       z     vdW  Elec       q    Type
REMARK                         _______ _______ _______ _____ _____    ______ ____
ROOT
ATOM      1  C   UNL     1       8.543   9.127  18.338  0.00  0.00    +0.000 A 
ATOM      2  N   UNL     1       7.730   9.086  17.292  0.00  0.00    +0.000 NA
ATOM      3  N   UNL     1       7.239   7.809  17.154  0.00  0.00    +0.000 NA
ATOM      4  C   UNL     1       7.763   7.091  18.112  0.00  0.00    +0.000 A 
ATOM      5  N   UNL     1       8.565   7.871  18.891  0.00  0.00    +0.000 N 
ATOM      6  H   UNL     1       9.079   7.553  19.702  0.00  0.00    +0.000 HD
ENDROOT
BRANCH   1  10
ATOM      7  C   UNL     1      10.609  12.560  19.892  0.00  0.00    +0.000 A 
ATOM      8  C   UNL     1       9.986  11.630  20.720  0.00  0.00    +0.000 A 
ATOM      9  C   UNL     1       9.332  10.523  20.182  0.00  0.00    +0.000 A 
ATOM     10  C   UNL     1       9.281  10.306  18.802  0.00  0.00    +0.000 A 
ATOM     11  C   UNL     1       9.906  11.236  17.964  0.00  0.00    +0.000 A 
ATOM     12  C   UNL     1      10.565  12.357  18.509  0.00  0.00    +0.000 A 
BRANCH   7  13
ATOM     13  O   UNL     1      11.269  13.677  20.345  0.00  0.00    +0.000 OA
BRANCH  13  14
ATOM     14  C   UNL     1      10.483  14.521  21.196  0.00  0.00    +0.000 C 
BRANCH  14  16
ATOM     15  C   UNL     1      12.159  16.095  20.212  0.00  0.00    +0.000 C 
ATOM     16  C   UNL     1      10.994  15.955  21.185  0.00  0.00    +0.000 C 
ENDBRANCH  14  16
ENDBRANCH  13  14
ENDBRANCH   7  13
ENDBRANCH   1  10
BRANCH   4  17
ATOM     17  S   UNL     1       7.399   5.449  18.487  0.00  0.00    +0.000 S 
BRANCH  17  18
ATOM     18  C   UNL     1       7.070   4.704  16.864  0.00  0.00    +0.000 C 
BRANCH  18  19
ATOM     19  C   UNL     1       5.664   4.996  16.365  0.00  0.00    +0.000 C 
ATOM     20  O   UNL     1       5.418   5.585  15.308  0.00  0.00    +0.000 OA
BRANCH  19  21
ATOM     21  C   UNL     1       4.508   4.632  17.229  0.00  0.00    +0.000 A 
ATOM     22  C   UNL     1       3.664   5.673  17.645  0.00  0.00    +0.000 A 
ATOM     23  C   UNL     1       2.558   5.409  18.455  0.00  0.00    +0.000 A 
ATOM     24  C   UNL     1       2.286   4.100  18.837  0.00  0.00    +0.000 A 
ATOM     25 CL   UNL     1       0.921   3.772  19.830  0.00  0.00    +0.000 Cl
ATOM     26  C   UNL     1       3.110   3.055  18.417  0.00  0.00    +0.000 A 
ATOM     27  C   UNL     1       4.227   3.317  17.615  0.00  0.00    +0.000 A 
ENDBRANCH  19  21
ENDBRANCH  18  19
ENDBRANCH  17  18
ENDBRANCH   4  17
TORSDOF 8
ENDMDL
MODEL 3
REMARK VINA RESULT:      -7.4      1.823      2.439
REMARK  Name = 
REMARK  9 active torsions:
REMARK  status: ('A' for Active; 'I' for Inactive)
REMARK    1  A    between atoms: C_1  and  C_2
REMARK    2  A    between atoms: C_2  and  C_3
REMARK    3  A    between atoms: C_3  and  O_4
REMARK    4  A    between atoms: O_4  and  C_5
REMARK    5  A    between atoms: C_8  and  C_9
REMARK    6  A    between atoms: C_12  and  S_13
REMARK    7  A    between atoms: S_13  and  C_14
REMARK    8  A    between atoms: C_14  and  C_15
REMARK    9  A    between atoms: C_15  and  C_17
REMARK                            x       y       z     vdW  Elec       q    Type
REMARK                         _______ _______ _______ _____ _____    ______ ____
ROOT
ATOM      1  C   UNL     1       8.454   8.932  18.386  0.00  0.00    +0.000 A 
ATOM      2  N   UNL     1       7.666   8.898  17.321  0.00  0.00    +0.000 NA
ATOM      3  N   UNL     1       7.235   7.607  17.122  0.00  0.00    +0.000 NA
ATOM      4  C   UNL     1       7.769   6.875  18.064  0.00  0.00    +0.000 A 
ATOM      5  N   UNL     1       8.519   7.658  18.891  0.00  0.00    +0.000 N 
ATOM      6  H   UNL     1       9.030   7.331  19.700  0.00  0.00    +0.000 HD
ENDROOT
BRANCH   1  10
ATOM      7  C   UNL     1      10.524  12.449  19.731  0.00  0.00    +0.000 A 
ATOM      8  C   UNL     1      10.366  12.152  18.380  0.00  0.00    +0.000 A 
ATOM      9  C   UNL     1       9.680  11.007  17.980  0.00  0.00    +0.000 A 
ATOM     10  C   UNL     1       9.129  10.123  18.912  0.00  0.00    +0.000 A 
ATOM     11  C   UNL     1       9.284  10.417  20.272  0.00  0.00    +0.000 A 
ATOM     12  C   UNL     1       9.979  11.575  20.676  0.00  0.00    +0.000 A 
BRANCH   7  13
ATOM     13  O   UNL     1      11.189  13.556  20.205  0.00  0.00    +0.000 OA
BRANCH  13  14
ATOM     14  C   UNL     1      10.362  14.717  20.362  0.00  0.00    +0.000 C 
BRANCH  14  16
ATOM     15  C   UNL     1      11.639  16.502  19.163  0.00  0.00    +0.000 C 
ATOM     16  C   UNL     1      10.407  15.604  19.126  0.00  0.00    +0.000 C 
ENDBRANCH  14  16
ENDBRANCH  13  14
ENDBRANCH   7  13
ENDBRANCH   1  10
BRANCH   4  17
ATOM     17  S   UNL     1       7.470   5.206  18.367  0.00  0.00    +0.000 S 
BRANCH  17  18
ATOM     18  C   UNL     1       5.888   4.898  17.530  0.00  0.00    +0.000 C 
BRANCH  18  19
ATOM     19  C   UNL     1       4.720   4.831  18.501  0.00  0.00    +0.000 C 
ATOM     20  O   UNL     1       4.439   3.832  19.169  0.00  0.00    +0.000 OA
BRANCH  19  21
ATOM     21  C   UNL     1       3.804   5.999  18.598  0.00  0.00    +0.000 A 
ATOM     22  C   UNL     1       2.963   6.064  19.721  0.00  0.00    +0.000 A 
ATOM     23  C   UNL     1       2.080   7.132  19.884  0.00  0.00    +0.000 A 
ATOM     24  C   UNL     1       2.046   8.145  18.932  0.00  0.00    +0.000 A 
ATOM     25 CL   UNL     1       0.961   9.464  19.134  0.00  0.00    +0.000 Cl
ATOM     26  C   UNL     1       2.887   8.099  17.819  0.00  0.00    +0.000 A 
ATOM     27  C   UNL     1       3.766   7.023  17.645  0.00  0.00    +0.000 A 
ENDBRANCH  19  21
ENDBRANCH  18  19
ENDBRANCH  17  18
ENDBRANCH   4  17
TORSDOF 8
ENDMDL
MODEL 4
REMARK VINA RESULT:      -7.4      3.541      5.629
REMARK  Name = 
REMARK  9 active torsions:
REMARK  status: ('A' for Active; 'I' for Inactive)
REMARK    1  A    between atoms: C_1  and  C_2
REMARK    2  A    between atoms: C_2  and  C_3
REMARK    3  A    between atoms: C_3  and  O_4
REMARK    4  A    between atoms: O_4  and  C_5
REMARK    5  A    between atoms: C_8  and  C_9
REMARK    6  A    between atoms: C_12  and  S_13
REMARK    7  A    between atoms: S_13  and  C_14
REMARK    8  A    between atoms: C_14  and  C_15
REMARK    9  A    between atoms: C_15  and  C_17
REMARK                            x       y       z     vdW  Elec       q    Type
REMARK                         _______ _______ _______ _____ _____    ______ ____
ROOT
ATOM      1  C   UNL     1       5.271   4.186  18.790  0.00  0.00    +0.000 A 
ATOM      2  N   UNL     1       4.783   3.323  17.910  0.00  0.00    +0.000 NA
ATOM      3  N   UNL     1       4.082   2.347  18.580  0.00  0.00    +0.000 NA
ATOM      4  C   UNL     1       4.157   2.627  19.854  0.00  0.00    +0.000 A 
ATOM      5  N   UNL     1       4.869   3.776  20.036  0.00  0.00    +0.000 N 
ATOM      6  H   UNL     1       5.063   4.207  20.930  0.00  0.00    +0.000 HD
ENDROOT
BRANCH   1  10
ATOM      7  C   UNL     1       7.572   7.640  17.675  0.00  0.00    +0.000 A 
ATOM      8  C   UNL     1       6.350   7.338  17.079  0.00  0.00    +0.000 A 
ATOM      9  C   UNL     1       5.626   6.213  17.473  0.00  0.00    +0.000 A 
ATOM     10  C   UNL     1       6.095   5.356  18.472  0.00  0.00    +0.000 A 
ATOM     11  C   UNL     1       7.322   5.656  19.075  0.00  0.00    +0.000 A 
ATOM     12  C   UNL     1       8.055   6.792  18.676  0.00  0.00    +0.000 A 
BRANCH   7  13
ATOM     13  O   UNL     1       8.345   8.726  17.340  0.00  0.00    +0.000 OA
BRANCH  13  14
ATOM     14  C   UNL     1       8.663   9.585  18.444  0.00  0.00    +0.000 C 
BRANCH  14  16
ATOM     15  C   UNL     1       9.983  11.574  19.189  0.00  0.00    +0.000 C 
ATOM     16  C   UNL     1       9.421  10.823  17.987  0.00  0.00    +0.000 C 
ENDBRANCH  14  16
ENDBRANCH  13  14
ENDBRANCH   7  13
ENDBRANCH   1  10
BRANCH   4  17
ATOM     17  S   UNL     1       3.357   1.805  21.139  0.00  0.00    +0.000 S 
BRANCH  17  18
ATOM     18  C   UNL     1       1.916   2.854  21.484  0.00  0.00    +0.000 C 
BRANCH  18  19
ATOM     19  C   UNL     1       1.252   3.365  20.215  0.00  0.00    +0.000 C 
ATOM     20  O   UNL     1       0.467   2.700  19.535  0.00  0.00    +0.000 OA
BRANCH  19  21
ATOM     21  C   UNL     1       1.625   4.712  19.706  0.00  0.00    +0.000 A 
ATOM     22  C   UNL     1       1.686   4.879  18.313  0.00  0.00    +0.000 A 
ATOM     23  C   UNL     1       2.026   6.114  17.760  0.00  0.00    +0.000 A 
ATOM     24  C   UNL     1       2.291   7.191  18.600  0.00  0.00    +0.000 A 
ATOM     25 CL   UNL     1       2.705   8.716  17.921  0.00  0.00    +0.000 Cl
ATOM     26  C   UNL     1       2.220   7.041  19.986  0.00  0.00    +0.000 A 
ATOM     27  C   UNL     1       1.891   5.800  20.544  0.00  0.00    +0.000 A 
ENDBRANCH  19  21
ENDBRANCH  18  19
ENDBRANCH  17  18
ENDBRANCH   4  17
TORSDOF 8
ENDMDL
MODEL 5
REMARK VINA RESULT:      -7.4      6.930      9.368
REMARK  Name = 
REMARK  9 active torsions:
REMARK  status: ('A' for Active; 'I' for Inactive)
REMARK    1  A    between atoms: C_1  and  C_2
REMARK    2  A    between atoms: C_2  and  C_3
REMARK    3  A    between atoms: C_3  and  O_4
REMARK    4  A    between atoms: O_4  and  C_5
REMARK    5  A    between atoms: C_8  and  C_9
REMARK    6  A    between atoms: C_12  and  S_13
REMARK    7  A    between atoms: S_13  and  C_14
REMARK    8  A    between atoms: C_14  and  C_15
REMARK    9  A    between atoms: C_15  and  C_17
REMARK                            x       y       z     vdW  Elec       q    Type
REMARK                         _______ _______ _______ _____ _____    ______ ____
ROOT
ATOM      1  C   UNL     1       2.673   6.302  19.279  0.00  0.00    +0.000 A 
ATOM      2  N   UNL     1       2.074   5.677  20.283  0.00  0.00    +0.000 NA
ATOM      3  N   UNL     1       1.373   6.596  21.028  0.00  0.00    +0.000 NA
ATOM      4  C   UNL     1       1.560   7.764  20.472  0.00  0.00    +0.000 A 
ATOM      5  N   UNL     1       2.344   7.631  19.365  0.00  0.00    +0.000 N 
ATOM      6  H   UNL     1       2.628   8.387  18.757  0.00  0.00    +0.000 HD
ENDROOT
BRANCH   1  10
ATOM      7  C   UNL     1       5.150   4.263  16.420  0.00  0.00    +0.000 A 
ATOM      8  C   UNL     1       4.216   3.592  17.205  0.00  0.00    +0.000 A 
ATOM      9  C   UNL     1       3.423   4.287  18.116  0.00  0.00    +0.000 A 
ATOM     10  C   UNL     1       3.533   5.672  18.272  0.00  0.00    +0.000 A 
ATOM     11  C   UNL     1       4.469   6.352  17.484  0.00  0.00    +0.000 A 
ATOM     12  C   UNL     1       5.273   5.648  16.564  0.00  0.00    +0.000 A 
BRANCH   7  13
ATOM     13  O   UNL     1       5.970   3.649  15.502  0.00  0.00    +0.000 OA
BRANCH  13  14
ATOM     14  C   UNL     1       6.217   4.424  14.321  0.00  0.00    +0.000 C 
BRANCH  14  16
ATOM     15  C   UNL     1       6.412   3.338  12.077  0.00  0.00    +0.000 C 
ATOM     16  C   UNL     1       5.447   3.879  13.126  0.00  0.00    +0.000 C 
ENDBRANCH  14  16
ENDBRANCH  13  14
ENDBRANCH   7  13
ENDBRANCH   1  10
BRANCH   4  17
ATOM     17  S   UNL     1       0.814   9.251  20.922  0.00  0.00    +0.000 S 
BRANCH  17  18
ATOM     18  C   UNL     1       1.099  10.322  19.484  0.00  0.00    +0.000 C 
BRANCH  18  19
ATOM     19  C   UNL     1       0.287   9.895  18.271  0.00  0.00    +0.000 C 
ATOM     20  O   UNL     1       0.730   9.190  17.361  0.00  0.00    +0.000 OA
BRANCH  19  21
ATOM     21  C   UNL     1      -1.097  10.420  18.118  0.00  0.00    +0.000 A 
ATOM     22  C   UNL     1      -1.878   9.880  17.084  0.00  0.00    +0.000 A 
ATOM     23  C   UNL     1      -3.187  10.319  16.879  0.00  0.00    +0.000 A 
ATOM     24  C   UNL     1      -3.723  11.288  17.720  0.00  0.00    +0.000 A 
ATOM     25 CL   UNL     1      -5.337  11.827  17.474  0.00  0.00    +0.000 Cl
ATOM     26  C   UNL     1      -2.962  11.822  18.761  0.00  0.00    +0.000 A 
ATOM     27  C   UNL     1      -1.644  11.394  18.961  0.00  0.00    +0.000 A 
ENDBRANCH  19  21
ENDBRANCH  18  19
ENDBRANCH  17  18
ENDBRANCH   4  17
TORSDOF 8
ENDMDL
MODEL 6
REMARK VINA RESULT:      -7.4      6.946      9.275
REMARK  Name = 
REMARK  9 active torsions:
REMARK  status: ('A' for Active; 'I' for Inactive)
REMARK    1  A    between atoms: C_1  and  C_2
REMARK    2  A    between atoms: C_2  and  C_3
REMARK    3  A    between atoms: C_3  and  O_4
REMARK    4  A    between atoms: O_4  and  C_5
REMARK    5  A    between atoms: C_8  and  C_9
REMARK    6  A    between atoms: C_12  and  S_13
REMARK    7  A    between atoms: S_13  and  C_14
REMARK    8  A    between atoms: C_14  and  C_15
REMARK    9  A    between atoms: C_15  and  C_17
REMARK                            x       y       z     vdW  Elec       q    Type
REMARK                         _______ _______ _______ _____ _____    ______ ____
ROOT
ATOM      1  C   UNL     1       2.719   6.175  19.163  0.00  0.00    +0.000 A 
ATOM      2  N   UNL     1       2.198   5.485  20.167  0.00  0.00    +0.000 NA
ATOM      3  N   UNL     1       1.491   6.339  20.981  0.00  0.00    +0.000 NA
ATOM      4  C   UNL     1       1.597   7.535  20.465  0.00  0.00    +0.000 A 
ATOM      5  N   UNL     1       2.333   7.482  19.318  0.00  0.00    +0.000 N 
ATOM      6  H   UNL     1       2.553   8.274  18.728  0.00  0.00    +0.000 HD
ENDROOT
BRANCH   1  10
ATOM      7  C   UNL     1       5.154   4.368  16.118  0.00  0.00    +0.000 A 
ATOM      8  C   UNL     1       4.323   3.618  16.946  0.00  0.00    +0.000 A 
ATOM      9  C   UNL     1       3.540   4.239  17.917  0.00  0.00    +0.000 A 
ATOM     10  C   UNL     1       3.557   5.625  18.093  0.00  0.00    +0.000 A 
ATOM     11  C   UNL     1       4.390   6.385  17.262  0.00  0.00    +0.000 A 
ATOM     12  C   UNL     1       5.184   5.757  16.281  0.00  0.00    +0.000 A 
BRANCH   7  13
ATOM     13  O   UNL     1       5.957   3.831  15.140  0.00  0.00    +0.000 OA
BRANCH  13  14
ATOM     14  C   UNL     1       6.762   4.793  14.444  0.00  0.00    +0.000 C 
BRANCH  14  16
ATOM     15  C   UNL     1       5.887   3.411  12.552  0.00  0.00    +0.000 C 
ATOM     16  C   UNL     1       6.961   4.403  12.986  0.00  0.00    +0.000 C 
ENDBRANCH  14  16
ENDBRANCH  13  14
ENDBRANCH   7  13
ENDBRANCH   1  10
BRANCH   4  17
ATOM     17  S   UNL     1       0.807   8.967  21.008  0.00  0.00    +0.000 S 
BRANCH  17  18
ATOM     18  C   UNL     1       1.162  10.173  19.698  0.00  0.00    +0.000 C 
BRANCH  18  19
ATOM     19  C   UNL     1       0.444   9.847  18.398  0.00  0.00    +0.000 C 
ATOM     20  O   UNL     1       0.972   9.261  17.449  0.00  0.00    +0.000 OA
BRANCH  19  21
ATOM     21  C   UNL     1      -0.951  10.331  18.211  0.00  0.00    +0.000 A 
ATOM     22  C   UNL     1      -1.391  11.363  19.056  0.00  0.00    +0.000 A 
ATOM     23  C   UNL     1      -2.685  11.871  18.939  0.00  0.00    +0.000 A 
ATOM     24  C   UNL     1      -3.538  11.359  17.966  0.00  0.00    +0.000 A 
ATOM     25 CL   UNL     1      -5.131  11.988  17.816  0.00  0.00    +0.000 Cl
ATOM     26  C   UNL     1      -3.106  10.344  17.111  0.00  0.00    +0.000 A 
ATOM     27  C   UNL     1      -1.813   9.822  17.233  0.00  0.00    +0.000 A 
ENDBRANCH  19  21
ENDBRANCH  18  19
ENDBRANCH  17  18
ENDBRANCH   4  17
TORSDOF 8
ENDMDL
MODEL 7
REMARK VINA RESULT:      -7.4      6.773      9.055
REMARK  Name = 
REMARK  9 active torsions:
REMARK  status: ('A' for Active; 'I' for Inactive)
REMARK    1  A    between atoms: C_1  and  C_2
REMARK    2  A    between atoms: C_2  and  C_3
REMARK    3  A    between atoms: C_3  and  O_4
REMARK    4  A    between atoms: O_4  and  C_5
REMARK    5  A    between atoms: C_8  and  C_9
REMARK    6  A    between atoms: C_12  and  S_13
REMARK    7  A    between atoms: S_13  and  C_14
REMARK    8  A    between atoms: C_14  and  C_15
REMARK    9  A    between atoms: C_15  and  C_17
REMARK                            x       y       z     vdW  Elec       q    Type
REMARK                         _______ _______ _______ _____ _____    ______ ____
ROOT
ATOM      1  C   UNL     1       2.897   6.174  19.045  0.00  0.00    +0.000 A 
ATOM      2  N   UNL     1       2.336   5.331  19.900  0.00  0.00    +0.000 NA
ATOM      3  N   UNL     1       1.533   6.037  20.765  0.00  0.00    +0.000 NA
ATOM      4  C   UNL     1       1.621   7.297  20.428  0.00  0.00    +0.000 A 
ATOM      5  N   UNL     1       2.441   7.432  19.347  0.00  0.00    +0.000 N 
ATOM      6  H   UNL     1       2.667   8.306  18.891  0.00  0.00    +0.000 HD
ENDROOT
BRANCH   1  10
ATOM      7  C   UNL     1       5.609   5.300  15.829  0.00  0.00    +0.000 A 
ATOM      8  C   UNL     1       5.155   6.591  16.087  0.00  0.00    +0.000 A 
ATOM      9  C   UNL     1       4.283   6.839  17.145  0.00  0.00    +0.000 A 
ATOM     10  C   UNL     1       3.837   5.810  17.980  0.00  0.00    +0.000 A 
ATOM     11  C   UNL     1       4.291   4.511  17.725  0.00  0.00    +0.000 A 
ATOM     12  C   UNL     1       5.172   4.260  16.654  0.00  0.00    +0.000 A 
BRANCH   7  13
ATOM     13  O   UNL     1       6.467   4.975  14.804  0.00  0.00    +0.000 OA
BRANCH  13  14
ATOM     14  C   UNL     1       6.071   3.822  14.049  0.00  0.00    +0.000 C 
BRANCH  14  16
ATOM     15  C   UNL     1       7.579   5.032  12.462  0.00  0.00    +0.000 C 
ATOM     16  C   UNL     1       6.571   3.898  12.613  0.00  0.00    +0.000 C 
ENDBRANCH  14  16
ENDBRANCH  13  14
ENDBRANCH   7  13
ENDBRANCH   1  10
BRANCH   4  17
ATOM     17  S   UNL     1       0.727   8.609  21.099  0.00  0.00    +0.000 S 
BRANCH  17  18
ATOM     18  C   UNL     1       1.130  10.002  20.006  0.00  0.00    +0.000 C 
BRANCH  18  19
ATOM     19  C   UNL     1       0.501   9.860  18.629  0.00  0.00    +0.000 C 
ATOM     20  O   UNL     1       1.082   9.379  17.653  0.00  0.00    +0.000 OA
BRANCH  19  21
ATOM     21  C   UNL     1      -0.866  10.407  18.409  0.00  0.00    +0.000 A 
ATOM     22  C   UNL     1      -1.618   9.854  17.359  0.00  0.00    +0.000 A 
ATOM     23  C   UNL     1      -2.908  10.313  17.094  0.00  0.00    +0.000 A 
ATOM     24  C   UNL     1      -3.457  11.314  17.888  0.00  0.00    +0.000 A 
ATOM     25 CL   UNL     1      -5.050  11.877  17.566  0.00  0.00    +0.000 Cl
ATOM     26  C   UNL     1      -2.725  11.861  18.943  0.00  0.00    +0.000 A 
ATOM     27  C   UNL     1      -1.425  11.413  19.205  0.00  0.00    +0.000 A 
ENDBRANCH  19  21
ENDBRANCH  18  19
ENDBRANCH  17  18
ENDBRANCH   4  17
TORSDOF 8
ENDMDL
MODEL 8
REMARK VINA RESULT:      -7.4      2.043      2.714
REMARK  Name = 
REMARK  9 active torsions:
REMARK  status: ('A' for Active; 'I' for Inactive)
REMARK    1  A    between atoms: C_1  and  C_2
REMARK    2  A    between atoms: C_2  and  C_3
REMARK    3  A    between atoms: C_3  and  O_4
REMARK    4  A    between atoms: O_4  and  C_5
REMARK    5  A    between atoms: C_8  and  C_9
REMARK    6  A    between atoms: C_12  and  S_13
REMARK    7  A    between atoms: S_13  and  C_14
REMARK    8  A    between atoms: C_14  and  C_15
REMARK    9  A    between atoms: C_15  and  C_17
REMARK                            x       y       z     vdW  Elec       q    Type
REMARK                         _______ _______ _______ _____ _____    ______ ____
ROOT
ATOM      1  C   UNL     1       8.409   8.943  18.338  0.00  0.00    +0.000 A 
ATOM      2  N   UNL     1       7.608   8.916  17.283  0.00  0.00    +0.000 NA
ATOM      3  N   UNL     1       7.194   7.623  17.065  0.00  0.00    +0.000 NA
ATOM      4  C   UNL     1       7.753   6.882  17.986  0.00  0.00    +0.000 A 
ATOM      5  N   UNL     1       8.501   7.661  18.818  0.00  0.00    +0.000 N 
ATOM      6  H   UNL     1       9.028   7.326  19.614  0.00  0.00    +0.000 HD
ENDROOT
BRANCH   1  10
ATOM      7  C   UNL     1      10.442  12.466  19.723  0.00  0.00    +0.000 A 
ATOM      8  C   UNL     1      10.275  12.190  18.368  0.00  0.00    +0.000 A 
ATOM      9  C   UNL     1       9.601  11.042  17.956  0.00  0.00    +0.000 A 
ATOM     10  C   UNL     1       9.073  10.134  18.877  0.00  0.00    +0.000 A 
ATOM     11  C   UNL     1       9.237  10.408  20.241  0.00  0.00    +0.000 A 
ATOM     12  C   UNL     1       9.920  11.568  20.658  0.00  0.00    +0.000 A 
BRANCH   7  13
ATOM     13  O   UNL     1      11.096  13.574  20.209  0.00  0.00    +0.000 OA
BRANCH  13  14
ATOM     14  C   UNL     1      10.235  14.682  20.507  0.00  0.00    +0.000 C 
BRANCH  14  16
ATOM     15  C   UNL     1       9.916  15.647  22.792  0.00  0.00    +0.000 C 
ATOM     16  C   UNL     1      10.836  15.582  21.578  0.00  0.00    +0.000 C 
ENDBRANCH  14  16
ENDBRANCH  13  14
ENDBRANCH   7  13
ENDBRANCH   1  10
BRANCH   4  17
ATOM     17  S   UNL     1       7.483   5.203  18.261  0.00  0.00    +0.000 S 
BRANCH  17  18
ATOM     18  C   UNL     1       6.010   5.176  19.323  0.00  0.00    +0.000 C 
BRANCH  18  19
ATOM     19  C   UNL     1       4.720   5.085  18.523  0.00  0.00    +0.000 C 
ATOM     20  O   UNL     1       4.441   4.146  17.773  0.00  0.00    +0.000 OA
BRANCH  19  21
ATOM     21  C   UNL     1       3.766   6.227  18.574  0.00  0.00    +0.000 A 
ATOM     22  C   UNL     1       2.907   6.297  19.682  0.00  0.00    +0.000 A 
ATOM     23  C   UNL     1       1.987   7.340  19.801  0.00  0.00    +0.000 A 
ATOM     24  C   UNL     1       1.937   8.324  18.820  0.00  0.00    +0.000 A 
ATOM     25 CL   UNL     1       0.808   9.614  18.967  0.00  0.00    +0.000 Cl
ATOM     26  C   UNL     1       2.796   8.273  17.721  0.00  0.00    +0.000 A 
ATOM     27  C   UNL     1       3.711   7.221  17.591  0.00  0.00    +0.000 A 
ENDBRANCH  19  21
ENDBRANCH  18  19
ENDBRANCH  17  18
ENDBRANCH   4  17
TORSDOF 8
ENDMDL
MODEL 9
REMARK VINA RESULT:      -7.3      6.791      9.597
REMARK  Name = 
REMARK  9 active torsions:
REMARK  status: ('A' for Active; 'I' for Inactive)
REMARK    1  A    between atoms: C_1  and  C_2
REMARK    2  A    between atoms: C_2  and  C_3
REMARK    3  A    between atoms: C_3  and  O_4
REMARK    4  A    between atoms: O_4  and  C_5
REMARK    5  A    between atoms: C_8  and  C_9
REMARK    6  A    between atoms: C_12  and  S_13
REMARK    7  A    between atoms: S_13  and  C_14
REMARK    8  A    between atoms: C_14  and  C_15
REMARK    9  A    between atoms: C_15  and  C_17
REMARK                            x       y       z     vdW  Elec       q    Type
REMARK                         _______ _______ _______ _____ _____    ______ ____
ROOT
ATOM      1  C   UNL     1       2.931   6.400  18.745  0.00  0.00    +0.000 A 
ATOM      2  N   UNL     1       2.546   5.867  19.896  0.00  0.00    +0.000 NA
ATOM      3  N   UNL     1       1.800   6.790  20.591  0.00  0.00    +0.000 NA
ATOM      4  C   UNL     1       1.747   7.871  19.858  0.00  0.00    +0.000 A 
ATOM      5  N   UNL     1       2.417   7.670  18.687  0.00  0.00    +0.000 N 
ATOM      6  H   UNL     1       2.516   8.353  17.947  0.00  0.00    +0.000 HD
ENDROOT
BRANCH   1  10
ATOM      7  C   UNL     1       5.322   4.273  15.877  0.00  0.00    +0.000 A 
ATOM      8  C   UNL     1       4.409   3.628  16.708  0.00  0.00    +0.000 A 
ATOM      9  C   UNL     1       3.644   4.351  17.620  0.00  0.00    +0.000 A 
ATOM     10  C   UNL     1       3.761   5.739  17.733  0.00  0.00    +0.000 A 
ATOM     11  C   UNL     1       4.675   6.393  16.900  0.00  0.00    +0.000 A 
ATOM     12  C   UNL     1       5.452   5.662  15.979  0.00  0.00    +0.000 A 
BRANCH   7  13
ATOM     13  O   UNL     1       6.115   3.631  14.955  0.00  0.00    +0.000 OA
BRANCH  13  14
ATOM     14  C   UNL     1       6.426   4.417  13.797  0.00  0.00    +0.000 C 
BRANCH  14  16
ATOM     15  C   UNL     1       4.936   3.335  12.104  0.00  0.00    +0.000 C 
ATOM     16  C   UNL     1       6.380   3.580  12.527  0.00  0.00    +0.000 C 
ENDBRANCH  14  16
ENDBRANCH  13  14
ENDBRANCH   7  13
ENDBRANCH   1  10
BRANCH   4  17
ATOM     17  S   UNL     1       0.840   9.298  20.188  0.00  0.00    +0.000 S 
BRANCH  17  18
ATOM     18  C   UNL     1       1.166  10.353  18.748  0.00  0.00    +0.000 C 
BRANCH  18  19
ATOM     19  C   UNL     1       0.256  11.571  18.701  0.00  0.00    +0.000 C 
ATOM     20  O   UNL     1       0.639  12.723  18.919  0.00  0.00    +0.000 OA
BRANCH  19  21
ATOM     21  C   UNL     1      -1.198  11.367  18.463  0.00  0.00    +0.000 A 
ATOM     22  C   UNL     1      -2.089  12.121  19.244  0.00  0.00    +0.000 A 
ATOM     23  C   UNL     1      -3.468  11.987  19.075  0.00  0.00    +0.000 A 
ATOM     24  C   UNL     1      -3.959  11.110  18.114  0.00  0.00    +0.000 A 
ATOM     25 CL   UNL     1      -5.657  10.947  17.902  0.00  0.00    +0.000 Cl
ATOM     26  C   UNL     1      -3.083  10.366  17.322  0.00  0.00    +0.000 A 
ATOM     27  C   UNL     1      -1.699  10.488  17.496  0.00  0.00    +0.000 A 
ENDBRANCH  19  21
ENDBRANCH  18  19
ENDBRANCH  17  18
ENDBRANCH   4  17
TORSDOF 8
ENDMDL
