MODEL 1
REMARK VINA RESULT:      -6.0      0.000      0.000
REMARK  Name = 
REMARK  6 active torsions:
REMARK  status: ('A' for Active; 'I' for Inactive)
REMARK    1  A    between atoms: C_1  and  C_2
REMARK    2  A    between atoms: C_2  and  O_3
REMARK    3  A    between atoms: O_3  and  C_4
REMARK    4  A    between atoms: C_10  and  S_11
REMARK    5  A    between atoms: S_11  and  N_14
REMARK    6  A    between atoms: C_17  and  C_18
REMARK                            x       y       z     vdW  Elec       q    Type
REMARK                         _______ _______ _______ _____ _____    ______ ____
ROOT
ATOM      1  S   UNL     1       0.204  12.369  20.711  0.00  0.00    +0.000 S 
ATOM      2  O   UNL     1      -0.643  13.451  21.186  0.00  0.00    +0.000 OA
ATOM      3  O   UNL     1       0.662  11.363  21.643  0.00  0.00    +0.000 OA
ENDROOT
BRANCH   1  10
ATOM      4  C   UNL     1      -0.147  10.421  18.763  0.00  0.00    +0.000 A 
ATOM      5  C   UNL     1      -1.016   9.650  17.973  0.00  0.00    +0.000 A 
ATOM      6  C   UNL     1      -2.325  10.069  17.725  0.00  0.00    +0.000 A 
ATOM      7  C   UNL     1      -2.785  11.258  18.274  0.00  0.00    +0.000 A 
ATOM      8 CL   UNL     1      -4.376  11.805  17.920  0.00  0.00    +0.000 Cl
ATOM      9  C   UNL     1      -1.972  11.992  19.130  0.00  0.00    +0.000 A 
ATOM     10  C   UNL     1      -0.663  11.554  19.403  0.00  0.00    +0.000 A 
BRANCH   4  11
ATOM     11  O   UNL     1       1.178  10.108  18.914  0.00  0.00    +0.000 OA
BRANCH  11  13
ATOM     12  C   UNL     1       2.447   8.248  18.048  0.00  0.00    +0.000 C 
ATOM     13  C   UNL     1       1.814   9.596  17.741  0.00  0.00    +0.000 C 
ENDBRANCH  11  13
ENDBRANCH   4  11
ENDBRANCH   1  10
BRANCH   1  14
ATOM     14  N   UNL     1       1.593  13.143  20.033  0.00  0.00    +0.000 NA
ATOM     15  C   UNL     1       1.300  13.934  18.814  0.00  0.00    +0.000 C 
ATOM     16  C   UNL     1       2.544  14.676  18.347  0.00  0.00    +0.000 C 
ATOM     17  C   UNL     1       2.954  15.694  19.420  0.00  0.00    +0.000 C 
ATOM     18  C   UNL     1       3.355  14.887  20.646  0.00  0.00    +0.000 C 
ATOM     19  C   UNL     1       2.325  13.874  21.120  0.00  0.00    +0.000 C 
BRANCH  17  20
ATOM     20  C   UNL     1       1.900  16.826  19.454  0.00  0.00    +0.000 C 
ATOM     21  O   UNL     1       1.499  17.229  20.554  0.00  0.00    +0.000 OA
ATOM     22  N   UNL     1       1.241  17.219  18.309  0.00  0.00    +0.000 N 
ATOM     23  C   UNL     1      -0.030  17.909  18.472  0.00  0.00    +0.000 C 
ATOM     24  C   UNL     1      -0.481  18.151  17.048  0.00  0.00    +0.000 C 
ATOM     25  C   UNL     1       0.823  18.506  16.346  0.00  0.00    +0.000 C 
ATOM     26  C   UNL     1       1.908  17.768  17.138  0.00  0.00    +0.000 C 
ENDBRANCH  17  20
ENDBRANCH   1  14
TORSDOF 5
ENDMDL
MODEL 2
REMARK VINA RESULT:      -5.9      5.763      7.881
REMARK  Name = 
REMARK  6 active torsions:
REMARK  status: ('A' for Active; 'I' for Inactive)
REMARK    1  A    between atoms: C_1  and  C_2
REMARK    2  A    between atoms: C_2  and  O_3
REMARK    3  A    between atoms: O_3  and  C_4
REMARK    4  A    between atoms: C_10  and  S_11
REMARK    5  A    between atoms: S_11  and  N_14
REMARK    6  A    between atoms: C_17  and  C_18
REMARK                            x       y       z     vdW  Elec       q    Type
REMARK                         _______ _______ _______ _____ _____    ______ ____
ROOT
ATOM      1  S   UNL     1       2.575   5.890  18.828  0.00  0.00    +0.000 S 
ATOM      2  O   UNL     1       1.477   5.540  17.940  0.00  0.00    +0.000 OA
ATOM      3  O   UNL     1       2.611   5.339  20.164  0.00  0.00    +0.000 OA
ENDROOT
BRANCH   1  10
ATOM      4  C   UNL     1       4.174   4.317  17.191  0.00  0.00    +0.000 A 
ATOM      5  C   UNL     1       5.280   4.208  16.333  0.00  0.00    +0.000 A 
ATOM      6  C   UNL     1       6.323   5.136  16.382  0.00  0.00    +0.000 A 
ATOM      7  C   UNL     1       6.266   6.191  17.283  0.00  0.00    +0.000 A 
ATOM      8 CL   UNL     1       7.577   7.299  17.386  0.00  0.00    +0.000 Cl
ATOM      9  C   UNL     1       5.141   6.368  18.080  0.00  0.00    +0.000 A 
ATOM     10  C   UNL     1       4.078   5.450  18.008  0.00  0.00    +0.000 A 
BRANCH   4  11
ATOM     11  O   UNL     1       3.203   3.352  17.262  0.00  0.00    +0.000 OA
BRANCH  11  13
ATOM     12  C   UNL     1       2.720   2.091  19.261  0.00  0.00    +0.000 C 
ATOM     13  C   UNL     1       3.567   2.185  18.002  0.00  0.00    +0.000 C 
ENDBRANCH  11  13
ENDBRANCH   4  11
ENDBRANCH   1  10
BRANCH   1  14
ATOM     14  N   UNL     1       2.520   7.613  18.960  0.00  0.00    +0.000 NA
ATOM     15  C   UNL     1       2.264   8.302  17.673  0.00  0.00    +0.000 C 
ATOM     16  C   UNL     1       2.114   9.801  17.890  0.00  0.00    +0.000 C 
ATOM     17  C   UNL     1       0.875  10.061  18.760  0.00  0.00    +0.000 C 
ATOM     18  C   UNL     1       1.169   9.444  20.119  0.00  0.00    +0.000 C 
ATOM     19  C   UNL     1       1.606   7.988  20.090  0.00  0.00    +0.000 C 
BRANCH  17  20
ATOM     20  C   UNL     1      -0.388   9.730  17.931  0.00  0.00    +0.000 C 
ATOM     21  O   UNL     1      -0.353   8.762  17.159  0.00  0.00    +0.000 OA
ATOM     22  N   UNL     1      -1.444  10.612  17.861  0.00  0.00    +0.000 N 
ATOM     23  C   UNL     1      -2.350  10.483  16.729  0.00  0.00    +0.000 C 
ATOM     24  C   UNL     1      -3.341  11.606  16.945  0.00  0.00    +0.000 C 
ATOM     25  C   UNL     1      -3.539  11.584  18.455  0.00  0.00    +0.000 C 
ATOM     26  C   UNL     1      -2.220  11.042  19.015  0.00  0.00    +0.000 C 
ENDBRANCH  17  20
ENDBRANCH   1  14
TORSDOF 5
ENDMDL
MODEL 3
REMARK VINA RESULT:      -5.7      2.972      4.508
REMARK  Name = 
REMARK  6 active torsions:
REMARK  status: ('A' for Active; 'I' for Inactive)
REMARK    1  A    between atoms: C_1  and  C_2
REMARK    2  A    between atoms: C_2  and  O_3
REMARK    3  A    between atoms: O_3  and  C_4
REMARK    4  A    between atoms: C_10  and  S_11
REMARK    5  A    between atoms: S_11  and  N_14
REMARK    6  A    between atoms: C_17  and  C_18
REMARK                            x       y       z     vdW  Elec       q    Type
REMARK                         _______ _______ _______ _____ _____    ______ ____
ROOT
ATOM      1  S   UNL     1      -0.001  12.213  19.611  0.00  0.00    +0.000 S 
ATOM      2  O   UNL     1       0.308  12.460  18.211  0.00  0.00    +0.000 OA
ATOM      3  O   UNL     1      -1.382  12.189  20.039  0.00  0.00    +0.000 OA
ENDROOT
BRANCH   1  10
ATOM      4  C   UNL     1       0.629  10.135  21.341  0.00  0.00    +0.000 A 
ATOM      5  C   UNL     1       0.960   8.783  21.530  0.00  0.00    +0.000 A 
ATOM      6  C   UNL     1       1.507   8.024  20.494  0.00  0.00    +0.000 A 
ATOM      7  C   UNL     1       1.720   8.606  19.251  0.00  0.00    +0.000 A 
ATOM      8 CL   UNL     1       2.450   7.691  17.992  0.00  0.00    +0.000 Cl
ATOM      9  C   UNL     1       1.320   9.916  19.016  0.00  0.00    +0.000 A 
ATOM     10  C   UNL     1       0.740  10.670  20.052  0.00  0.00    +0.000 A 
BRANCH   4  11
ATOM     11  O   UNL     1       0.218  10.941  22.371  0.00  0.00    +0.000 OA
BRANCH  11  13
ATOM     12  C   UNL     1      -1.939  11.511  23.287  0.00  0.00    +0.000 C 
ATOM     13  C   UNL     1      -0.880  10.432  23.132  0.00  0.00    +0.000 C 
ENDBRANCH  11  13
ENDBRANCH   4  11
ENDBRANCH   1  10
BRANCH   1  14
ATOM     14  N   UNL     1       0.808  13.468  20.482  0.00  0.00    +0.000 NA
ATOM     15  C   UNL     1       2.284  13.327  20.496  0.00  0.00    +0.000 C 
ATOM     16  C   UNL     1       2.927  14.526  21.179  0.00  0.00    +0.000 C 
ATOM     17  C   UNL     1       2.632  15.790  20.358  0.00  0.00    +0.000 C 
ATOM     18  C   UNL     1       1.127  16.001  20.422  0.00  0.00    +0.000 C 
ATOM     19  C   UNL     1       0.287  14.798  20.022  0.00  0.00    +0.000 C 
BRANCH  17  20
ATOM     20  C   UNL     1       3.426  15.712  19.032  0.00  0.00    +0.000 C 
ATOM     21  O   UNL     1       2.798  15.709  17.966  0.00  0.00    +0.000 OA
ATOM     22  N   UNL     1       4.772  15.415  19.026  0.00  0.00    +0.000 N 
ATOM     23  C   UNL     1       5.335  14.893  17.790  0.00  0.00    +0.000 C 
ATOM     24  C   UNL     1       6.785  14.646  18.143  0.00  0.00    +0.000 C 
ATOM     25  C   UNL     1       7.117  15.844  19.024  0.00  0.00    +0.000 C 
ATOM     26  C   UNL     1       5.787  16.231  19.676  0.00  0.00    +0.000 C 
ENDBRANCH  17  20
ENDBRANCH   1  14
TORSDOF 5
ENDMDL
MODEL 4
REMARK VINA RESULT:      -5.7      5.420      7.797
REMARK  Name = 
REMARK  6 active torsions:
REMARK  status: ('A' for Active; 'I' for Inactive)
REMARK    1  A    between atoms: C_1  and  C_2
REMARK    2  A    between atoms: C_2  and  O_3
REMARK    3  A    between atoms: O_3  and  C_4
REMARK    4  A    between atoms: C_10  and  S_11
REMARK    5  A    between atoms: S_11  and  N_14
REMARK    6  A    between atoms: C_17  and  C_18
REMARK                            x       y       z     vdW  Elec       q    Type
REMARK                         _______ _______ _______ _____ _____    ______ ____
ROOT
ATOM      1  S   UNL     1       2.328   5.937  18.608  0.00  0.00    +0.000 S 
ATOM      2  O   UNL     1       1.284   5.742  17.615  0.00  0.00    +0.000 OA
ATOM      3  O   UNL     1       2.222   5.276  19.890  0.00  0.00    +0.000 OA
ENDROOT
BRANCH   1  10
ATOM      4  C   UNL     1       3.979   4.297  17.092  0.00  0.00    +0.000 A 
ATOM      5  C   UNL     1       5.118   4.151  16.284  0.00  0.00    +0.000 A 
ATOM      6  C   UNL     1       6.165   5.073  16.343  0.00  0.00    +0.000 A 
ATOM      7  C   UNL     1       6.081   6.159  17.204  0.00  0.00    +0.000 A 
ATOM      8 CL   UNL     1       7.396   7.261  17.322  0.00  0.00    +0.000 Cl
ATOM      9  C   UNL     1       4.927   6.371  17.949  0.00  0.00    +0.000 A 
ATOM     10  C   UNL     1       3.860   5.458  17.866  0.00  0.00    +0.000 A 
BRANCH   4  11
ATOM     11  O   UNL     1       2.998   3.342  17.157  0.00  0.00    +0.000 OA
BRANCH  11  13
ATOM     12  C   UNL     1       2.277   1.952  18.991  0.00  0.00    +0.000 C 
ATOM     13  C   UNL     1       3.335   2.184  17.924  0.00  0.00    +0.000 C 
ENDBRANCH  11  13
ENDBRANCH   4  11
ENDBRANCH   1  10
BRANCH   1  14
ATOM     14  N   UNL     1       2.377   7.642  18.888  0.00  0.00    +0.000 NA
ATOM     15  C   UNL     1       1.637   8.434  17.876  0.00  0.00    +0.000 C 
ATOM     16  C   UNL     1       1.627   9.908  18.254  0.00  0.00    +0.000 C 
ATOM     17  C   UNL     1       0.858  10.084  19.571  0.00  0.00    +0.000 C 
ATOM     18  C   UNL     1       1.664   9.360  20.638  0.00  0.00    +0.000 C 
ATOM     19  C   UNL     1       2.012   7.914  20.318  0.00  0.00    +0.000 C 
BRANCH  17  20
ATOM     20  C   UNL     1      -0.642   9.812  19.305  0.00  0.00    +0.000 C 
ATOM     21  O   UNL     1      -1.241   9.022  20.048  0.00  0.00    +0.000 OA
ATOM     22  N   UNL     1      -1.248  10.240  18.144  0.00  0.00    +0.000 N 
ATOM     23  C   UNL     1      -2.471   9.563  17.739  0.00  0.00    +0.000 C 
ATOM     24  C   UNL     1      -2.831  10.242  16.436  0.00  0.00    +0.000 C 
ATOM     25  C   UNL     1      -2.480  11.698  16.716  0.00  0.00    +0.000 C 
ATOM     26  C   UNL     1      -1.351  11.637  17.749  0.00  0.00    +0.000 C 
ENDBRANCH  17  20
ENDBRANCH   1  14
TORSDOF 5
ENDMDL
MODEL 5
REMARK VINA RESULT:      -5.6      4.418      7.670
REMARK  Name = 
REMARK  6 active torsions:
REMARK  status: ('A' for Active; 'I' for Inactive)
REMARK    1  A    between atoms: C_1  and  C_2
REMARK    2  A    between atoms: C_2  and  O_3
REMARK    3  A    between atoms: O_3  and  C_4
REMARK    4  A    between atoms: C_10  and  S_11
REMARK    5  A    between atoms: S_11  and  N_14
REMARK    6  A    between atoms: C_17  and  C_18
REMARK                            x       y       z     vdW  Elec       q    Type
REMARK                         _______ _______ _______ _____ _____    ______ ____
ROOT
ATOM      1  S   UNL     1      -0.507  11.756  19.301  0.00  0.00    +0.000 S 
ATOM      2  O   UNL     1       0.594  11.501  18.385  0.00  0.00    +0.000 OA
ATOM      3  O   UNL     1      -0.625  13.054  19.925  0.00  0.00    +0.000 OA
ENDROOT
BRANCH   1  10
ATOM      4  C   UNL     1      -3.258  11.811  18.926  0.00  0.00    +0.000 A 
ATOM      5  C   UNL     1      -4.354  11.805  18.048  0.00  0.00    +0.000 A 
ATOM      6  C   UNL     1      -4.234  11.308  16.749  0.00  0.00    +0.000 A 
ATOM      7  C   UNL     1      -3.011  10.820  16.308  0.00  0.00    +0.000 A 
ATOM      8 CL   UNL     1      -2.876  10.152  14.729  0.00  0.00    +0.000 Cl
ATOM      9  C   UNL     1      -1.892  10.896  17.129  0.00  0.00    +0.000 A 
ATOM     10  C   UNL     1      -2.008  11.425  18.427  0.00  0.00    +0.000 A 
BRANCH   4  11
ATOM     11  O   UNL     1      -3.376  12.165  20.244  0.00  0.00    +0.000 OA
BRANCH  11  13
ATOM     12  C   UNL     1      -5.312  12.726  21.569  0.00  0.00    +0.000 C 
ATOM     13  C   UNL     1      -4.330  13.196  20.508  0.00  0.00    +0.000 C 
ENDBRANCH  11  13
ENDBRANCH   4  11
ENDBRANCH   1  10
BRANCH   1  14
ATOM     14  N   UNL     1      -0.342  10.573  20.551  0.00  0.00    +0.000 NA
ATOM     15  C   UNL     1      -0.707   9.201  20.126  0.00  0.00    +0.000 C 
ATOM     16  C   UNL     1      -0.425   8.204  21.240  0.00  0.00    +0.000 C 
ATOM     17  C   UNL     1       1.086   8.172  21.515  0.00  0.00    +0.000 C 
ATOM     18  C   UNL     1       1.454   9.547  22.049  0.00  0.00    +0.000 C 
ATOM     19  C   UNL     1       1.011  10.718  21.185  0.00  0.00    +0.000 C 
BRANCH  17  20
ATOM     20  C   UNL     1       1.792   7.510  20.307  0.00  0.00    +0.000 C 
ATOM     21  O   UNL     1       2.260   8.239  19.423  0.00  0.00    +0.000 OA
ATOM     22  N   UNL     1       1.701   6.152  20.087  0.00  0.00    +0.000 N 
ATOM     23  C   UNL     1       1.955   5.676  18.735  0.00  0.00    +0.000 C 
ATOM     24  C   UNL     1       1.735   4.183  18.844  0.00  0.00    +0.000 C 
ATOM     25  C   UNL     1       2.344   3.859  20.203  0.00  0.00    +0.000 C 
ATOM     26  C   UNL     1       2.182   5.145  21.020  0.00  0.00    +0.000 C 
ENDBRANCH  17  20
ENDBRANCH   1  14
TORSDOF 5
ENDMDL
MODEL 6
REMARK VINA RESULT:      -5.6      2.274      2.932
REMARK  Name = 
REMARK  6 active torsions:
REMARK  status: ('A' for Active; 'I' for Inactive)
REMARK    1  A    between atoms: C_1  and  C_2
REMARK    2  A    between atoms: C_2  and  O_3
REMARK    3  A    between atoms: O_3  and  C_4
REMARK    4  A    between atoms: C_10  and  S_11
REMARK    5  A    between atoms: S_11  and  N_14
REMARK    6  A    between atoms: C_17  and  C_18
REMARK                            x       y       z     vdW  Elec       q    Type
REMARK                         _______ _______ _______ _____ _____    ______ ____
ROOT
ATOM      1  S   UNL     1      -0.053  12.004  19.118  0.00  0.00    +0.000 S 
ATOM      2  O   UNL     1       0.325  10.689  18.625  0.00  0.00    +0.000 OA
ATOM      3  O   UNL     1      -0.824  12.886  18.270  0.00  0.00    +0.000 OA
ENDROOT
BRANCH   1  10
ATOM      4  C   UNL     1      -0.391  11.092  21.719  0.00  0.00    +0.000 A 
ATOM      5  C   UNL     1      -1.021  11.219  22.968  0.00  0.00    +0.000 A 
ATOM      6  C   UNL     1      -2.237  11.894  23.095  0.00  0.00    +0.000 A 
ATOM      7  C   UNL     1      -2.833  12.459  21.976  0.00  0.00    +0.000 A 
ATOM      8 CL   UNL     1      -4.360  13.237  22.120  0.00  0.00    +0.000 Cl
ATOM      9  C   UNL     1      -2.186  12.421  20.746  0.00  0.00    +0.000 A 
ATOM     10  C   UNL     1      -0.946  11.767  20.625  0.00  0.00    +0.000 A 
BRANCH   4  11
ATOM     11  O   UNL     1       0.729  10.323  21.537  0.00  0.00    +0.000 OA
BRANCH  11  13
ATOM     12  C   UNL     1       1.353   8.065  20.965  0.00  0.00    +0.000 C 
ATOM     13  C   UNL     1       0.592   8.957  21.933  0.00  0.00    +0.000 C 
ENDBRANCH  11  13
ENDBRANCH   4  11
ENDBRANCH   1  10
BRANCH   1  14
ATOM     14  N   UNL     1       1.438  12.793  19.496  0.00  0.00    +0.000 NA
ATOM     15  C   UNL     1       2.273  13.091  18.307  0.00  0.00    +0.000 C 
ATOM     16  C   UNL     1       3.508  13.886  18.707  0.00  0.00    +0.000 C 
ATOM     17  C   UNL     1       3.069  15.247  19.266  0.00  0.00    +0.000 C 
ATOM     18  C   UNL     1       2.297  14.957  20.544  0.00  0.00    +0.000 C 
ATOM     19  C   UNL     1       1.161  13.956  20.402  0.00  0.00    +0.000 C 
BRANCH  17  20
ATOM     20  C   UNL     1       2.504  16.098  18.104  0.00  0.00    +0.000 C 
ATOM     21  O   UNL     1       3.194  16.241  17.086  0.00  0.00    +0.000 OA
ATOM     22  N   UNL     1       1.378  16.874  18.273  0.00  0.00    +0.000 N 
ATOM     23  C   UNL     1       1.184  17.981  17.348  0.00  0.00    +0.000 C 
ATOM     24  C   UNL     1      -0.095  18.625  17.838  0.00  0.00    +0.000 C 
ATOM     25  C   UNL     1      -0.942  17.421  18.225  0.00  0.00    +0.000 C 
ATOM     26  C   UNL     1       0.069  16.341  18.622  0.00  0.00    +0.000 C 
ENDBRANCH  17  20
ENDBRANCH   1  14
TORSDOF 5
ENDMDL
MODEL 7
REMARK VINA RESULT:      -5.6      3.175      4.840
REMARK  Name = 
REMARK  6 active torsions:
REMARK  status: ('A' for Active; 'I' for Inactive)
REMARK    1  A    between atoms: C_1  and  C_2
REMARK    2  A    between atoms: C_2  and  O_3
REMARK    3  A    between atoms: O_3  and  C_4
REMARK    4  A    between atoms: C_10  and  S_11
REMARK    5  A    between atoms: S_11  and  N_14
REMARK    6  A    between atoms: C_17  and  C_18
REMARK                            x       y       z     vdW  Elec       q    Type
REMARK                         _______ _______ _______ _____ _____    ______ ____
ROOT
ATOM      1  S   UNL     1       0.112  12.518  19.613  0.00  0.00    +0.000 S 
ATOM      2  O   UNL     1       0.946  12.045  18.520  0.00  0.00    +0.000 OA
ATOM      3  O   UNL     1      -1.274  12.844  19.360  0.00  0.00    +0.000 OA
ENDROOT
BRANCH   1  10
ATOM      4  C   UNL     1      -0.494  11.465  22.110  0.00  0.00    +0.000 A 
ATOM      5  C   UNL     1      -0.672  10.341  22.933  0.00  0.00    +0.000 A 
ATOM      6  C   UNL     1      -0.095   9.111  22.605  0.00  0.00    +0.000 A 
ATOM      7  C   UNL     1       0.658   8.990  21.445  0.00  0.00    +0.000 A 
ATOM      8 CL   UNL     1       1.418   7.494  21.072  0.00  0.00    +0.000 Cl
ATOM      9  C   UNL     1       0.774  10.066  20.573  0.00  0.00    +0.000 A 
ATOM     10  C   UNL     1       0.167  11.295  20.888  0.00  0.00    +0.000 A 
BRANCH   4  11
ATOM     11  O   UNL     1      -0.931  12.713  22.470  0.00  0.00    +0.000 OA
BRANCH  11  13
ATOM     12  C   UNL     1      -3.325  12.760  22.180  0.00  0.00    +0.000 C 
ATOM     13  C   UNL     1      -2.175  12.736  23.174  0.00  0.00    +0.000 C 
ENDBRANCH  11  13
ENDBRANCH   4  11
ENDBRANCH   1  10
BRANCH   1  14
ATOM     14  N   UNL     1       0.897  13.942  20.201  0.00  0.00    +0.000 NA
ATOM     15  C   UNL     1       2.353  13.772  20.420  0.00  0.00    +0.000 C 
ATOM     16  C   UNL     1       2.991  15.095  20.823  0.00  0.00    +0.000 C 
ATOM     17  C   UNL     1       2.852  16.092  19.663  0.00  0.00    +0.000 C 
ATOM     18  C   UNL     1       1.363  16.352  19.496  0.00  0.00    +0.000 C 
ATOM     19  C   UNL     1       0.501  15.108  19.343  0.00  0.00    +0.000 C 
BRANCH  17  20
ATOM     20  C   UNL     1       3.772  15.633  18.507  0.00  0.00    +0.000 C 
ATOM     21  O   UNL     1       3.251  15.155  17.491  0.00  0.00    +0.000 OA
ATOM     22  N   UNL     1       5.136  15.531  18.680  0.00  0.00    +0.000 N 
ATOM     23  C   UNL     1       5.863  14.666  17.763  0.00  0.00    +0.000 C 
ATOM     24  C   UNL     1       7.291  14.758  18.256  0.00  0.00    +0.000 C 
ATOM     25  C   UNL     1       7.415  16.228  18.633  0.00  0.00    +0.000 C 
ATOM     26  C   UNL     1       5.996  16.654  19.023  0.00  0.00    +0.000 C 
ENDBRANCH  17  20
ENDBRANCH   1  14
TORSDOF 5
ENDMDL
MODEL 8
REMARK VINA RESULT:      -5.5      8.588     10.731
REMARK  Name = 
REMARK  6 active torsions:
REMARK  status: ('A' for Active; 'I' for Inactive)
REMARK    1  A    between atoms: C_1  and  C_2
REMARK    2  A    between atoms: C_2  and  O_3
REMARK    3  A    between atoms: O_3  and  C_4
REMARK    4  A    between atoms: C_10  and  S_11
REMARK    5  A    between atoms: S_11  and  N_14
REMARK    6  A    between atoms: C_17  and  C_18
REMARK                            x       y       z     vdW  Elec       q    Type
REMARK                         _______ _______ _______ _____ _____    ______ ____
ROOT
ATOM      1  S   UNL     1       4.473   3.521  19.161  0.00  0.00    +0.000 S 
ATOM      2  O   UNL     1       4.873   2.973  20.448  0.00  0.00    +0.000 OA
ATOM      3  O   UNL     1       3.951   2.637  18.144  0.00  0.00    +0.000 OA
ENDROOT
BRANCH   1  10
ATOM      4  C   UNL     1       2.487   4.783  20.635  0.00  0.00    +0.000 A 
ATOM      5  C   UNL     1       1.794   5.960  20.963  0.00  0.00    +0.000 A 
ATOM      6  C   UNL     1       1.779   7.053  20.093  0.00  0.00    +0.000 A 
ATOM      7  C   UNL     1       2.465   6.985  18.888  0.00  0.00    +0.000 A 
ATOM      8 CL   UNL     1       2.397   8.305  17.789  0.00  0.00    +0.000 Cl
ATOM      9  C   UNL     1       3.228   5.864  18.582  0.00  0.00    +0.000 A 
ATOM     10  C   UNL     1       3.268   4.777  19.473  0.00  0.00    +0.000 A 
BRANCH   4  11
ATOM     11  O   UNL     1       2.411   3.650  21.401  0.00  0.00    +0.000 OA
BRANCH  11  13
ATOM     12  C   UNL     1       0.856   2.641  19.858  0.00  0.00    +0.000 C 
ATOM     13  C   UNL     1       1.170   2.946  21.313  0.00  0.00    +0.000 C 
ENDBRANCH  11  13
ENDBRANCH   4  11
ENDBRANCH   1  10
BRANCH   1  14
ATOM     14  N   UNL     1       5.892   4.282  18.532  0.00  0.00    +0.000 NA
ATOM     15  C   UNL     1       6.384   3.676  17.271  0.00  0.00    +0.000 C 
ATOM     16  C   UNL     1       7.560   4.470  16.720  0.00  0.00    +0.000 C 
ATOM     17  C   UNL     1       7.083   5.882  16.351  0.00  0.00    +0.000 C 
ATOM     18  C   UNL     1       6.670   6.550  17.654  0.00  0.00    +0.000 C 
ATOM     19  C   UNL     1       5.676   5.766  18.498  0.00  0.00    +0.000 C 
BRANCH  17  20
ATOM     20  C   UNL     1       6.158   5.783  15.115  0.00  0.00    +0.000 C 
ATOM     21  O   UNL     1       5.092   6.413  15.121  0.00  0.00    +0.000 OA
ATOM     22  N   UNL     1       6.382   4.841  14.133  0.00  0.00    +0.000 N 
ATOM     23  C   UNL     1       5.256   4.479  13.285  0.00  0.00    +0.000 C 
ATOM     24  C   UNL     1       5.834   3.421  12.371  0.00  0.00    +0.000 C 
ATOM     25  C   UNL     1       7.230   3.958  12.088  0.00  0.00    +0.000 C 
ATOM     26  C   UNL     1       7.593   4.780  13.329  0.00  0.00    +0.000 C 
ENDBRANCH  17  20
ENDBRANCH   1  14
TORSDOF 5
ENDMDL
MODEL 9
REMARK VINA RESULT:      -5.5      4.163      6.020
REMARK  Name = 
REMARK  6 active torsions:
REMARK  status: ('A' for Active; 'I' for Inactive)
REMARK    1  A    between atoms: C_1  and  C_2
REMARK    2  A    between atoms: C_2  and  O_3
REMARK    3  A    between atoms: O_3  and  C_4
REMARK    4  A    between atoms: C_10  and  S_11
REMARK    5  A    between atoms: S_11  and  N_14
REMARK    6  A    between atoms: C_17  and  C_18
REMARK                            x       y       z     vdW  Elec       q    Type
REMARK                         _______ _______ _______ _____ _____    ______ ____
ROOT
ATOM      1  S   UNL     1      -5.111  13.233  22.057  0.00  0.00    +0.000 S 
ATOM      2  O   UNL     1      -4.618  14.573  22.333  0.00  0.00    +0.000 OA
ATOM      3  O   UNL     1      -5.988  12.589  23.009  0.00  0.00    +0.000 OA
ENDROOT
BRANCH   1  10
ATOM      4  C   UNL     1      -6.696  12.209  20.021  0.00  0.00    +0.000 A 
ATOM      5  C   UNL     1      -7.568  12.436  18.943  0.00  0.00    +0.000 A 
ATOM      6  C   UNL     1      -7.584  13.663  18.276  0.00  0.00    +0.000 A 
ATOM      7  C   UNL     1      -6.735  14.682  18.686  0.00  0.00    +0.000 A 
ATOM      8 CL   UNL     1      -6.710  16.172  17.828  0.00  0.00    +0.000 Cl
ATOM      9  C   UNL     1      -5.927  14.510  19.804  0.00  0.00    +0.000 A 
ATOM     10  C   UNL     1      -5.934  13.284  20.494  0.00  0.00    +0.000 A 
BRANCH   4  11
ATOM     11  O   UNL     1      -6.561  10.978  20.608  0.00  0.00    +0.000 OA
BRANCH  11  13
ATOM     12  C   UNL     1      -7.771   8.896  20.740  0.00  0.00    +0.000 C 
ATOM     13  C   UNL     1      -7.056   9.884  19.833  0.00  0.00    +0.000 C 
ENDBRANCH  11  13
ENDBRANCH   4  11
ENDBRANCH   1  10
BRANCH   1  14
ATOM     14  N   UNL     1      -3.695  12.255  21.887  0.00  0.00    +0.000 NA
ATOM     15  C   UNL     1      -2.814  12.671  20.771  0.00  0.00    +0.000 C 
ATOM     16  C   UNL     1      -1.538  11.840  20.759  0.00  0.00    +0.000 C 
ATOM     17  C   UNL     1      -0.747  12.116  22.045  0.00  0.00    +0.000 C 
ATOM     18  C   UNL     1      -1.601  11.599  23.193  0.00  0.00    +0.000 C 
ATOM     19  C   UNL     1      -3.029  12.121  23.225  0.00  0.00    +0.000 C 
BRANCH  17  20
ATOM     20  C   UNL     1      -0.190  13.558  21.981  0.00  0.00    +0.000 C 
ATOM     21  O   UNL     1      -0.580  14.381  22.819  0.00  0.00    +0.000 OA
ATOM     22  N   UNL     1       0.534  13.993  20.891  0.00  0.00    +0.000 N 
ATOM     23  C   UNL     1       0.607  15.429  20.668  0.00  0.00    +0.000 C 
ATOM     24  C   UNL     1       1.423  15.543  19.399  0.00  0.00    +0.000 C 
ATOM     25  C   UNL     1       2.472  14.455  19.583  0.00  0.00    +0.000 C 
ATOM     26  C   UNL     1       1.794  13.403  20.467  0.00  0.00    +0.000 C 
ENDBRANCH  17  20
ENDBRANCH   1  14
TORSDOF 5
ENDMDL
