MODEL 1
REMARK VINA RESULT:      -8.6      0.000      0.000
REMARK  Name = 
REMARK  5 active torsions:
REMARK  status: ('A' for Active; 'I' for Inactive)
REMARK    1  A    between atoms: C_2  and  C_4
REMARK    2  A    between atoms: N_8  and  C_9
REMARK    3  A    between atoms: C_16  and  O_17
REMARK    4  A    between atoms: O_17  and  C_18
REMARK    5  A    between atoms: C_18  and  C_19
REMARK                            x       y       z     vdW  Elec       q    Type
REMARK                         _______ _______ _______ _____ _____    ______ ____
ROOT
ATOM      1  C   UNL     1       4.518   4.451  18.299  0.00  0.00    +0.000 A 
ATOM      2  C   UNL     1       4.148   3.626  19.293  0.00  0.00    +0.000 A 
ATOM      3  C   UNL     1       3.112   3.962  20.285  0.00  0.00    +0.000 A 
ATOM      4  O   UNL     1       2.838   3.180  21.187  0.00  0.00    +0.000 OA
ATOM      5  O   UNL     1       2.478   5.186  20.150  0.00  0.00    +0.000 OA
ATOM      6  C   UNL     1       2.863   6.090  19.141  0.00  0.00    +0.000 A 
ATOM      7  C   UNL     1       2.200   7.318  19.095  0.00  0.00    +0.000 A 
ATOM      8  C   UNL     1       2.548   8.244  18.113  0.00  0.00    +0.000 A 
ATOM      9  C   UNL     1       3.601   7.959  17.241  0.00  0.00    +0.000 A 
ATOM     10  C   UNL     1       4.245   6.727  17.292  0.00  0.00    +0.000 A 
ATOM     11  C   UNL     1       3.868   5.764  18.233  0.00  0.00    +0.000 A 
ENDROOT
BRANCH   1  16
ATOM     12  C   UNL     1       6.916   4.655  17.464  0.00  0.00    +0.000 C 
ATOM     13  C   UNL     1       7.144   5.408  16.156  0.00  0.00    +0.000 C 
ATOM     14  C   UNL     1       6.412   4.534  15.156  0.00  0.00    +0.000 C 
ATOM     15  C   UNL     1       5.159   4.102  15.910  0.00  0.00    +0.000 C 
ATOM     16  N   UNL     1       5.503   4.180  17.344  0.00  0.00    +0.000 N 
BRANCH  12  18
ATOM     17  N   UNL     1       7.679   6.779  18.434  0.00  0.00    +0.000 N 
ATOM     18  C   UNL     1       7.233   5.508  18.700  0.00  0.00    +0.000 C 
ATOM     19  O   UNL     1       7.092   5.137  19.860  0.00  0.00    +0.000 OA
ATOM     20  H   UNL     1       7.968   7.332  19.231  0.00  0.00    +0.000 HD
ATOM     21  H   UNL     1       8.053   7.025  17.528  0.00  0.00    +0.000 HD
ENDBRANCH  12  18
ENDBRANCH   1  16
BRANCH   8  22
ATOM     22  O   UNL     1       1.813   9.399  18.066  0.00  0.00    +0.000 OA
BRANCH  22  23
ATOM     23  C   UNL     1       1.016   9.631  19.231  0.00  0.00    +0.000 C 
BRANCH  23  24
ATOM     24  C   UNL     1      -0.286  10.266  18.831  0.00  0.00    +0.000 A 
ATOM     25  C   UNL     1      -0.956   9.862  17.671  0.00  0.00    +0.000 A 
ATOM     26  C   UNL     1      -2.164  10.463  17.317  0.00  0.00    +0.000 A 
ATOM     27  C   UNL     1      -2.704  11.470  18.116  0.00  0.00    +0.000 A 
ATOM     28  C   UNL     1      -2.042  11.878  19.272  0.00  0.00    +0.000 A 
ATOM     29  C   UNL     1      -0.837  11.280  19.629  0.00  0.00    +0.000 A 
ENDBRANCH  23  24
ENDBRANCH  22  23
ENDBRANCH   8  22
TORSDOF 5
ENDMDL
MODEL 2
REMARK VINA RESULT:      -8.5      3.438      7.729
REMARK  Name = 
REMARK  5 active torsions:
REMARK  status: ('A' for Active; 'I' for Inactive)
REMARK    1  A    between atoms: C_2  and  C_4
REMARK    2  A    between atoms: N_8  and  C_9
REMARK    3  A    between atoms: C_16  and  O_17
REMARK    4  A    between atoms: O_17  and  C_18
REMARK    5  A    between atoms: C_18  and  C_19
REMARK                            x       y       z     vdW  Elec       q    Type
REMARK                         _______ _______ _______ _____ _____    ______ ____
ROOT
ATOM      1  C   UNL     1       3.273   5.346  18.936  0.00  0.00    +0.000 A 
ATOM      2  C   UNL     1       2.597   6.506  18.867  0.00  0.00    +0.000 A 
ATOM      3  C   UNL     1       2.909   7.572  17.900  0.00  0.00    +0.000 A 
ATOM      4  O   UNL     1       2.276   8.621  17.904  0.00  0.00    +0.000 OA
ATOM      5  O   UNL     1       3.938   7.334  17.004  0.00  0.00    +0.000 OA
ATOM      6  C   UNL     1       4.689   6.145  17.067  0.00  0.00    +0.000 A 
ATOM      7  C   UNL     1       5.734   5.998  16.152  0.00  0.00    +0.000 A 
ATOM      8  C   UNL     1       6.504   4.836  16.179  0.00  0.00    +0.000 A 
ATOM      9  C   UNL     1       6.267   3.876  17.165  0.00  0.00    +0.000 A 
ATOM     10  C   UNL     1       5.217   4.032  18.064  0.00  0.00    +0.000 A 
ATOM     11  C   UNL     1       4.397   5.163  18.013  0.00  0.00    +0.000 A 
ENDROOT
BRANCH   1  16
ATOM     12  C   UNL     1       2.324   3.043  19.470  0.00  0.00    +0.000 C 
ATOM     13  C   UNL     1       1.167   2.972  20.463  0.00  0.00    +0.000 C 
ATOM     14  C   UNL     1       1.814   3.479  21.738  0.00  0.00    +0.000 C 
ATOM     15  C   UNL     1       2.712   4.613  21.257  0.00  0.00    +0.000 C 
ATOM     16  N   UNL     1       3.020   4.314  19.844  0.00  0.00    +0.000 N 
BRANCH  12  18
ATOM     17  N   UNL     1       2.430   1.926  17.285  0.00  0.00    +0.000 N 
ATOM     18  C   UNL     1       1.857   2.940  18.011  0.00  0.00    +0.000 C 
ATOM     19  O   UNL     1       1.019   3.669  17.492  0.00  0.00    +0.000 OA
ATOM     20  H   UNL     1       2.197   1.888  16.301  0.00  0.00    +0.000 HD
ATOM     21  H   UNL     1       3.291   1.489  17.583  0.00  0.00    +0.000 HD
ENDBRANCH  12  18
ENDBRANCH   1  16
BRANCH   8  22
ATOM     22  O   UNL     1       7.463   4.710  15.210  0.00  0.00    +0.000 OA
BRANCH  22  23
ATOM     23  C   UNL     1       7.107   5.298  13.955  0.00  0.00    +0.000 C 
BRANCH  23  24
ATOM     24  C   UNL     1       6.537   4.243  13.049  0.00  0.00    +0.000 A 
ATOM     25  C   UNL     1       5.154   4.070  12.929  0.00  0.00    +0.000 A 
ATOM     26  C   UNL     1       4.644   3.086  12.083  0.00  0.00    +0.000 A 
ATOM     27  C   UNL     1       5.512   2.270  11.358  0.00  0.00    +0.000 A 
ATOM     28  C   UNL     1       6.890   2.437  11.471  0.00  0.00    +0.000 A 
ATOM     29  C   UNL     1       7.402   3.418  12.315  0.00  0.00    +0.000 A 
ENDBRANCH  23  24
ENDBRANCH  22  23
ENDBRANCH   8  22
TORSDOF 5
ENDMDL
MODEL 3
REMARK VINA RESULT:      -8.5      1.719      2.623
REMARK  Name = 
REMARK  5 active torsions:
REMARK  status: ('A' for Active; 'I' for Inactive)
REMARK    1  A    between atoms: C_2  and  C_4
REMARK    2  A    between atoms: N_8  and  C_9
REMARK    3  A    between atoms: C_16  and  O_17
REMARK    4  A    between atoms: O_17  and  C_18
REMARK    5  A    between atoms: C_18  and  C_19
REMARK                            x       y       z     vdW  Elec       q    Type
REMARK                         _______ _______ _______ _____ _____    ______ ____
ROOT
ATOM      1  C   UNL     1       3.494   5.906  18.621  0.00  0.00    +0.000 A 
ATOM      2  C   UNL     1       3.349   5.031  19.630  0.00  0.00    +0.000 A 
ATOM      3  C   UNL     1       2.447   5.252  20.775  0.00  0.00    +0.000 A 
ATOM      4  O   UNL     1       2.378   4.429  21.681  0.00  0.00    +0.000 OA
ATOM      5  O   UNL     1       1.697   6.416  20.775  0.00  0.00    +0.000 OA
ATOM      6  C   UNL     1       1.848   7.372  19.752  0.00  0.00    +0.000 A 
ATOM      7  C   UNL     1       1.083   8.536  19.845  0.00  0.00    +0.000 A 
ATOM      8  C   UNL     1       1.200   9.509  18.854  0.00  0.00    +0.000 A 
ATOM      9  C   UNL     1       2.132   9.339  17.828  0.00  0.00    +0.000 A 
ATOM     10  C   UNL     1       2.880   8.168  17.743  0.00  0.00    +0.000 A 
ATOM     11  C   UNL     1       2.732   7.156  18.696  0.00  0.00    +0.000 A 
ENDROOT
BRANCH   1  16
ATOM     12  C   UNL     1       4.358   4.516  16.669  0.00  0.00    +0.000 C 
ATOM     13  C   UNL     1       5.819   4.075  16.712  0.00  0.00    +0.000 C 
ATOM     14  C   UNL     1       6.552   5.402  16.655  0.00  0.00    +0.000 C 
ATOM     15  C   UNL     1       5.708   6.314  17.539  0.00  0.00    +0.000 C 
ATOM     16  N   UNL     1       4.346   5.744  17.525  0.00  0.00    +0.000 N 
BRANCH  12  18
ATOM     17  N   UNL     1       3.969   2.343  17.746  0.00  0.00    +0.000 N 
ATOM     18  C   UNL     1       3.391   3.400  17.086  0.00  0.00    +0.000 C 
ATOM     19  O   UNL     1       2.181   3.414  16.890  0.00  0.00    +0.000 OA
ATOM     20  H   UNL     1       3.365   1.560  17.961  0.00  0.00    +0.000 HD
ATOM     21  H   UNL     1       4.963   2.171  17.692  0.00  0.00    +0.000 HD
ENDBRANCH  12  18
ENDBRANCH   1  16
BRANCH   8  22
ATOM     22  O   UNL     1       0.370  10.594  18.954  0.00  0.00    +0.000 OA
BRANCH  22  23
ATOM     23  C   UNL     1      -0.956  10.277  19.390  0.00  0.00    +0.000 C 
BRANCH  23  24
ATOM     24  C   UNL     1      -1.923  10.495  18.260  0.00  0.00    +0.000 A 
ATOM     25  C   UNL     1      -1.750   9.850  17.031  0.00  0.00    +0.000 A 
ATOM     26  C   UNL     1      -2.658  10.065  15.995  0.00  0.00    +0.000 A 
ATOM     27  C   UNL     1      -3.738  10.927  16.181  0.00  0.00    +0.000 A 
ATOM     28  C   UNL     1      -3.917  11.574  17.402  0.00  0.00    +0.000 A 
ATOM     29  C   UNL     1      -3.012  11.361  18.438  0.00  0.00    +0.000 A 
ENDBRANCH  23  24
ENDBRANCH  22  23
ENDBRANCH   8  22
TORSDOF 5
ENDMDL
MODEL 4
REMARK VINA RESULT:      -8.5      2.148      3.997
REMARK  Name = 
REMARK  5 active torsions:
REMARK  status: ('A' for Active; 'I' for Inactive)
REMARK    1  A    between atoms: C_2  and  C_4
REMARK    2  A    between atoms: N_8  and  C_9
REMARK    3  A    between atoms: C_16  and  O_17
REMARK    4  A    between atoms: O_17  and  C_18
REMARK    5  A    between atoms: C_18  and  C_19
REMARK                            x       y       z     vdW  Elec       q    Type
REMARK                         _______ _______ _______ _____ _____    ______ ____
ROOT
ATOM      1  C   UNL     1       4.213   4.282  19.441  0.00  0.00    +0.000 A 
ATOM      2  C   UNL     1       5.503   4.011  19.180  0.00  0.00    +0.000 A 
ATOM      3  C   UNL     1       6.360   4.867  18.341  0.00  0.00    +0.000 A 
ATOM      4  O   UNL     1       7.523   4.553  18.114  0.00  0.00    +0.000 OA
ATOM      5  O   UNL     1       5.794   6.023  17.828  0.00  0.00    +0.000 OA
ATOM      6  C   UNL     1       4.437   6.322  18.053  0.00  0.00    +0.000 A 
ATOM      7  C   UNL     1       3.933   7.487  17.472  0.00  0.00    +0.000 A 
ATOM      8  C   UNL     1       2.594   7.823  17.668  0.00  0.00    +0.000 A 
ATOM      9  C   UNL     1       1.763   6.953  18.378  0.00  0.00    +0.000 A 
ATOM     10  C   UNL     1       2.283   5.801  18.961  0.00  0.00    +0.000 A 
ATOM     11  C   UNL     1       3.636   5.480  18.824  0.00  0.00    +0.000 A 
ENDROOT
BRANCH   1  16
ATOM     12  C   UNL     1       2.689   2.259  19.707  0.00  0.00    +0.000 C 
ATOM     13  C   UNL     1       1.212   2.523  19.987  0.00  0.00    +0.000 C 
ATOM     14  C   UNL     1       1.264   3.205  21.340  0.00  0.00    +0.000 C 
ATOM     15  C   UNL     1       2.487   4.109  21.238  0.00  0.00    +0.000 C 
ATOM     16  N   UNL     1       3.361   3.493  20.219  0.00  0.00    +0.000 N 
BRANCH  12  18
ATOM     17  N   UNL     1       3.949   0.983  18.028  0.00  0.00    +0.000 N 
ATOM     18  C   UNL     1       2.958   1.911  18.236  0.00  0.00    +0.000 C 
ATOM     19  O   UNL     1       2.347   2.380  17.284  0.00  0.00    +0.000 OA
ATOM     20  H   UNL     1       4.197   0.796  17.065  0.00  0.00    +0.000 HD
ATOM     21  H   UNL     1       4.636   0.779  18.741  0.00  0.00    +0.000 HD
ENDBRANCH  12  18
ENDBRANCH   1  16
BRANCH   8  22
ATOM     22  O   UNL     1       2.173   9.014  17.141  0.00  0.00    +0.000 OA
BRANCH  22  23
ATOM     23  C   UNL     1       2.314  10.128  18.028  0.00  0.00    +0.000 C 
BRANCH  23  24
ATOM     24  C   UNL     1       0.979  10.464  18.629  0.00  0.00    +0.000 A 
ATOM     25  C   UNL     1      -0.210  10.084  17.997  0.00  0.00    +0.000 A 
ATOM     26  C   UNL     1      -1.440  10.405  18.571  0.00  0.00    +0.000 A 
ATOM     27  C   UNL     1      -1.487  11.109  19.774  0.00  0.00    +0.000 A 
ATOM     28  C   UNL     1      -0.308  11.490  20.410  0.00  0.00    +0.000 A 
ATOM     29  C   UNL     1       0.921  11.171  19.840  0.00  0.00    +0.000 A 
ENDBRANCH  23  24
ENDBRANCH  22  23
ENDBRANCH   8  22
TORSDOF 5
ENDMDL
MODEL 5
REMARK VINA RESULT:      -8.4      2.019      4.012
REMARK  Name = 
REMARK  5 active torsions:
REMARK  status: ('A' for Active; 'I' for Inactive)
REMARK    1  A    between atoms: C_2  and  C_4
REMARK    2  A    between atoms: N_8  and  C_9
REMARK    3  A    between atoms: C_16  and  O_17
REMARK    4  A    between atoms: O_17  and  C_18
REMARK    5  A    between atoms: C_18  and  C_19
REMARK                            x       y       z     vdW  Elec       q    Type
REMARK                         _______ _______ _______ _____ _____    ______ ____
ROOT
ATOM      1  C   UNL     1       4.206   4.401  19.220  0.00  0.00    +0.000 A 
ATOM      2  C   UNL     1       5.423   4.091  18.740  0.00  0.00    +0.000 A 
ATOM      3  C   UNL     1       6.171   4.950  17.806  0.00  0.00    +0.000 A 
ATOM      4  O   UNL     1       7.265   4.600  17.379  0.00  0.00    +0.000 OA
ATOM      5  O   UNL     1       5.584   6.149  17.438  0.00  0.00    +0.000 OA
ATOM      6  C   UNL     1       4.297   6.492  17.895  0.00  0.00    +0.000 A 
ATOM      7  C   UNL     1       3.760   7.702  17.449  0.00  0.00    +0.000 A 
ATOM      8  C   UNL     1       2.488   8.081  17.876  0.00  0.00    +0.000 A 
ATOM      9  C   UNL     1       1.744   7.213  18.679  0.00  0.00    +0.000 A 
ATOM     10  C   UNL     1       2.297   6.016  19.123  0.00  0.00    +0.000 A 
ATOM     11  C   UNL     1       3.594   5.648  18.753  0.00  0.00    +0.000 A 
ENDROOT
BRANCH   1  16
ATOM     12  C   UNL     1       2.795   2.333  19.690  0.00  0.00    +0.000 C 
ATOM     13  C   UNL     1       1.337   2.552  20.086  0.00  0.00    +0.000 C 
ATOM     14  C   UNL     1       1.474   3.290  21.404  0.00  0.00    +0.000 C 
ATOM     15  C   UNL     1       2.646   4.235  21.164  0.00  0.00    +0.000 C 
ATOM     16  N   UNL     1       3.456   3.612  20.097  0.00  0.00    +0.000 N 
BRANCH  12  18
ATOM     17  N   UNL     1       3.901   0.974  17.969  0.00  0.00    +0.000 N 
ATOM     18  C   UNL     1       2.954   1.937  18.216  0.00  0.00    +0.000 C 
ATOM     19  O   UNL     1       2.292   2.399  17.293  0.00  0.00    +0.000 OA
ATOM     20  H   UNL     1       4.079   0.754  16.997  0.00  0.00    +0.000 HD
ATOM     21  H   UNL     1       4.629   0.770  18.640  0.00  0.00    +0.000 HD
ENDBRANCH  12  18
ENDBRANCH   1  16
BRANCH   8  22
ATOM     22  O   UNL     1       2.043   9.311  17.471  0.00  0.00    +0.000 OA
BRANCH  22  23
ATOM     23  C   UNL     1       1.609  10.156  18.541  0.00  0.00    +0.000 C 
BRANCH  23  24
ATOM     24  C   UNL     1       0.190  10.586  18.298  0.00  0.00    +0.000 A 
ATOM     25  C   UNL     1      -0.259  11.846  18.708  0.00  0.00    +0.000 A 
ATOM     26  C   UNL     1      -1.580  12.228  18.474  0.00  0.00    +0.000 A 
ATOM     27  C   UNL     1      -2.456  11.353  17.833  0.00  0.00    +0.000 A 
ATOM     28  C   UNL     1      -2.016  10.097  17.421  0.00  0.00    +0.000 A 
ATOM     29  C   UNL     1      -0.699   9.713  17.654  0.00  0.00    +0.000 A 
ENDBRANCH  23  24
ENDBRANCH  22  23
ENDBRANCH   8  22
TORSDOF 5
ENDMDL
MODEL 6
REMARK VINA RESULT:      -8.4      2.395      4.325
REMARK  Name = 
REMARK  5 active torsions:
REMARK  status: ('A' for Active; 'I' for Inactive)
REMARK    1  A    between atoms: C_2  and  C_4
REMARK    2  A    between atoms: N_8  and  C_9
REMARK    3  A    between atoms: C_16  and  O_17
REMARK    4  A    between atoms: O_17  and  C_18
REMARK    5  A    between atoms: C_18  and  C_19
REMARK                            x       y       z     vdW  Elec       q    Type
REMARK                         _______ _______ _______ _____ _____    ______ ____
ROOT
ATOM      1  C   UNL     1       4.247   4.318  19.311  0.00  0.00    +0.000 A 
ATOM      2  C   UNL     1       5.495   3.996  18.930  0.00  0.00    +0.000 A 
ATOM      3  C   UNL     1       6.318   4.839  18.044  0.00  0.00    +0.000 A 
ATOM      4  O   UNL     1       7.439   4.479  17.707  0.00  0.00    +0.000 OA
ATOM      5  O   UNL     1       5.767   6.036  17.617  0.00  0.00    +0.000 OA
ATOM      6  C   UNL     1       4.450   6.390  17.968  0.00  0.00    +0.000 A 
ATOM      7  C   UNL     1       3.955   7.595  17.466  0.00  0.00    +0.000 A 
ATOM      8  C   UNL     1       2.656   7.985  17.789  0.00  0.00    +0.000 A 
ATOM      9  C   UNL     1       1.848   7.132  18.544  0.00  0.00    +0.000 A 
ATOM     10  C   UNL     1       2.359   5.939  19.046  0.00  0.00    +0.000 A 
ATOM     11  C   UNL     1       3.679   5.561  18.781  0.00  0.00    +0.000 A 
ENDROOT
BRANCH   1  16
ATOM     12  C   UNL     1       2.738   2.299  19.678  0.00  0.00    +0.000 C 
ATOM     13  C   UNL     1       1.273   2.567  20.011  0.00  0.00    +0.000 C 
ATOM     14  C   UNL     1       1.378   3.277  21.347  0.00  0.00    +0.000 C 
ATOM     15  C   UNL     1       2.594   4.180  21.179  0.00  0.00    +0.000 C 
ATOM     16  N   UNL     1       3.428   3.544  20.138  0.00  0.00    +0.000 N 
BRANCH  12  18
ATOM     17  N   UNL     1       3.913   0.969  17.979  0.00  0.00    +0.000 N 
ATOM     18  C   UNL     1       2.950   1.921  18.206  0.00  0.00    +0.000 C 
ATOM     19  O   UNL     1       2.316   2.388  17.266  0.00  0.00    +0.000 OA
ATOM     20  H   UNL     1       4.125   0.762  17.012  0.00  0.00    +0.000 HD
ATOM     21  H   UNL     1       4.620   0.763  18.672  0.00  0.00    +0.000 HD
ENDBRANCH  12  18
ENDBRANCH   1  16
BRANCH   8  22
ATOM     22  O   UNL     1       2.250   9.212  17.335  0.00  0.00    +0.000 OA
BRANCH  22  23
ATOM     23  C   UNL     1       1.000   9.650  17.876  0.00  0.00    +0.000 C 
BRANCH  23  24
ATOM     24  C   UNL     1       1.229  10.826  18.783  0.00  0.00    +0.000 A 
ATOM     25  C   UNL     1       0.637  10.884  20.049  0.00  0.00    +0.000 A 
ATOM     26  C   UNL     1       0.861  11.983  20.876  0.00  0.00    +0.000 A 
ATOM     27  C   UNL     1       1.673  13.030  20.442  0.00  0.00    +0.000 A 
ATOM     28  C   UNL     1       2.267  12.980  19.182  0.00  0.00    +0.000 A 
ATOM     29  C   UNL     1       2.045  11.884  18.354  0.00  0.00    +0.000 A 
ENDBRANCH  23  24
ENDBRANCH  22  23
ENDBRANCH   8  22
TORSDOF 5
ENDMDL
MODEL 7
REMARK VINA RESULT:      -8.4      4.151      7.975
REMARK  Name = 
REMARK  5 active torsions:
REMARK  status: ('A' for Active; 'I' for Inactive)
REMARK    1  A    between atoms: C_2  and  C_4
REMARK    2  A    between atoms: N_8  and  C_9
REMARK    3  A    between atoms: C_16  and  O_17
REMARK    4  A    between atoms: O_17  and  C_18
REMARK    5  A    between atoms: C_18  and  C_19
REMARK                            x       y       z     vdW  Elec       q    Type
REMARK                         _______ _______ _______ _____ _____    ______ ____
ROOT
ATOM      1  C   UNL     1       4.980   4.849  18.675  0.00  0.00    +0.000 A 
ATOM      2  C   UNL     1       5.786   5.104  19.720  0.00  0.00    +0.000 A 
ATOM      3  C   UNL     1       7.234   5.348  19.590  0.00  0.00    +0.000 A 
ATOM      4  O   UNL     1       7.923   5.547  20.583  0.00  0.00    +0.000 OA
ATOM      5  O   UNL     1       7.766   5.338  18.311  0.00  0.00    +0.000 OA
ATOM      6  C   UNL     1       6.958   5.041  17.196  0.00  0.00    +0.000 A 
ATOM      7  C   UNL     1       7.578   5.015  15.945  0.00  0.00    +0.000 A 
ATOM      8  C   UNL     1       6.817   4.725  14.814  0.00  0.00    +0.000 A 
ATOM      9  C   UNL     1       5.468   4.394  14.958  0.00  0.00    +0.000 A 
ATOM     10  C   UNL     1       4.862   4.435  16.209  0.00  0.00    +0.000 A 
ATOM     11  C   UNL     1       5.597   4.782  17.347  0.00  0.00    +0.000 A 
ENDROOT
BRANCH   1  16
ATOM     12  C   UNL     1       3.033   3.254  19.064  0.00  0.00    +0.000 C 
ATOM     13  C   UNL     1       2.090   2.996  17.892  0.00  0.00    +0.000 C 
ATOM     14  C   UNL     1       1.485   4.369  17.666  0.00  0.00    +0.000 C 
ATOM     15  C   UNL     1       2.661   5.317  17.874  0.00  0.00    +0.000 C 
ATOM     16  N   UNL     1       3.607   4.600  18.753  0.00  0.00    +0.000 N 
BRANCH  12  18
ATOM     17  N   UNL     1       4.165   1.248  18.211  0.00  0.00    +0.000 N 
ATOM     18  C   UNL     1       4.050   2.122  19.263  0.00  0.00    +0.000 C 
ATOM     19  O   UNL     1       4.750   1.979  20.259  0.00  0.00    +0.000 OA
ATOM     20  H   UNL     1       4.771   0.450  18.350  0.00  0.00    +0.000 HD
ATOM     21  H   UNL     1       3.441   1.174  17.509  0.00  0.00    +0.000 HD
ENDBRANCH  12  18
ENDBRANCH   1  16
BRANCH   8  22
ATOM     22  O   UNL     1       7.459   4.789  13.606  0.00  0.00    +0.000 OA
BRANCH  22  23
ATOM     23  C   UNL     1       6.579   4.864  12.480  0.00  0.00    +0.000 C 
BRANCH  23  24
ATOM     24  C   UNL     1       6.372   3.489  11.911  0.00  0.00    +0.000 A 
ATOM     25  C   UNL     1       5.084   2.986  11.698  0.00  0.00    +0.000 A 
ATOM     26  C   UNL     1       4.912   1.707  11.169  0.00  0.00    +0.000 A 
ATOM     27  C   UNL     1       6.024   0.927  10.853  0.00  0.00    +0.000 A 
ATOM     28  C   UNL     1       7.309   1.421  11.062  0.00  0.00    +0.000 A 
ATOM     29  C   UNL     1       7.484   2.697  11.591  0.00  0.00    +0.000 A 
ENDBRANCH  23  24
ENDBRANCH  22  23
ENDBRANCH   8  22
TORSDOF 5
ENDMDL
MODEL 8
REMARK VINA RESULT:      -8.4      0.651      1.165
REMARK  Name = 
REMARK  5 active torsions:
REMARK  status: ('A' for Active; 'I' for Inactive)
REMARK    1  A    between atoms: C_2  and  C_4
REMARK    2  A    between atoms: N_8  and  C_9
REMARK    3  A    between atoms: C_16  and  O_17
REMARK    4  A    between atoms: O_17  and  C_18
REMARK    5  A    between atoms: C_18  and  C_19
REMARK                            x       y       z     vdW  Elec       q    Type
REMARK                         _______ _______ _______ _____ _____    ______ ____
ROOT
ATOM      1  C   UNL     1       4.735   4.223  18.339  0.00  0.00    +0.000 A 
ATOM      2  C   UNL     1       4.476   3.313  19.294  0.00  0.00    +0.000 A 
ATOM      3  C   UNL     1       3.444   3.494  20.330  0.00  0.00    +0.000 A 
ATOM      4  O   UNL     1       3.273   2.642  21.194  0.00  0.00    +0.000 OA
ATOM      5  O   UNL     1       2.693   4.657  20.281  0.00  0.00    +0.000 OA
ATOM      6  C   UNL     1       2.958   5.647  19.315  0.00  0.00    +0.000 A 
ATOM      7  C   UNL     1       2.181   6.806  19.356  0.00  0.00    +0.000 A 
ATOM      8  C   UNL     1       2.409   7.813  18.419  0.00  0.00    +0.000 A 
ATOM      9  C   UNL     1       3.457   7.678  17.505  0.00  0.00    +0.000 A 
ATOM     10  C   UNL     1       4.216   6.512  17.470  0.00  0.00    +0.000 A 
ATOM     11  C   UNL     1       3.962   5.468  18.364  0.00  0.00    +0.000 A 
ENDROOT
BRANCH   1  16
ATOM     12  C   UNL     1       7.078   4.695  17.459  0.00  0.00    +0.000 C 
ATOM     13  C   UNL     1       7.197   5.540  16.194  0.00  0.00    +0.000 C 
ATOM     14  C   UNL     1       6.517   4.662  15.161  0.00  0.00    +0.000 C 
ATOM     15  C   UNL     1       5.332   4.073  15.918  0.00  0.00    +0.000 C 
ATOM     16  N   UNL     1       5.710   4.099  17.346  0.00  0.00    +0.000 N 
BRANCH  12  18
ATOM     17  N   UNL     1       7.798   6.783  18.533  0.00  0.00    +0.000 N 
ATOM     18  C   UNL     1       7.353   5.500  18.736  0.00  0.00    +0.000 C 
ATOM     19  O   UNL     1       7.182   5.083  19.876  0.00  0.00    +0.000 OA
ATOM     20  H   UNL     1       8.061   7.306  19.359  0.00  0.00    +0.000 HD
ATOM     21  H   UNL     1       8.196   7.067  17.648  0.00  0.00    +0.000 HD
ENDBRANCH  12  18
ENDBRANCH   1  16
BRANCH   8  22
ATOM     22  O   UNL     1       1.568   8.892  18.456  0.00  0.00    +0.000 OA
BRANCH  22  23
ATOM     23  C   UNL     1       1.217   9.314  19.778  0.00  0.00    +0.000 C 
BRANCH  23  24
ATOM     24  C   UNL     1       0.081  10.295  19.708  0.00  0.00    +0.000 A 
ATOM     25  C   UNL     1      -0.410  10.909  20.865  0.00  0.00    +0.000 A 
ATOM     26  C   UNL     1      -1.465  11.817  20.781  0.00  0.00    +0.000 A 
ATOM     27  C   UNL     1      -2.034  12.112  19.543  0.00  0.00    +0.000 A 
ATOM     28  C   UNL     1      -1.550  11.506  18.386  0.00  0.00    +0.000 A 
ATOM     29  C   UNL     1      -0.498  10.599  18.467  0.00  0.00    +0.000 A 
ENDBRANCH  23  24
ENDBRANCH  22  23
ENDBRANCH   8  22
TORSDOF 5
ENDMDL
MODEL 9
REMARK VINA RESULT:      -8.3      3.579      8.016
REMARK  Name = 
REMARK  5 active torsions:
REMARK  status: ('A' for Active; 'I' for Inactive)
REMARK    1  A    between atoms: C_2  and  C_4
REMARK    2  A    between atoms: N_8  and  C_9
REMARK    3  A    between atoms: C_16  and  O_17
REMARK    4  A    between atoms: O_17  and  C_18
REMARK    5  A    between atoms: C_18  and  C_19
REMARK                            x       y       z     vdW  Elec       q    Type
REMARK                         _______ _______ _______ _____ _____    ______ ____
ROOT
ATOM      1  C   UNL     1       4.834   4.484  18.314  0.00  0.00    +0.000 A 
ATOM      2  C   UNL     1       5.531   4.776  19.426  0.00  0.00    +0.000 A 
ATOM      3  C   UNL     1       6.936   5.219  19.412  0.00  0.00    +0.000 A 
ATOM      4  O   UNL     1       7.528   5.443  20.461  0.00  0.00    +0.000 OA
ATOM      5  O   UNL     1       7.543   5.363  18.176  0.00  0.00    +0.000 OA
ATOM      6  C   UNL     1       6.856   5.035  16.992  0.00  0.00    +0.000 A 
ATOM      7  C   UNL     1       7.550   5.173  15.788  0.00  0.00    +0.000 A 
ATOM      8  C   UNL     1       6.908   4.860  14.591  0.00  0.00    +0.000 A 
ATOM      9  C   UNL     1       5.611   4.343  14.621  0.00  0.00    +0.000 A 
ATOM     10  C   UNL     1       4.928   4.221  15.827  0.00  0.00    +0.000 A 
ATOM     11  C   UNL     1       5.536   4.587  17.031  0.00  0.00    +0.000 A 
ENDROOT
BRANCH   1  16
ATOM     12  C   UNL     1       2.337   4.968  18.453  0.00  0.00    +0.000 C 
ATOM     13  C   UNL     1       1.561   4.334  19.605  0.00  0.00    +0.000 C 
ATOM     14  C   UNL     1       1.698   2.854  19.301  0.00  0.00    +0.000 C 
ATOM     15  C   UNL     1       3.136   2.721  18.811  0.00  0.00    +0.000 C 
ATOM     16  N   UNL     1       3.506   4.050  18.281  0.00  0.00    +0.000 N 
BRANCH  12  18
ATOM     17  N   UNL     1       2.614   6.836  20.025  0.00  0.00    +0.000 N 
ATOM     18  C   UNL     1       2.677   6.442  18.710  0.00  0.00    +0.000 C 
ATOM     19  O   UNL     1       3.008   7.244  17.845  0.00  0.00    +0.000 OA
ATOM     20  H   UNL     1       2.756   7.820  20.209  0.00  0.00    +0.000 HD
ATOM     21  H   UNL     1       2.102   6.297  20.710  0.00  0.00    +0.000 HD
ENDBRANCH  12  18
ENDBRANCH   1  16
BRANCH   8  22
ATOM     22  O   UNL     1       7.609   5.088  13.437  0.00  0.00    +0.000 OA
BRANCH  22  23
ATOM     23  C   UNL     1       6.806   5.071  12.253  0.00  0.00    +0.000 C 
BRANCH  23  24
ATOM     24  C   UNL     1       6.580   3.650  11.819  0.00  0.00    +0.000 A 
ATOM     25  C   UNL     1       7.658   2.806  11.533  0.00  0.00    +0.000 A 
ATOM     26  C   UNL     1       7.428   1.491  11.131  0.00  0.00    +0.000 A 
ATOM     27  C   UNL     1       6.123   1.016  11.010  0.00  0.00    +0.000 A 
ATOM     28  C   UNL     1       5.044   1.850  11.293  0.00  0.00    +0.000 A 
ATOM     29  C   UNL     1       5.270   3.164  11.694  0.00  0.00    +0.000 A 
ENDBRANCH  23  24
ENDBRANCH  22  23
ENDBRANCH   8  22
TORSDOF 5
ENDMDL
