MODEL 1
REMARK VINA RESULT:      -7.8      0.000      0.000
REMARK  Name = 
REMARK  3 active torsions:
REMARK  status: ('A' for Active; 'I' for Inactive)
REMARK    1  A    between atoms: C_5  and  C_6
REMARK    2  A    between atoms: C_10  and  C_11
REMARK    3  A    between atoms: C_11  and  C_12
REMARK                            x       y       z     vdW  Elec       q    Type
REMARK                         _______ _______ _______ _____ _____    ______ ____
ROOT
ATOM      1  C   UNL     1       1.206   8.494  20.635  0.00  0.00    +0.000 A 
ATOM      2  C   UNL     1       1.389   7.212  21.139  0.00  0.00    +0.000 A 
ATOM      3  N   UNL     1       2.090   6.569  20.171  0.00  0.00    +0.000 N 
ATOM      4  C   UNL     1       2.597   5.308  19.989  0.00  0.00    +0.000 A 
ATOM      5  C   UNL     1       3.257   5.195  18.819  0.00  0.00    +0.000 A 
ATOM      6  S   UNL     1       3.224   6.720  17.882  0.00  0.00    +0.000 S 
ATOM      7  C   UNL     1       2.309   7.456  19.163  0.00  0.00    +0.000 A 
ATOM      8  N   UNL     1       1.776   8.629  19.375  0.00  0.00    +0.000 NA
ENDROOT
BRANCH   1  13
ATOM      9  F   UNL     1      -1.497  12.569  23.333  0.00  0.00    +0.000 F 
ATOM     10  C   UNL     1      -0.864  11.591  22.674  0.00  0.00    +0.000 A 
ATOM     11  C   UNL     1      -0.180  11.887  21.503  0.00  0.00    +0.000 A 
ATOM     12  C   UNL     1       0.494  10.870  20.824  0.00  0.00    +0.000 A 
ATOM     13  C   UNL     1       0.480   9.553  21.316  0.00  0.00    +0.000 A 
ATOM     14  C   UNL     1      -0.232   9.273  22.490  0.00  0.00    +0.000 A 
ATOM     15  C   UNL     1      -0.899  10.294  23.173  0.00  0.00    +0.000 A 
ENDBRANCH   1  13
BRANCH   5  16
ATOM     16  C   UNL     1       3.930   3.963  18.290  0.00  0.00    +0.000 C 
BRANCH  16  17
ATOM     17  C   UNL     1       5.065   4.290  17.344  0.00  0.00    +0.000 A 
ATOM     18  C   UNL     1       4.919   3.982  15.979  0.00  0.00    +0.000 A 
ATOM     19  C   UNL     1       5.895   4.349  15.052  0.00  0.00    +0.000 A 
ATOM     20  C   UNL     1       7.031   5.037  15.469  0.00  0.00    +0.000 A 
ATOM     21  C   UNL     1       7.205   5.332  16.820  0.00  0.00    +0.000 A 
ATOM     22  C   UNL     1       6.235   4.954  17.754  0.00  0.00    +0.000 A 
ATOM     23 CL   UNL     1       6.549   5.334  19.411  0.00  0.00    +0.000 Cl
ENDBRANCH  16  17
ENDBRANCH   5  16
TORSDOF 3
ENDMDL
MODEL 2
REMARK VINA RESULT:      -7.7      0.153      1.013
REMARK  Name = 
REMARK  3 active torsions:
REMARK  status: ('A' for Active; 'I' for Inactive)
REMARK    1  A    between atoms: C_5  and  C_6
REMARK    2  A    between atoms: C_10  and  C_11
REMARK    3  A    between atoms: C_11  and  C_12
REMARK                            x       y       z     vdW  Elec       q    Type
REMARK                         _______ _______ _______ _____ _____    ______ ____
ROOT
ATOM      1  C   UNL     1       1.147   8.497  20.643  0.00  0.00    +0.000 A 
ATOM      2  C   UNL     1       1.317   7.212  21.143  0.00  0.00    +0.000 A 
ATOM      3  N   UNL     1       2.047   6.576  20.192  0.00  0.00    +0.000 N 
ATOM      4  C   UNL     1       2.560   5.316  20.015  0.00  0.00    +0.000 A 
ATOM      5  C   UNL     1       3.253   5.213  18.864  0.00  0.00    +0.000 A 
ATOM      6  S   UNL     1       3.245   6.744  17.937  0.00  0.00    +0.000 S 
ATOM      7  C   UNL     1       2.293   7.469  19.196  0.00  0.00    +0.000 A 
ATOM      8  N   UNL     1       1.752   8.641  19.401  0.00  0.00    +0.000 NA
ENDROOT
BRANCH   1  13
ATOM      9  F   UNL     1      -1.815  12.524  23.134  0.00  0.00    +0.000 F 
ATOM     10  C   UNL     1      -1.090  11.563  22.547  0.00  0.00    +0.000 A 
ATOM     11  C   UNL     1      -0.918  10.346  23.193  0.00  0.00    +0.000 A 
ATOM     12  C   UNL     1      -0.175   9.339  22.575  0.00  0.00    +0.000 A 
ATOM     13  C   UNL     1       0.401   9.550  21.310  0.00  0.00    +0.000 A 
ATOM     14  C   UNL     1       0.231  10.793  20.684  0.00  0.00    +0.000 A 
ATOM     15  C   UNL     1      -0.520  11.798  21.301  0.00  0.00    +0.000 A 
ENDBRANCH   1  13
BRANCH   5  16
ATOM     16  C   UNL     1       3.943   3.985  18.346  0.00  0.00    +0.000 C 
BRANCH  16  17
ATOM     17  C   UNL     1       5.057   4.317  17.377  0.00  0.00    +0.000 A 
ATOM     18  C   UNL     1       4.882   4.017  16.014  0.00  0.00    +0.000 A 
ATOM     19  C   UNL     1       5.838   4.390  15.068  0.00  0.00    +0.000 A 
ATOM     20  C   UNL     1       6.982   5.076  15.465  0.00  0.00    +0.000 A 
ATOM     21  C   UNL     1       7.184   5.364  16.813  0.00  0.00    +0.000 A 
ATOM     22  C   UNL     1       6.235   4.980  17.766  0.00  0.00    +0.000 A 
ATOM     23 CL   UNL     1       6.584   5.352  19.417  0.00  0.00    +0.000 Cl
ENDBRANCH  16  17
ENDBRANCH   5  16
TORSDOF 3
ENDMDL
MODEL 3
REMARK VINA RESULT:      -7.6      1.730      2.209
REMARK  Name = 
REMARK  3 active torsions:
REMARK  status: ('A' for Active; 'I' for Inactive)
REMARK    1  A    between atoms: C_5  and  C_6
REMARK    2  A    between atoms: C_10  and  C_11
REMARK    3  A    between atoms: C_11  and  C_12
REMARK                            x       y       z     vdW  Elec       q    Type
REMARK                         _______ _______ _______ _____ _____    ______ ____
ROOT
ATOM      1  C   UNL     1       0.660  10.009  20.760  0.00  0.00    +0.000 A 
ATOM      2  C   UNL     1       1.033   8.757  21.234  0.00  0.00    +0.000 A 
ATOM      3  N   UNL     1       1.632   8.161  20.172  0.00  0.00    +0.000 N 
ATOM      4  C   UNL     1       2.215   6.946  19.918  0.00  0.00    +0.000 A 
ATOM      5  C   UNL     1       2.694   6.872  18.661  0.00  0.00    +0.000 A 
ATOM      6  S   UNL     1       2.381   8.371  17.734  0.00  0.00    +0.000 S 
ATOM      7  C   UNL     1       1.612   9.045  19.139  0.00  0.00    +0.000 A 
ATOM      8  N   UNL     1       1.015  10.171  19.426  0.00  0.00    +0.000 NA
ENDROOT
BRANCH   1  13
ATOM      9  F   UNL     1      -1.973  13.842  23.852  0.00  0.00    +0.000 F 
ATOM     10  C   UNL     1      -1.355  12.926  23.097  0.00  0.00    +0.000 A 
ATOM     11  C   UNL     1      -0.482  13.339  22.100  0.00  0.00    +0.000 A 
ATOM     12  C   UNL     1       0.175  12.383  21.322  0.00  0.00    +0.000 A 
ATOM     13  C   UNL     1      -0.044  11.012  21.540  0.00  0.00    +0.000 A 
ATOM     14  C   UNL     1      -0.944  10.617  22.540  0.00  0.00    +0.000 A 
ATOM     15  C   UNL     1      -1.595  11.575  23.323  0.00  0.00    +0.000 A 
ENDBRANCH   1  13
BRANCH   5  16
ATOM     16  C   UNL     1       3.386   5.694  18.038  0.00  0.00    +0.000 C 
BRANCH  16  17
ATOM     17  C   UNL     1       4.893   5.811  18.107  0.00  0.00    +0.000 A 
ATOM     18  C   UNL     1       5.547   5.438  19.295  0.00  0.00    +0.000 A 
ATOM     19  C   UNL     1       6.941   5.437  19.377  0.00  0.00    +0.000 A 
ATOM     20  C   UNL     1       7.706   5.799  18.272  0.00  0.00    +0.000 A 
ATOM     21  C   UNL     1       7.076   6.193  17.093  0.00  0.00    +0.000 A 
ATOM     22  C   UNL     1       5.680   6.208  17.011  0.00  0.00    +0.000 A 
ATOM     23 CL   UNL     1       4.986   6.738  15.520  0.00  0.00    +0.000 Cl
ENDBRANCH  16  17
ENDBRANCH   5  16
TORSDOF 3
ENDMDL
MODEL 4
REMARK VINA RESULT:      -7.5      1.509      2.074
REMARK  Name = 
REMARK  3 active torsions:
REMARK  status: ('A' for Active; 'I' for Inactive)
REMARK    1  A    between atoms: C_5  and  C_6
REMARK    2  A    between atoms: C_10  and  C_11
REMARK    3  A    between atoms: C_11  and  C_12
REMARK                            x       y       z     vdW  Elec       q    Type
REMARK                         _______ _______ _______ _____ _____    ______ ____
ROOT
ATOM      1  C   UNL     1       0.859   8.999  20.758  0.00  0.00    +0.000 A 
ATOM      2  C   UNL     1       1.481   9.032  19.517  0.00  0.00    +0.000 A 
ATOM      3  N   UNL     1       1.937   7.767  19.337  0.00  0.00    +0.000 N 
ATOM      4  C   UNL     1       2.636   7.095  18.367  0.00  0.00    +0.000 A 
ATOM      5  C   UNL     1       2.813   5.797  18.682  0.00  0.00    +0.000 A 
ATOM      6  S   UNL     1       2.104   5.392  20.275  0.00  0.00    +0.000 S 
ATOM      7  C   UNL     1       1.576   7.040  20.429  0.00  0.00    +0.000 A 
ATOM      8  N   UNL     1       0.944   7.738  21.334  0.00  0.00    +0.000 NA
ENDROOT
BRANCH   1  13
ATOM      9  F   UNL     1      -1.479  13.386  23.306  0.00  0.00    +0.000 F 
ATOM     10  C   UNL     1      -0.932  12.335  22.682  0.00  0.00    +0.000 A 
ATOM     11  C   UNL     1      -0.100  12.545  21.591  0.00  0.00    +0.000 A 
ATOM     12  C   UNL     1       0.483  11.451  20.949  0.00  0.00    +0.000 A 
ATOM     13  C   UNL     1       0.230  10.143  21.398  0.00  0.00    +0.000 A 
ATOM     14  C   UNL     1      -0.627   9.952  22.490  0.00  0.00    +0.000 A 
ATOM     15  C   UNL     1      -1.204  11.049  23.136  0.00  0.00    +0.000 A 
ENDBRANCH   1  13
BRANCH   5  16
ATOM     16  C   UNL     1       3.536   4.770  17.860  0.00  0.00    +0.000 C 
BRANCH  16  17
ATOM     17  C   UNL     1       5.039   4.938  17.924  0.00  0.00    +0.000 A 
ATOM     18  C   UNL     1       5.620   5.384  19.124  0.00  0.00    +0.000 A 
ATOM     19  C   UNL     1       7.007   5.464  19.264  0.00  0.00    +0.000 A 
ATOM     20  C   UNL     1       7.837   5.093  18.210  0.00  0.00    +0.000 A 
ATOM     21  C   UNL     1       7.280   4.670  17.005  0.00  0.00    +0.000 A 
ATOM     22  C   UNL     1       5.891   4.601  16.857  0.00  0.00    +0.000 A 
ATOM     23 CL   UNL     1       5.289   4.095  15.318  0.00  0.00    +0.000 Cl
ENDBRANCH  16  17
ENDBRANCH   5  16
TORSDOF 3
ENDMDL
MODEL 5
REMARK VINA RESULT:      -7.5      5.380      7.464
REMARK  Name = 
REMARK  3 active torsions:
REMARK  status: ('A' for Active; 'I' for Inactive)
REMARK    1  A    between atoms: C_5  and  C_6
REMARK    2  A    between atoms: C_10  and  C_11
REMARK    3  A    between atoms: C_11  and  C_12
REMARK                            x       y       z     vdW  Elec       q    Type
REMARK                         _______ _______ _______ _____ _____    ______ ____
ROOT
ATOM      1  C   UNL     1       8.333   8.829  18.379  0.00  0.00    +0.000 A 
ATOM      2  C   UNL     1       7.274   8.904  17.484  0.00  0.00    +0.000 A 
ATOM      3  N   UNL     1       6.818   7.629  17.396  0.00  0.00    +0.000 N 
ATOM      4  C   UNL     1       5.826   6.977  16.708  0.00  0.00    +0.000 A 
ATOM      5  C   UNL     1       5.782   5.665  17.012  0.00  0.00    +0.000 A 
ATOM      6  S   UNL     1       7.053   5.207  18.186  0.00  0.00    +0.000 S 
ATOM      7  C   UNL     1       7.581   6.862  18.220  0.00  0.00    +0.000 A 
ATOM      8  N   UNL     1       8.531   7.527  18.821  0.00  0.00    +0.000 NA
ENDROOT
BRANCH   1  13
ATOM      9  F   UNL     1      11.424  13.235  19.872  0.00  0.00    +0.000 F 
ATOM     10  C   UNL     1      10.697  12.167  19.519  0.00  0.00    +0.000 A 
ATOM     11  C   UNL     1      10.044  11.431  20.498  0.00  0.00    +0.000 A 
ATOM     12  C   UNL     1       9.274  10.326  20.128  0.00  0.00    +0.000 A 
ATOM     13  C   UNL     1       9.160   9.956  18.777  0.00  0.00    +0.000 A 
ATOM     14  C   UNL     1       9.843  10.702  17.807  0.00  0.00    +0.000 A 
ATOM     15  C   UNL     1      10.607  11.812  18.178  0.00  0.00    +0.000 A 
ENDBRANCH   1  13
BRANCH   5  16
ATOM     16  C   UNL     1       4.833   4.650  16.446  0.00  0.00    +0.000 C 
BRANCH  16  17
ATOM     17  C   UNL     1       3.920   4.065  17.503  0.00  0.00    +0.000 A 
ATOM     18  C   UNL     1       4.068   2.710  17.850  0.00  0.00    +0.000 A 
ATOM     19  C   UNL     1       3.317   2.148  18.884  0.00  0.00    +0.000 A 
ATOM     20  C   UNL     1       2.411   2.931  19.594  0.00  0.00    +0.000 A 
ATOM     21  C   UNL     1       2.235   4.270  19.250  0.00  0.00    +0.000 A 
ATOM     22  C   UNL     1       2.976   4.833  18.207  0.00  0.00    +0.000 A 
ATOM     23 CL   UNL     1       2.670   6.492  17.831  0.00  0.00    +0.000 Cl
ENDBRANCH  16  17
ENDBRANCH   5  16
TORSDOF 3
ENDMDL
MODEL 6
REMARK VINA RESULT:      -7.5      5.579      7.278
REMARK  Name = 
REMARK  3 active torsions:
REMARK  status: ('A' for Active; 'I' for Inactive)
REMARK    1  A    between atoms: C_5  and  C_6
REMARK    2  A    between atoms: C_10  and  C_11
REMARK    3  A    between atoms: C_11  and  C_12
REMARK                            x       y       z     vdW  Elec       q    Type
REMARK                         _______ _______ _______ _____ _____    ______ ____
ROOT
ATOM      1  C   UNL     1       8.157   8.581  18.206  0.00  0.00    +0.000 A 
ATOM      2  C   UNL     1       8.297   7.343  18.822  0.00  0.00    +0.000 A 
ATOM      3  N   UNL     1       7.361   6.563  18.223  0.00  0.00    +0.000 N 
ATOM      4  C   UNL     1       6.938   5.264  18.334  0.00  0.00    +0.000 A 
ATOM      5  C   UNL     1       5.958   4.977  17.455  0.00  0.00    +0.000 A 
ATOM      6  S   UNL     1       5.517   6.397  16.458  0.00  0.00    +0.000 S 
ATOM      7  C   UNL     1       6.724   7.325  17.294  0.00  0.00    +0.000 A 
ATOM      8  N   UNL     1       7.144   8.561  17.255  0.00  0.00    +0.000 NA
ENDROOT
BRANCH   1  13
ATOM      9  F   UNL     1      11.257  13.045  19.492  0.00  0.00    +0.000 F 
ATOM     10  C   UNL     1      10.499  11.986  19.182  0.00  0.00    +0.000 A 
ATOM     11  C   UNL     1      10.214  11.716  17.851  0.00  0.00    +0.000 A 
ATOM     12  C   UNL     1       9.436  10.602  17.526  0.00  0.00    +0.000 A 
ATOM     13  C   UNL     1       8.939   9.760  18.535  0.00  0.00    +0.000 A 
ATOM     14  C   UNL     1       9.222  10.062  19.874  0.00  0.00    +0.000 A 
ATOM     15  C   UNL     1      10.008  11.172  20.197  0.00  0.00    +0.000 A 
ENDBRANCH   1  13
BRANCH   5  16
ATOM     16  C   UNL     1       5.256   3.660  17.300  0.00  0.00    +0.000 C 
BRANCH  16  17
ATOM     17  C   UNL     1       3.882   3.663  17.936  0.00  0.00    +0.000 A 
ATOM     18  C   UNL     1       2.824   4.297  17.258  0.00  0.00    +0.000 A 
ATOM     19  C   UNL     1       1.521   4.246  17.755  0.00  0.00    +0.000 A 
ATOM     20  C   UNL     1       1.250   3.555  18.933  0.00  0.00    +0.000 A 
ATOM     21  C   UNL     1       2.287   2.940  19.630  0.00  0.00    +0.000 A 
ATOM     22  C   UNL     1       3.596   3.000  19.142  0.00  0.00    +0.000 A 
ATOM     23 CL   UNL     1       4.824   2.234  20.088  0.00  0.00    +0.000 Cl
ENDBRANCH  16  17
ENDBRANCH   5  16
TORSDOF 3
ENDMDL
MODEL 7
REMARK VINA RESULT:      -7.5      5.355      7.457
REMARK  Name = 
REMARK  3 active torsions:
REMARK  status: ('A' for Active; 'I' for Inactive)
REMARK    1  A    between atoms: C_5  and  C_6
REMARK    2  A    between atoms: C_10  and  C_11
REMARK    3  A    between atoms: C_11  and  C_12
REMARK                            x       y       z     vdW  Elec       q    Type
REMARK                         _______ _______ _______ _____ _____    ______ ____
ROOT
ATOM      1  C   UNL     1       8.374   8.894  18.389  0.00  0.00    +0.000 A 
ATOM      2  C   UNL     1       7.316   8.960  17.491  0.00  0.00    +0.000 A 
ATOM      3  N   UNL     1       6.862   7.683  17.414  0.00  0.00    +0.000 N 
ATOM      4  C   UNL     1       5.873   7.024  16.731  0.00  0.00    +0.000 A 
ATOM      5  C   UNL     1       5.830   5.715  17.046  0.00  0.00    +0.000 A 
ATOM      6  S   UNL     1       7.100   5.268  18.227  0.00  0.00    +0.000 S 
ATOM      7  C   UNL     1       7.625   6.925  18.246  0.00  0.00    +0.000 A 
ATOM      8  N   UNL     1       8.572   7.597  18.844  0.00  0.00    +0.000 NA
ENDROOT
BRANCH   1  13
ATOM      9  F   UNL     1      11.624  13.169  19.925  0.00  0.00    +0.000 F 
ATOM     10  C   UNL     1      10.831  12.156  19.552  0.00  0.00    +0.000 A 
ATOM     11  C   UNL     1      10.724  11.833  18.207  0.00  0.00    +0.000 A 
ATOM     12  C   UNL     1       9.908  10.767  17.819  0.00  0.00    +0.000 A 
ATOM     13  C   UNL     1       9.198  10.026  18.779  0.00  0.00    +0.000 A 
ATOM     14  C   UNL     1       9.306  10.382  20.130  0.00  0.00    +0.000 A 
ATOM     15  C   UNL     1      10.129  11.444  20.518  0.00  0.00    +0.000 A 
ENDBRANCH   1  13
BRANCH   5  16
ATOM     16  C   UNL     1       4.883   4.693  16.487  0.00  0.00    +0.000 C 
BRANCH  16  17
ATOM     17  C   UNL     1       3.950   4.137  17.542  0.00  0.00    +0.000 A 
ATOM     18  C   UNL     1       4.084   2.790  17.922  0.00  0.00    +0.000 A 
ATOM     19  C   UNL     1       3.313   2.256  18.956  0.00  0.00    +0.000 A 
ATOM     20  C   UNL     1       2.400   3.060  19.633  0.00  0.00    +0.000 A 
ATOM     21  C   UNL     1       2.237   4.392  19.256  0.00  0.00    +0.000 A 
ATOM     22  C   UNL     1       2.998   4.927  18.212  0.00  0.00    +0.000 A 
ATOM     23 CL   UNL     1       2.708   6.578  17.793  0.00  0.00    +0.000 Cl
ENDBRANCH  16  17
ENDBRANCH   5  16
TORSDOF 3
ENDMDL
MODEL 8
REMARK VINA RESULT:      -7.5      1.729      2.278
REMARK  Name = 
REMARK  3 active torsions:
REMARK  status: ('A' for Active; 'I' for Inactive)
REMARK    1  A    between atoms: C_5  and  C_6
REMARK    2  A    between atoms: C_10  and  C_11
REMARK    3  A    between atoms: C_11  and  C_12
REMARK                            x       y       z     vdW  Elec       q    Type
REMARK                         _______ _______ _______ _____ _____    ______ ____
ROOT
ATOM      1  C   UNL     1       0.651  10.036  20.751  0.00  0.00    +0.000 A 
ATOM      2  C   UNL     1       1.104   8.794  21.178  0.00  0.00    +0.000 A 
ATOM      3  N   UNL     1       1.659   8.240  20.070  0.00  0.00    +0.000 N 
ATOM      4  C   UNL     1       2.275   7.056  19.759  0.00  0.00    +0.000 A 
ATOM      5  C   UNL     1       2.676   7.021  18.473  0.00  0.00    +0.000 A 
ATOM      6  S   UNL     1       2.242   8.519  17.594  0.00  0.00    +0.000 S 
ATOM      7  C   UNL     1       1.536   9.138  19.056  0.00  0.00    +0.000 A 
ATOM      8  N   UNL     1       0.912  10.233  19.401  0.00  0.00    +0.000 NA
ENDROOT
BRANCH   1  13
ATOM      9  F   UNL     1      -2.093  13.750  23.893  0.00  0.00    +0.000 F 
ATOM     10  C   UNL     1      -1.423  12.857  23.154  0.00  0.00    +0.000 A 
ATOM     11  C   UNL     1      -1.641  11.501  23.357  0.00  0.00    +0.000 A 
ATOM     12  C   UNL     1      -0.953  10.570  22.575  0.00  0.00    +0.000 A 
ATOM     13  C   UNL     1      -0.044  10.996  21.592  0.00  0.00    +0.000 A 
ATOM     14  C   UNL     1       0.175  12.369  21.416  0.00  0.00    +0.000 A 
ATOM     15  C   UNL     1      -0.520  13.300  22.194  0.00  0.00    +0.000 A 
ENDBRANCH   1  13
BRANCH   5  16
ATOM     16  C   UNL     1       3.376   5.883  17.787  0.00  0.00    +0.000 C 
BRANCH  16  17
ATOM     17  C   UNL     1       4.880   5.956  17.943  0.00  0.00    +0.000 A 
ATOM     18  C   UNL     1       5.585   6.950  17.241  0.00  0.00    +0.000 A 
ATOM     19  C   UNL     1       6.959   7.120  17.425  0.00  0.00    +0.000 A 
ATOM     20  C   UNL     1       7.650   6.305  18.317  0.00  0.00    +0.000 A 
ATOM     21  C   UNL     1       6.973   5.300  19.004  0.00  0.00    +0.000 A 
ATOM     22  C   UNL     1       5.599   5.119  18.814  0.00  0.00    +0.000 A 
ATOM     23 CL   UNL     1       4.848   3.828  19.685  0.00  0.00    +0.000 Cl
ENDBRANCH  16  17
ENDBRANCH   5  16
TORSDOF 3
ENDMDL
MODEL 9
REMARK VINA RESULT:      -7.5      2.070      3.032
REMARK  Name = 
REMARK  3 active torsions:
REMARK  status: ('A' for Active; 'I' for Inactive)
REMARK    1  A    between atoms: C_5  and  C_6
REMARK    2  A    between atoms: C_10  and  C_11
REMARK    3  A    between atoms: C_11  and  C_12
REMARK                            x       y       z     vdW  Elec       q    Type
REMARK                         _______ _______ _______ _____ _____    ______ ____
ROOT
ATOM      1  C   UNL     1       0.533  10.039  20.972  0.00  0.00    +0.000 A 
ATOM      2  C   UNL     1       0.909  10.125  19.638  0.00  0.00    +0.000 A 
ATOM      3  N   UNL     1       1.519   8.939  19.385  0.00  0.00    +0.000 N 
ATOM      4  C   UNL     1       2.130   8.350  18.307  0.00  0.00    +0.000 A 
ATOM      5  C   UNL     1       2.562   7.106  18.593  0.00  0.00    +0.000 A 
ATOM      6  S   UNL     1       2.224   6.652  20.290  0.00  0.00    +0.000 S 
ATOM      7  C   UNL     1       1.479   8.204  20.528  0.00  0.00    +0.000 A 
ATOM      8  N   UNL     1       0.918   8.826  21.530  0.00  0.00    +0.000 NA
ENDROOT
BRANCH   1  13
ATOM      9  F   UNL     1      -2.134  14.112  23.710  0.00  0.00    +0.000 F 
ATOM     10  C   UNL     1      -1.483  13.134  23.068  0.00  0.00    +0.000 A 
ATOM     11  C   UNL     1      -1.749  11.810  23.390  0.00  0.00    +0.000 A 
ATOM     12  C   UNL     1      -1.080  10.789  22.710  0.00  0.00    +0.000 A 
ATOM     13  C   UNL     1      -0.142  11.094  21.709  0.00  0.00    +0.000 A 
ATOM     14  C   UNL     1       0.125  12.438  21.413  0.00  0.00    +0.000 A 
ATOM     15  C   UNL     1      -0.551  13.458  22.089  0.00  0.00    +0.000 A 
ENDBRANCH   1  13
BRANCH   5  16
ATOM     16  C   UNL     1       3.279   6.175  17.658  0.00  0.00    +0.000 C 
BRANCH  16  17
ATOM     17  C   UNL     1       3.147   4.727  18.078  0.00  0.00    +0.000 A 
ATOM     18  C   UNL     1       1.973   4.029  17.741  0.00  0.00    +0.000 A 
ATOM     19  C   UNL     1       1.843   2.667  18.021  0.00  0.00    +0.000 A 
ATOM     20  C   UNL     1       2.885   1.978  18.635  0.00  0.00    +0.000 A 
ATOM     21  C   UNL     1       4.046   2.657  18.997  0.00  0.00    +0.000 A 
ATOM     22  C   UNL     1       4.176   4.023  18.730  0.00  0.00    +0.000 A 
ATOM     23 CL   UNL     1       5.639   4.789  19.241  0.00  0.00    +0.000 Cl
ENDBRANCH  16  17
ENDBRANCH   5  16
TORSDOF 3
ENDMDL
