MODEL 1
REMARK VINA RESULT:      -7.3      0.000      0.000
REMARK  Name = 
REMARK  2 active torsions:
REMARK  status: ('A' for Active; 'I' for Inactive)
REMARK    1  A    between atoms: S_1  and  C_2
REMARK    2  A    between atoms: C_11  and  C_12
REMARK                            x       y       z     vdW  Elec       q    Type
REMARK                         _______ _______ _______ _____ _____    ______ ____
ROOT
ATOM      1  C   UNL     1       4.455   3.871  17.018  0.00  0.00    +0.000 C 
ATOM      2  N   UNL     1       3.393   3.205  17.298  0.00  0.00    +0.000 NA
ATOM      3  C   UNL     1       3.134   3.625  18.698  0.00  0.00    +0.000 C 
ATOM      4  C   UNL     1       3.190   2.385  19.602  0.00  0.00    +0.000 C 
ATOM      5  C   UNL     1       2.767   2.695  21.037  0.00  0.00    +0.000 C 
ATOM      6  C   UNL     1       1.394   3.362  21.089  0.00  0.00    +0.000 C 
ATOM      7  C   UNL     1       1.333   4.604  20.205  0.00  0.00    +0.000 C 
ATOM      8  C   UNL     1       1.758   4.302  18.769  0.00  0.00    +0.000 C 
ATOM      9  N   UNL     1       4.176   4.592  19.135  0.00  0.00    +0.000 NA
ATOM     10  C   UNL     1       4.938   4.759  18.093  0.00  0.00    +0.000 C 
ENDROOT
BRANCH  10  11
ATOM     11  C   UNL     1       6.051   5.727  18.114  0.00  0.00    +0.000 A 
ATOM     12  C   UNL     1       7.092   5.521  19.031  0.00  0.00    +0.000 A 
ATOM     13  C   UNL     1       8.149   6.429  19.115  0.00  0.00    +0.000 A 
ATOM     14  C   UNL     1       8.172   7.547  18.286  0.00  0.00    +0.000 A 
ATOM     15  C   UNL     1       7.130   7.772  17.390  0.00  0.00    +0.000 A 
ATOM     16  C   UNL     1       6.061   6.878  17.320  0.00  0.00    +0.000 A 
ENDBRANCH  10  11
BRANCH   1  17
ATOM     17  S   UNL     1       5.404   3.757  15.613  0.00  0.00    +0.000 S 
ATOM     18  H   UNL     1       5.722   5.058  15.565  0.00  0.00    +0.000 HD
ENDBRANCH   1  17
TORSDOF 2
ENDMDL
MODEL 2
REMARK VINA RESULT:      -7.3      0.096      1.173
REMARK  Name = 
REMARK  2 active torsions:
REMARK  status: ('A' for Active; 'I' for Inactive)
REMARK    1  A    between atoms: S_1  and  C_2
REMARK    2  A    between atoms: C_11  and  C_12
REMARK                            x       y       z     vdW  Elec       q    Type
REMARK                         _______ _______ _______ _____ _____    ______ ____
ROOT
ATOM      1  C   UNL     1       4.483   3.866  17.096  0.00  0.00    +0.000 C 
ATOM      2  N   UNL     1       3.425   3.185  17.353  0.00  0.00    +0.000 NA
ATOM      3  C   UNL     1       3.128   3.600  18.747  0.00  0.00    +0.000 C 
ATOM      4  C   UNL     1       3.183   2.361  19.652  0.00  0.00    +0.000 C 
ATOM      5  C   UNL     1       2.723   2.665  21.078  0.00  0.00    +0.000 C 
ATOM      6  C   UNL     1       1.340   3.311  21.098  0.00  0.00    +0.000 C 
ATOM      7  C   UNL     1       1.280   4.553  20.213  0.00  0.00    +0.000 C 
ATOM      8  C   UNL     1       1.741   4.257  18.787  0.00  0.00    +0.000 C 
ATOM      9  N   UNL     1       4.146   4.583  19.207  0.00  0.00    +0.000 NA
ATOM     10  C   UNL     1       4.929   4.761  18.182  0.00  0.00    +0.000 C 
ENDROOT
BRANCH  10  11
ATOM     11  C   UNL     1       6.026   5.746  18.228  0.00  0.00    +0.000 A 
ATOM     12  C   UNL     1       5.970   6.842  17.356  0.00  0.00    +0.000 A 
ATOM     13  C   UNL     1       7.001   7.782  17.335  0.00  0.00    +0.000 A 
ATOM     14  C   UNL     1       8.095   7.633  18.183  0.00  0.00    +0.000 A 
ATOM     15  C   UNL     1       8.170   6.533  19.036  0.00  0.00    +0.000 A 
ATOM     16  C   UNL     1       7.151   5.581  19.042  0.00  0.00    +0.000 A 
ENDBRANCH  10  11
BRANCH   1  17
ATOM     17  S   UNL     1       5.464   3.767  15.713  0.00  0.00    +0.000 S 
ATOM     18  H   UNL     1       6.043   4.964  15.877  0.00  0.00    +0.000 HD
ENDBRANCH   1  17
TORSDOF 2
ENDMDL
MODEL 3
REMARK VINA RESULT:      -7.2      2.335      5.734
REMARK  Name = 
REMARK  2 active torsions:
REMARK  status: ('A' for Active; 'I' for Inactive)
REMARK    1  A    between atoms: S_1  and  C_2
REMARK    2  A    between atoms: C_11  and  C_12
REMARK                            x       y       z     vdW  Elec       q    Type
REMARK                         _______ _______ _______ _____ _____    ______ ____
ROOT
ATOM      1  C   UNL     1       3.428   6.774  17.940  0.00  0.00    +0.000 C 
ATOM      2  N   UNL     1       4.339   7.154  17.119  0.00  0.00    +0.000 NA
ATOM      3  C   UNL     1       5.104   5.899  16.914  0.00  0.00    +0.000 C 
ATOM      4  C   UNL     1       6.549   6.120  17.381  0.00  0.00    +0.000 C 
ATOM      5  C   UNL     1       7.453   4.932  17.048  0.00  0.00    +0.000 C 
ATOM      6  C   UNL     1       7.393   4.576  15.566  0.00  0.00    +0.000 C 
ATOM      7  C   UNL     1       5.961   4.339  15.095  0.00  0.00    +0.000 C 
ATOM      8  C   UNL     1       5.051   5.521  15.426  0.00  0.00    +0.000 C 
ATOM      9  N   UNL     1       4.497   4.803  17.716  0.00  0.00    +0.000 NA
ATOM     10  C   UNL     1       3.463   5.342  18.294  0.00  0.00    +0.000 C 
ENDROOT
BRANCH  10  11
ATOM     11  C   UNL     1       2.546   4.532  19.119  0.00  0.00    +0.000 A 
ATOM     12  C   UNL     1       2.739   4.521  20.508  0.00  0.00    +0.000 A 
ATOM     13  C   UNL     1       1.921   3.743  21.329  0.00  0.00    +0.000 A 
ATOM     14  C   UNL     1       0.909   2.970  20.768  0.00  0.00    +0.000 A 
ATOM     15  C   UNL     1       0.726   2.956  19.387  0.00  0.00    +0.000 A 
ATOM     16  C   UNL     1       1.556   3.716  18.563  0.00  0.00    +0.000 A 
ENDBRANCH  10  11
BRANCH   1  17
ATOM     17  S   UNL     1       2.280   7.747  18.730  0.00  0.00    +0.000 S 
ATOM     18  H   UNL     1       1.216   7.028  18.350  0.00  0.00    +0.000 HD
ENDBRANCH   1  17
TORSDOF 2
ENDMDL
MODEL 4
REMARK VINA RESULT:      -7.1      2.338      5.827
REMARK  Name = 
REMARK  2 active torsions:
REMARK  status: ('A' for Active; 'I' for Inactive)
REMARK    1  A    between atoms: S_1  and  C_2
REMARK    2  A    between atoms: C_11  and  C_12
REMARK                            x       y       z     vdW  Elec       q    Type
REMARK                         _______ _______ _______ _____ _____    ______ ____
ROOT
ATOM      1  C   UNL     1       3.442   6.737  17.942  0.00  0.00    +0.000 C 
ATOM      2  N   UNL     1       4.332   7.136  17.106  0.00  0.00    +0.000 NA
ATOM      3  C   UNL     1       5.108   5.892  16.874  0.00  0.00    +0.000 C 
ATOM      4  C   UNL     1       6.560   6.128  17.313  0.00  0.00    +0.000 C 
ATOM      5  C   UNL     1       7.472   4.955  16.952  0.00  0.00    +0.000 C 
ATOM      6  C   UNL     1       7.387   4.611  15.468  0.00  0.00    +0.000 C 
ATOM      7  C   UNL     1       5.949   4.360  15.024  0.00  0.00    +0.000 C 
ATOM      8  C   UNL     1       5.030   5.527  15.384  0.00  0.00    +0.000 C 
ATOM      9  N   UNL     1       4.532   4.781  17.678  0.00  0.00    +0.000 NA
ATOM     10  C   UNL     1       3.503   5.302  18.282  0.00  0.00    +0.000 C 
ENDROOT
BRANCH  10  11
ATOM     11  C   UNL     1       2.614   4.473  19.118  0.00  0.00    +0.000 A 
ATOM     12  C   UNL     1       1.629   3.706  18.480  0.00  0.00    +0.000 A 
ATOM     13  C   UNL     1       0.740   2.933  19.229  0.00  0.00    +0.000 A 
ATOM     14  C   UNL     1       0.829   2.923  20.618  0.00  0.00    +0.000 A 
ATOM     15  C   UNL     1       1.789   3.701  21.261  0.00  0.00    +0.000 A 
ATOM     16  C   UNL     1       2.663   4.491  20.516  0.00  0.00    +0.000 A 
ENDBRANCH  10  11
BRANCH   1  17
ATOM     17  S   UNL     1       2.298   7.688  18.764  0.00  0.00    +0.000 S 
ATOM     18  H   UNL     1       1.568   7.978  17.679  0.00  0.00    +0.000 HD
ENDBRANCH   1  17
TORSDOF 2
ENDMDL
MODEL 5
REMARK VINA RESULT:      -6.9      3.205      5.267
REMARK  Name = 
REMARK  2 active torsions:
REMARK  status: ('A' for Active; 'I' for Inactive)
REMARK    1  A    between atoms: S_1  and  C_2
REMARK    2  A    between atoms: C_11  and  C_12
REMARK                            x       y       z     vdW  Elec       q    Type
REMARK                         _______ _______ _______ _____ _____    ______ ____
ROOT
ATOM      1  C   UNL     1       2.973   4.900  19.601  0.00  0.00    +0.000 C 
ATOM      2  N   UNL     1       3.905   4.050  19.358  0.00  0.00    +0.000 NA
ATOM      3  C   UNL     1       4.756   4.800  18.400  0.00  0.00    +0.000 C 
ATOM      4  C   UNL     1       4.800   4.029  17.073  0.00  0.00    +0.000 C 
ATOM      5  C   UNL     1       5.791   4.640  16.082  0.00  0.00    +0.000 C 
ATOM      6  C   UNL     1       7.183   4.782  16.692  0.00  0.00    +0.000 C 
ATOM      7  C   UNL     1       7.152   5.560  18.005  0.00  0.00    +0.000 C 
ATOM      8  C   UNL     1       6.161   4.956  18.999  0.00  0.00    +0.000 C 
ATOM      9  N   UNL     1       4.176   6.148  18.160  0.00  0.00    +0.000 NA
ATOM     10  C   UNL     1       3.125   6.203  18.926  0.00  0.00    +0.000 C 
ENDROOT
BRANCH  10  11
ATOM     11  C   UNL     1       2.323   7.437  19.026  0.00  0.00    +0.000 A 
ATOM     12  C   UNL     1       2.147   8.210  17.869  0.00  0.00    +0.000 A 
ATOM     13  C   UNL     1       1.427   9.404  17.919  0.00  0.00    +0.000 A 
ATOM     14  C   UNL     1       0.880   9.835  19.124  0.00  0.00    +0.000 A 
ATOM     15  C   UNL     1       1.070   9.087  20.284  0.00  0.00    +0.000 A 
ATOM     16  C   UNL     1       1.808   7.904  20.240  0.00  0.00    +0.000 A 
ENDBRANCH  10  11
BRANCH   1  17
ATOM     17  S   UNL     1       1.559   4.649  20.509  0.00  0.00    +0.000 S 
ATOM     18  H   UNL     1       2.101   3.757  21.350  0.00  0.00    +0.000 HD
ENDBRANCH   1  17
TORSDOF 2
ENDMDL
MODEL 6
REMARK VINA RESULT:      -6.8      2.806      4.037
REMARK  Name = 
REMARK  2 active torsions:
REMARK  status: ('A' for Active; 'I' for Inactive)
REMARK    1  A    between atoms: S_1  and  C_2
REMARK    2  A    between atoms: C_11  and  C_12
REMARK                            x       y       z     vdW  Elec       q    Type
REMARK                         _______ _______ _______ _____ _____    ______ ____
ROOT
ATOM      1  C   UNL     1       5.801   5.347  17.362  0.00  0.00    +0.000 C 
ATOM      2  N   UNL     1       5.080   5.165  18.409  0.00  0.00    +0.000 NA
ATOM      3  C   UNL     1       4.002   4.289  17.885  0.00  0.00    +0.000 C 
ATOM      4  C   UNL     1       2.656   5.009  18.055  0.00  0.00    +0.000 C 
ATOM      5  C   UNL     1       1.472   4.111  17.699  0.00  0.00    +0.000 C 
ATOM      6  C   UNL     1       1.505   2.797  18.475  0.00  0.00    +0.000 C 
ATOM      7  C   UNL     1       2.834   2.068  18.300  0.00  0.00    +0.000 C 
ATOM      8  C   UNL     1       4.023   2.960  18.652  0.00  0.00    +0.000 C 
ATOM      9  N   UNL     1       4.230   4.021  16.439  0.00  0.00    +0.000 NA
ATOM     10  C   UNL     1       5.343   4.634  16.155  0.00  0.00    +0.000 C 
ENDROOT
BRANCH  10  11
ATOM     11  C   UNL     1       5.946   4.526  14.813  0.00  0.00    +0.000 A 
ATOM     12  C   UNL     1       5.302   3.726  13.858  0.00  0.00    +0.000 A 
ATOM     13  C   UNL     1       5.852   3.563  12.586  0.00  0.00    +0.000 A 
ATOM     14  C   UNL     1       7.048   4.195  12.260  0.00  0.00    +0.000 A 
ATOM     15  C   UNL     1       7.708   4.972  13.210  0.00  0.00    +0.000 A 
ATOM     16  C   UNL     1       7.171   5.119  14.490  0.00  0.00    +0.000 A 
ENDBRANCH  10  11
BRANCH   1  17
ATOM     17  S   UNL     1       7.135   6.387  17.196  0.00  0.00    +0.000 S 
ATOM     18  H   UNL     1       7.756   5.654  16.263  0.00  0.00    +0.000 HD
ENDBRANCH   1  17
TORSDOF 2
ENDMDL
MODEL 7
REMARK VINA RESULT:      -6.8      3.186      5.168
REMARK  Name = 
REMARK  2 active torsions:
REMARK  status: ('A' for Active; 'I' for Inactive)
REMARK    1  A    between atoms: S_1  and  C_2
REMARK    2  A    between atoms: C_11  and  C_12
REMARK                            x       y       z     vdW  Elec       q    Type
REMARK                         _______ _______ _______ _____ _____    ______ ____
ROOT
ATOM      1  C   UNL     1       2.935   4.888  19.518  0.00  0.00    +0.000 C 
ATOM      2  N   UNL     1       3.840   4.012  19.267  0.00  0.00    +0.000 NA
ATOM      3  C   UNL     1       4.707   4.740  18.308  0.00  0.00    +0.000 C 
ATOM      4  C   UNL     1       4.722   3.973  16.978  0.00  0.00    +0.000 C 
ATOM      5  C   UNL     1       5.725   4.558  15.984  0.00  0.00    +0.000 C 
ATOM      6  C   UNL     1       7.124   4.657  16.587  0.00  0.00    +0.000 C 
ATOM      7  C   UNL     1       7.122   5.431  17.902  0.00  0.00    +0.000 C 
ATOM      8  C   UNL     1       6.119   4.853  18.900  0.00  0.00    +0.000 C 
ATOM      9  N   UNL     1       4.166   6.106  18.075  0.00  0.00    +0.000 NA
ATOM     10  C   UNL     1       3.120   6.189  18.847  0.00  0.00    +0.000 C 
ENDROOT
BRANCH  10  11
ATOM     11  C   UNL     1       2.356   7.446  18.955  0.00  0.00    +0.000 A 
ATOM     12  C   UNL     1       1.861   7.814  20.214  0.00  0.00    +0.000 A 
ATOM     13  C   UNL     1       1.100   8.975  20.363  0.00  0.00    +0.000 A 
ATOM     14  C   UNL     1       0.829   9.774  19.255  0.00  0.00    +0.000 A 
ATOM     15  C   UNL     1       1.296   9.403  17.996  0.00  0.00    +0.000 A 
ATOM     16  C   UNL     1       2.037   8.231  17.842  0.00  0.00    +0.000 A 
ENDBRANCH  10  11
BRANCH   1  17
ATOM     17  S   UNL     1       1.519   4.676  20.433  0.00  0.00    +0.000 S 
ATOM     18  H   UNL     1       2.120   4.769  21.627  0.00  0.00    +0.000 HD
ENDBRANCH   1  17
TORSDOF 2
ENDMDL
MODEL 8
REMARK VINA RESULT:      -6.7      2.099      2.999
REMARK  Name = 
REMARK  2 active torsions:
REMARK  status: ('A' for Active; 'I' for Inactive)
REMARK    1  A    between atoms: S_1  and  C_2
REMARK    2  A    between atoms: C_11  and  C_12
REMARK                            x       y       z     vdW  Elec       q    Type
REMARK                         _______ _______ _______ _____ _____    ______ ____
ROOT
ATOM      1  C   UNL     1       3.056   6.292  18.566  0.00  0.00    +0.000 C 
ATOM      2  N   UNL     1       2.124   6.151  19.439  0.00  0.00    +0.000 NA
ATOM      3  C   UNL     1       2.242   4.710  19.776  0.00  0.00    +0.000 C 
ATOM      4  C   UNL     1       0.922   4.011  19.420  0.00  0.00    +0.000 C 
ATOM      5  C   UNL     1       0.892   2.557  19.891  0.00  0.00    +0.000 C 
ATOM      6  C   UNL     1       1.202   2.440  21.380  0.00  0.00    +0.000 C 
ATOM      7  C   UNL     1       2.520   3.119  21.741  0.00  0.00    +0.000 C 
ATOM      8  C   UNL     1       2.558   4.572  21.272  0.00  0.00    +0.000 C 
ATOM      9  N   UNL     1       3.344   4.097  18.986  0.00  0.00    +0.000 NA
ATOM     10  C   UNL     1       3.848   5.078  18.295  0.00  0.00    +0.000 C 
ENDROOT
BRANCH  10  11
ATOM     11  C   UNL     1       5.034   4.873  17.442  0.00  0.00    +0.000 A 
ATOM     12  C   UNL     1       4.832   4.519  16.100  0.00  0.00    +0.000 A 
ATOM     13  C   UNL     1       5.921   4.279  15.261  0.00  0.00    +0.000 A 
ATOM     14  C   UNL     1       7.217   4.390  15.756  0.00  0.00    +0.000 A 
ATOM     15  C   UNL     1       7.427   4.718  17.094  0.00  0.00    +0.000 A 
ATOM     16  C   UNL     1       6.339   4.936  17.940  0.00  0.00    +0.000 A 
ENDBRANCH  10  11
BRANCH   1  17
ATOM     17  S   UNL     1       3.392   7.671  17.631  0.00  0.00    +0.000 S 
ATOM     18  H   UNL     1       3.530   8.503  18.672  0.00  0.00    +0.000 HD
ENDBRANCH   1  17
TORSDOF 2
ENDMDL
MODEL 9
REMARK VINA RESULT:      -6.6      2.093      2.823
REMARK  Name = 
REMARK  2 active torsions:
REMARK  status: ('A' for Active; 'I' for Inactive)
REMARK    1  A    between atoms: S_1  and  C_2
REMARK    2  A    between atoms: C_11  and  C_12
REMARK                            x       y       z     vdW  Elec       q    Type
REMARK                         _______ _______ _______ _____ _____    ______ ____
ROOT
ATOM      1  C   UNL     1       3.076   6.244  18.547  0.00  0.00    +0.000 C 
ATOM      2  N   UNL     1       2.162   6.125  19.441  0.00  0.00    +0.000 NA
ATOM      3  C   UNL     1       2.252   4.682  19.776  0.00  0.00    +0.000 C 
ATOM      4  C   UNL     1       0.907   4.016  19.451  0.00  0.00    +0.000 C 
ATOM      5  C   UNL     1       0.852   2.563  19.923  0.00  0.00    +0.000 C 
ATOM      6  C   UNL     1       1.194   2.438  21.406  0.00  0.00    +0.000 C 
ATOM      7  C   UNL     1       2.536   3.084  21.736  0.00  0.00    +0.000 C 
ATOM      8  C   UNL     1       2.600   4.536  21.264  0.00  0.00    +0.000 C 
ATOM      9  N   UNL     1       3.320   4.042  18.962  0.00  0.00    +0.000 NA
ATOM     10  C   UNL     1       3.833   5.010  18.258  0.00  0.00    +0.000 C 
ENDROOT
BRANCH  10  11
ATOM     11  C   UNL     1       4.993   4.776  17.378  0.00  0.00    +0.000 A 
ATOM     12  C   UNL     1       6.277   4.920  17.921  0.00  0.00    +0.000 A 
ATOM     13  C   UNL     1       7.407   4.746  17.120  0.00  0.00    +0.000 A 
ATOM     14  C   UNL     1       7.261   4.427  15.773  0.00  0.00    +0.000 A 
ATOM     15  C   UNL     1       5.988   4.305  15.219  0.00  0.00    +0.000 A 
ATOM     16  C   UNL     1       4.858   4.502  16.013  0.00  0.00    +0.000 A 
ENDBRANCH  10  11
BRANCH   1  17
ATOM     17  S   UNL     1       3.425   7.613  17.603  0.00  0.00    +0.000 S 
ATOM     18  H   UNL     1       4.294   6.995  16.792  0.00  0.00    +0.000 HD
ENDBRANCH   1  17
TORSDOF 2
ENDMDL
