MODEL 1
REMARK VINA RESULT:      -8.3      0.000      0.000
REMARK  Name = 
REMARK  4 active torsions:
REMARK  status: ('A' for Active; 'I' for Inactive)
REMARK    1  A    between atoms: C_1  and  C_2
REMARK    2  A    between atoms: C_2  and  C_3
REMARK    3  A    between atoms: N_7  and  C_19
REMARK    4  A    between atoms: N_10  and  C_11
REMARK                            x       y       z     vdW  Elec       q    Type
REMARK                         _______ _______ _______ _____ _____    ______ ____
ROOT
ATOM      1  C   UNL     1       1.631   2.959  21.158  0.00  0.00    +0.000 C 
ATOM      2  C   UNL     1       1.726   2.691  19.653  0.00  0.00    +0.000 C 
ATOM      3  C   UNL     1       0.692   1.650  19.230  0.00  0.00    +0.000 C 
ATOM      4  C   UNL     1       3.143   2.286  19.236  0.00  0.00    +0.000 C 
ATOM      5  N   UNL     1       3.963   3.482  18.963  0.00  0.00    +0.000 NA
ATOM      6  C   UNL     1       3.225   4.497  18.655  0.00  0.00    +0.000 C 
ATOM      7  N   UNL     1       3.737   5.745  18.287  0.00  0.00    +0.000 N 
ATOM      8  C   UNL     1       3.019   6.958  18.404  0.00  0.00    +0.000 C 
ATOM      9  O   UNL     1       3.048   7.826  17.531  0.00  0.00    +0.000 OA
ATOM     10  N   UNL     1       2.331   7.112  19.606  0.00  0.00    +0.000 N 
ATOM     11  S   UNL     1       1.493   4.253  18.755  0.00  0.00    +0.000 S 
ATOM     12  H   UNL     1       2.469   6.387  20.299  0.00  0.00    +0.000 HD
ENDROOT
BRANCH  10  13
ATOM     13  C   UNL     1       1.605   8.256  19.998  0.00  0.00    +0.000 A 
ATOM     14  C   UNL     1       1.342   9.328  19.138  0.00  0.00    +0.000 A 
ATOM     15  C   UNL     1       0.687  10.473  19.589  0.00  0.00    +0.000 A 
ATOM     16  C   UNL     1       0.276  10.563  20.917  0.00  0.00    +0.000 A 
ATOM     17 CL   UNL     1      -0.504  12.023  21.414  0.00  0.00    +0.000 Cl
ATOM     18  C   UNL     1       0.502   9.490  21.781  0.00  0.00    +0.000 A 
ATOM     19 CL   UNL     1       0.036   9.538  23.448  0.00  0.00    +0.000 Cl
ATOM     20  C   UNL     1       1.152   8.338  21.320  0.00  0.00    +0.000 A 
ENDBRANCH  10  13
BRANCH   7  21
ATOM     21  C   UNL     1       4.970   5.810  17.511  0.00  0.00    +0.000 A 
ATOM     22  C   UNL     1       5.004   5.355  16.177  0.00  0.00    +0.000 A 
ATOM     23  C   UNL     1       6.187   5.338  15.432  0.00  0.00    +0.000 A 
ATOM     24  C   UNL     1       7.368   5.801  15.996  0.00  0.00    +0.000 A 
ATOM     25  C   UNL     1       7.363   6.273  17.305  0.00  0.00    +0.000 A 
ATOM     26  C   UNL     1       6.179   6.275  18.056  0.00  0.00    +0.000 A 
ENDBRANCH   7  21
TORSDOF 2
ENDMDL
MODEL 2
REMARK VINA RESULT:      -8.0      0.653      1.429
REMARK  Name = 
REMARK  4 active torsions:
REMARK  status: ('A' for Active; 'I' for Inactive)
REMARK    1  A    between atoms: C_1  and  C_2
REMARK    2  A    between atoms: C_2  and  C_3
REMARK    3  A    between atoms: N_7  and  C_19
REMARK    4  A    between atoms: N_10  and  C_11
REMARK                            x       y       z     vdW  Elec       q    Type
REMARK                         _______ _______ _______ _____ _____    ______ ____
ROOT
ATOM      1  C   UNL     1       1.646   2.871  21.274  0.00  0.00    +0.000 C 
ATOM      2  C   UNL     1       1.704   2.675  19.756  0.00  0.00    +0.000 C 
ATOM      3  C   UNL     1       0.650   1.665  19.307  0.00  0.00    +0.000 C 
ATOM      4  C   UNL     1       3.108   2.276  19.289  0.00  0.00    +0.000 C 
ATOM      5  N   UNL     1       3.934   3.476  19.055  0.00  0.00    +0.000 NA
ATOM      6  C   UNL     1       3.201   4.512  18.813  0.00  0.00    +0.000 C 
ATOM      7  N   UNL     1       3.718   5.771  18.493  0.00  0.00    +0.000 N 
ATOM      8  C   UNL     1       3.016   6.984  18.684  0.00  0.00    +0.000 C 
ATOM      9  O   UNL     1       3.035   7.893  17.853  0.00  0.00    +0.000 OA
ATOM     10  N   UNL     1       2.356   7.087  19.907  0.00  0.00    +0.000 N 
ATOM     11  S   UNL     1       1.469   4.280  18.940  0.00  0.00    +0.000 S 
ATOM     12  H   UNL     1       2.501   6.327  20.561  0.00  0.00    +0.000 HD
ENDROOT
BRANCH  10  13
ATOM     13  C   UNL     1       1.651   8.217  20.370  0.00  0.00    +0.000 A 
ATOM     14  C   UNL     1       1.415   8.470  21.726  0.00  0.00    +0.000 A 
ATOM     15  C   UNL     1       0.649   9.560  22.135  0.00  0.00    +0.000 A 
ATOM     16  C   UNL     1       0.104  10.425  21.188  0.00  0.00    +0.000 A 
ATOM     17 CL   UNL     1      -0.860  11.736  21.766  0.00  0.00    +0.000 Cl
ATOM     18  C   UNL     1       0.355  10.205  19.832  0.00  0.00    +0.000 A 
ATOM     19 CL   UNL     1      -0.303  11.226  18.598  0.00  0.00    +0.000 Cl
ATOM     20  C   UNL     1       1.135   9.114  19.426  0.00  0.00    +0.000 A 
ENDBRANCH  10  13
BRANCH   7  21
ATOM     21  C   UNL     1       4.935   5.862  17.693  0.00  0.00    +0.000 A 
ATOM     22  C   UNL     1       4.932   5.479  16.337  0.00  0.00    +0.000 A 
ATOM     23  C   UNL     1       6.098   5.487  15.565  0.00  0.00    +0.000 A 
ATOM     24  C   UNL     1       7.297   5.902  16.126  0.00  0.00    +0.000 A 
ATOM     25  C   UNL     1       7.328   6.301  17.458  0.00  0.00    +0.000 A 
ATOM     26  C   UNL     1       6.162   6.280  18.235  0.00  0.00    +0.000 A 
ENDBRANCH   7  21
TORSDOF 2
ENDMDL
MODEL 3
REMARK VINA RESULT:      -7.9      2.292      4.854
REMARK  Name = 
REMARK  4 active torsions:
REMARK  status: ('A' for Active; 'I' for Inactive)
REMARK    1  A    between atoms: C_1  and  C_2
REMARK    2  A    between atoms: C_2  and  C_3
REMARK    3  A    between atoms: N_7  and  C_19
REMARK    4  A    between atoms: N_10  and  C_11
REMARK                            x       y       z     vdW  Elec       q    Type
REMARK                         _______ _______ _______ _____ _____    ______ ____
ROOT
ATOM      1  C   UNL     1       5.148   6.631  15.197  0.00  0.00    +0.000 C 
ATOM      2  C   UNL     1       5.752   6.099  16.500  0.00  0.00    +0.000 C 
ATOM      3  C   UNL     1       7.271   6.253  16.487  0.00  0.00    +0.000 C 
ATOM      4  C   UNL     1       5.330   4.652  16.773  0.00  0.00    +0.000 C 
ATOM      5  N   UNL     1       4.038   4.616  17.485  0.00  0.00    +0.000 NA
ATOM      6  C   UNL     1       3.825   5.717  18.126  0.00  0.00    +0.000 C 
ATOM      7  N   UNL     1       2.708   5.938  18.939  0.00  0.00    +0.000 N 
ATOM      8  C   UNL     1       2.205   7.221  19.258  0.00  0.00    +0.000 C 
ATOM      9  O   UNL     1       1.814   7.511  20.389  0.00  0.00    +0.000 OA
ATOM     10  N   UNL     1       2.135   8.101  18.180  0.00  0.00    +0.000 N 
ATOM     11  S   UNL     1       5.012   6.986  17.902  0.00  0.00    +0.000 S 
ATOM     12  H   UNL     1       2.376   7.721  17.273  0.00  0.00    +0.000 HD
ENDROOT
BRANCH  10  13
ATOM     13  C   UNL     1       1.604   9.407  18.218  0.00  0.00    +0.000 A 
ATOM     14  C   UNL     1       2.400  10.558  18.223  0.00  0.00    +0.000 A 
ATOM     15  C   UNL     1       1.835  11.827  18.338  0.00  0.00    +0.000 A 
ATOM     16  C   UNL     1       0.453  11.969  18.445  0.00  0.00    +0.000 A 
ATOM     17 CL   UNL     1      -0.175  13.569  18.614  0.00  0.00    +0.000 Cl
ATOM     18  C   UNL     1      -0.358  10.833  18.410  0.00  0.00    +0.000 A 
ATOM     19 CL   UNL     1      -2.081  10.930  18.556  0.00  0.00    +0.000 Cl
ATOM     20  C   UNL     1       0.213   9.561  18.284  0.00  0.00    +0.000 A 
ENDBRANCH  10  13
BRANCH   7  21
ATOM     21  C   UNL     1       2.160   4.831  19.714  0.00  0.00    +0.000 A 
ATOM     22  C   UNL     1       2.647   4.549  21.007  0.00  0.00    +0.000 A 
ATOM     23  C   UNL     1       2.192   3.452  21.745  0.00  0.00    +0.000 A 
ATOM     24  C   UNL     1       1.215   2.618  21.216  0.00  0.00    +0.000 A 
ATOM     25  C   UNL     1       0.703   2.881  19.950  0.00  0.00    +0.000 A 
ATOM     26  C   UNL     1       1.170   3.973  19.205  0.00  0.00    +0.000 A 
ENDBRANCH   7  21
TORSDOF 2
ENDMDL
MODEL 4
REMARK VINA RESULT:      -7.6      2.391      4.972
REMARK  Name = 
REMARK  4 active torsions:
REMARK  status: ('A' for Active; 'I' for Inactive)
REMARK    1  A    between atoms: C_1  and  C_2
REMARK    2  A    between atoms: C_2  and  C_3
REMARK    3  A    between atoms: N_7  and  C_19
REMARK    4  A    between atoms: N_10  and  C_11
REMARK                            x       y       z     vdW  Elec       q    Type
REMARK                         _______ _______ _______ _____ _____    ______ ____
ROOT
ATOM      1  C   UNL     1       5.015   6.813  15.245  0.00  0.00    +0.000 C 
ATOM      2  C   UNL     1       5.644   6.251  16.523  0.00  0.00    +0.000 C 
ATOM      3  C   UNL     1       7.161   6.429  16.494  0.00  0.00    +0.000 C 
ATOM      4  C   UNL     1       5.248   4.790  16.756  0.00  0.00    +0.000 C 
ATOM      5  N   UNL     1       3.967   4.712  17.484  0.00  0.00    +0.000 NA
ATOM      6  C   UNL     1       3.746   5.789  18.162  0.00  0.00    +0.000 C 
ATOM      7  N   UNL     1       2.638   5.967  18.996  0.00  0.00    +0.000 N 
ATOM      8  C   UNL     1       2.120   7.232  19.362  0.00  0.00    +0.000 C 
ATOM      9  O   UNL     1       1.741   7.481  20.506  0.00  0.00    +0.000 OA
ATOM     10  N   UNL     1       2.022   8.144  18.313  0.00  0.00    +0.000 N 
ATOM     11  S   UNL     1       4.910   7.082  17.962  0.00  0.00    +0.000 S 
ATOM     12  H   UNL     1       2.255   7.796  17.391  0.00  0.00    +0.000 HD
ENDROOT
BRANCH  10  13
ATOM     13  C   UNL     1       1.471   9.440  18.398  0.00  0.00    +0.000 A 
ATOM     14  C   UNL     1       0.097   9.683  18.507  0.00  0.00    +0.000 A 
ATOM     15  C   UNL     1      -0.409  10.981  18.512  0.00  0.00    +0.000 A 
ATOM     16  C   UNL     1       0.457  12.068  18.412  0.00  0.00    +0.000 A 
ATOM     17 CL   UNL     1      -0.243  13.648  18.394  0.00  0.00    +0.000 Cl
ATOM     18  C   UNL     1       1.833  11.845  18.333  0.00  0.00    +0.000 A 
ATOM     19 CL   UNL     1       2.968  13.145  18.188  0.00  0.00    +0.000 Cl
ATOM     20  C   UNL     1       2.338  10.539  18.340  0.00  0.00    +0.000 A 
ENDBRANCH  10  13
BRANCH   7  21
ATOM     21  C   UNL     1       2.116   4.828  19.744  0.00  0.00    +0.000 A 
ATOM     22  C   UNL     1       2.597   4.538  21.037  0.00  0.00    +0.000 A 
ATOM     23  C   UNL     1       2.170   3.412  21.748  0.00  0.00    +0.000 A 
ATOM     24  C   UNL     1       1.227   2.558  21.192  0.00  0.00    +0.000 A 
ATOM     25  C   UNL     1       0.721   2.829  19.925  0.00  0.00    +0.000 A 
ATOM     26  C   UNL     1       1.161   3.949  19.207  0.00  0.00    +0.000 A 
ENDBRANCH   7  21
TORSDOF 2
ENDMDL
MODEL 5
REMARK VINA RESULT:      -7.2      4.169      6.942
REMARK  Name = 
REMARK  4 active torsions:
REMARK  status: ('A' for Active; 'I' for Inactive)
REMARK    1  A    between atoms: C_1  and  C_2
REMARK    2  A    between atoms: C_2  and  C_3
REMARK    3  A    between atoms: N_7  and  C_19
REMARK    4  A    between atoms: N_10  and  C_11
REMARK                            x       y       z     vdW  Elec       q    Type
REMARK                         _______ _______ _______ _____ _____    ______ ____
ROOT
ATOM      1  C   UNL     1       1.965   1.932  19.180  0.00  0.00    +0.000 C 
ATOM      2  C   UNL     1       2.299   2.866  20.347  0.00  0.00    +0.000 C 
ATOM      3  C   UNL     1       2.731   2.058  21.570  0.00  0.00    +0.000 C 
ATOM      4  C   UNL     1       1.137   3.809  20.671  0.00  0.00    +0.000 C 
ATOM      5  N   UNL     1       1.204   5.019  19.828  0.00  0.00    +0.000 NA
ATOM      6  C   UNL     1       2.408   5.236  19.413  0.00  0.00    +0.000 C 
ATOM      7  N   UNL     1       2.776   6.347  18.648  0.00  0.00    +0.000 N 
ATOM      8  C   UNL     1       3.911   6.385  17.805  0.00  0.00    +0.000 C 
ATOM      9  O   UNL     1       4.646   7.370  17.735  0.00  0.00    +0.000 OA
ATOM     10  N   UNL     1       4.092   5.244  17.024  0.00  0.00    +0.000 N 
ATOM     11  S   UNL     1       3.601   4.022  19.828  0.00  0.00    +0.000 S 
ATOM     12  H   UNL     1       3.364   4.542  17.079  0.00  0.00    +0.000 HD
ENDROOT
BRANCH  10  13
ATOM     13  C   UNL     1       5.098   5.063  16.054  0.00  0.00    +0.000 A 
ATOM     14  C   UNL     1       6.406   5.537  16.208  0.00  0.00    +0.000 A 
ATOM     15  C   UNL     1       7.349   5.402  15.191  0.00  0.00    +0.000 A 
ATOM     16  C   UNL     1       6.999   4.782  13.993  0.00  0.00    +0.000 A 
ATOM     17 CL   UNL     1       8.209   4.677  12.765  0.00  0.00    +0.000 Cl
ATOM     18  C   UNL     1       5.707   4.276  13.833  0.00  0.00    +0.000 A 
ATOM     19 CL   UNL     1       5.195   3.509  12.367  0.00  0.00    +0.000 Cl
ATOM     20  C   UNL     1       4.767   4.404  14.863  0.00  0.00    +0.000 A 
ENDBRANCH  10  13
BRANCH   7  21
ATOM     21  C   UNL     1       2.127   7.631  18.894  0.00  0.00    +0.000 A 
ATOM     22  C   UNL     1       1.798   8.029  20.206  0.00  0.00    +0.000 A 
ATOM     23  C   UNL     1       1.112   9.219  20.466  0.00  0.00    +0.000 A 
ATOM     24  C   UNL     1       0.756  10.057  19.418  0.00  0.00    +0.000 A 
ATOM     25  C   UNL     1       1.082   9.699  18.114  0.00  0.00    +0.000 A 
ATOM     26  C   UNL     1       1.758   8.499  17.853  0.00  0.00    +0.000 A 
ENDBRANCH   7  21
TORSDOF 2
ENDMDL
MODEL 6
REMARK VINA RESULT:      -7.1      4.521      9.358
REMARK  Name = 
REMARK  4 active torsions:
REMARK  status: ('A' for Active; 'I' for Inactive)
REMARK    1  A    between atoms: C_1  and  C_2
REMARK    2  A    between atoms: C_2  and  C_3
REMARK    3  A    between atoms: N_7  and  C_19
REMARK    4  A    between atoms: N_10  and  C_11
REMARK                            x       y       z     vdW  Elec       q    Type
REMARK                         _______ _______ _______ _____ _____    ______ ____
ROOT
ATOM      1  C   UNL     1       3.555  14.259  20.013  0.00  0.00    +0.000 C 
ATOM      2  C   UNL     1       2.237  14.769  19.423  0.00  0.00    +0.000 C 
ATOM      3  C   UNL     1       2.505  15.805  18.333  0.00  0.00    +0.000 C 
ATOM      4  C   UNL     1       1.303  15.316  20.508  0.00  0.00    +0.000 C 
ATOM      5  N   UNL     1       0.494  14.228  21.089  0.00  0.00    +0.000 NA
ATOM      6  C   UNL     1       0.384  13.235  20.270  0.00  0.00    +0.000 C 
ATOM      7  N   UNL     1      -0.379  12.094  20.533  0.00  0.00    +0.000 N 
ATOM      8  C   UNL     1      -0.160  10.838  19.919  0.00  0.00    +0.000 C 
ATOM      9  O   UNL     1      -1.085  10.124  19.531  0.00  0.00    +0.000 OA
ATOM     10  N   UNL     1       1.178  10.455  19.844  0.00  0.00    +0.000 N 
ATOM     11  S   UNL     1       1.290  13.361  18.776  0.00  0.00    +0.000 S 
ATOM     12  H   UNL     1       1.847  11.067  20.296  0.00  0.00    +0.000 HD
ENDROOT
BRANCH  10  13
ATOM     13  C   UNL     1       1.655   9.224  19.349  0.00  0.00    +0.000 A 
ATOM     14  C   UNL     1       2.069   9.039  18.025  0.00  0.00    +0.000 A 
ATOM     15  C   UNL     1       2.461   7.786  17.558  0.00  0.00    +0.000 A 
ATOM     16  C   UNL     1       2.452   6.688  18.415  0.00  0.00    +0.000 A 
ATOM     17 CL   UNL     1       2.922   5.160  17.761  0.00  0.00    +0.000 Cl
ATOM     18  C   UNL     1       2.072   6.860  19.748  0.00  0.00    +0.000 A 
ATOM     19 CL   UNL     1       2.018   5.539  20.866  0.00  0.00    +0.000 Cl
ATOM     20  C   UNL     1       1.688   8.123  20.215  0.00  0.00    +0.000 A 
ENDBRANCH  10  13
BRANCH   7  21
ATOM     21  C   UNL     1      -1.626  12.224  21.280  0.00  0.00    +0.000 A 
ATOM     22  C   UNL     1      -2.797  12.688  20.648  0.00  0.00    +0.000 A 
ATOM     23  C   UNL     1      -3.986  12.891  21.354  0.00  0.00    +0.000 A 
ATOM     24  C   UNL     1      -4.042  12.611  22.713  0.00  0.00    +0.000 A 
ATOM     25  C   UNL     1      -2.906  12.136  23.361  0.00  0.00    +0.000 A 
ATOM     26  C   UNL     1      -1.711  11.946  22.654  0.00  0.00    +0.000 A 
ENDBRANCH   7  21
TORSDOF 2
ENDMDL
MODEL 7
REMARK VINA RESULT:      -7.0      1.034      1.901
REMARK  Name = 
REMARK  4 active torsions:
REMARK  status: ('A' for Active; 'I' for Inactive)
REMARK    1  A    between atoms: C_1  and  C_2
REMARK    2  A    between atoms: C_2  and  C_3
REMARK    3  A    between atoms: N_7  and  C_19
REMARK    4  A    between atoms: N_10  and  C_11
REMARK                            x       y       z     vdW  Elec       q    Type
REMARK                         _______ _______ _______ _____ _____    ______ ____
ROOT
ATOM      1  C   UNL     1       1.239   3.384  20.950  0.00  0.00    +0.000 C 
ATOM      2  C   UNL     1       1.455   3.048  19.471  0.00  0.00    +0.000 C 
ATOM      3  C   UNL     1       0.441   2.004  19.007  0.00  0.00    +0.000 C 
ATOM      4  C   UNL     1       2.894   2.603  19.195  0.00  0.00    +0.000 C 
ATOM      5  N   UNL     1       3.757   3.773  18.941  0.00  0.00    +0.000 NA
ATOM      6  C   UNL     1       3.067   4.784  18.528  0.00  0.00    +0.000 C 
ATOM      7  N   UNL     1       3.632   6.006  18.152  0.00  0.00    +0.000 N 
ATOM      8  C   UNL     1       2.930   7.235  18.154  0.00  0.00    +0.000 C 
ATOM      9  O   UNL     1       3.049   8.062  17.250  0.00  0.00    +0.000 OA
ATOM     10  N   UNL     1       2.145   7.452  19.285  0.00  0.00    +0.000 N 
ATOM     11  S   UNL     1       1.329   4.572  18.490  0.00  0.00    +0.000 S 
ATOM     12  H   UNL     1       2.211   6.756  20.018  0.00  0.00    +0.000 HD
ENDROOT
BRANCH  10  13
ATOM     13  C   UNL     1       1.411   8.623  19.565  0.00  0.00    +0.000 A 
ATOM     14  C   UNL     1       1.427   9.258  20.812  0.00  0.00    +0.000 A 
ATOM     15  C   UNL     1       0.627  10.370  21.067  0.00  0.00    +0.000 A 
ATOM     16  C   UNL     1      -0.207  10.873  20.071  0.00  0.00    +0.000 A 
ATOM     17 CL   UNL     1      -1.193  12.235  20.467  0.00  0.00    +0.000 Cl
ATOM     18  C   UNL     1      -0.213  10.271  18.811  0.00  0.00    +0.000 A 
ATOM     19 CL   UNL     1      -1.236  10.829  17.530  0.00  0.00    +0.000 Cl
ATOM     20  C   UNL     1       0.601   9.160  18.556  0.00  0.00    +0.000 A 
ENDBRANCH  10  13
BRANCH   7  21
ATOM     21  C   UNL     1       4.927   6.019  17.481  0.00  0.00    +0.000 A 
ATOM     22  C   UNL     1       6.057   6.577  18.112  0.00  0.00    +0.000 A 
ATOM     23  C   UNL     1       7.294   6.668  17.466  0.00  0.00    +0.000 A 
ATOM     24  C   UNL     1       7.440   6.179  16.176  0.00  0.00    +0.000 A 
ATOM     25  C   UNL     1       6.347   5.607  15.533  0.00  0.00    +0.000 A 
ATOM     26  C   UNL     1       5.104   5.529  16.176  0.00  0.00    +0.000 A 
ENDBRANCH   7  21
TORSDOF 2
ENDMDL
MODEL 8
REMARK VINA RESULT:      -6.8      1.324      1.816
REMARK  Name = 
REMARK  4 active torsions:
REMARK  status: ('A' for Active; 'I' for Inactive)
REMARK    1  A    between atoms: C_1  and  C_2
REMARK    2  A    between atoms: C_2  and  C_3
REMARK    3  A    between atoms: N_7  and  C_19
REMARK    4  A    between atoms: N_10  and  C_11
REMARK                            x       y       z     vdW  Elec       q    Type
REMARK                         _______ _______ _______ _____ _____    ______ ____
ROOT
ATOM      1  C   UNL     1       1.493   3.795  21.115  0.00  0.00    +0.000 C 
ATOM      2  C   UNL     1       1.625   3.323  19.664  0.00  0.00    +0.000 C 
ATOM      3  C   UNL     1       0.582   2.250  19.354  0.00  0.00    +0.000 C 
ATOM      4  C   UNL     1       3.044   2.842  19.349  0.00  0.00    +0.000 C 
ATOM      5  N   UNL     1       3.896   3.976  18.942  0.00  0.00    +0.000 NA
ATOM      6  C   UNL     1       3.187   4.951  18.476  0.00  0.00    +0.000 C 
ATOM      7  N   UNL     1       3.734   6.129  17.958  0.00  0.00    +0.000 N 
ATOM      8  C   UNL     1       3.038   7.358  17.887  0.00  0.00    +0.000 C 
ATOM      9  O   UNL     1       3.109   8.099  16.906  0.00  0.00    +0.000 OA
ATOM     10  N   UNL     1       2.319   7.686  19.035  0.00  0.00    +0.000 N 
ATOM     11  S   UNL     1       1.449   4.751  18.555  0.00  0.00    +0.000 S 
ATOM     12  H   UNL     1       2.423   7.059  19.824  0.00  0.00    +0.000 HD
ENDROOT
BRANCH  10  13
ATOM     13  C   UNL     1       1.606   8.884  19.246  0.00  0.00    +0.000 A 
ATOM     14  C   UNL     1       0.406   8.944  19.964  0.00  0.00    +0.000 A 
ATOM     15  C   UNL     1      -0.305  10.136  20.084  0.00  0.00    +0.000 A 
ATOM     16  C   UNL     1       0.177  11.300  19.487  0.00  0.00    +0.000 A 
ATOM     17 CL   UNL     1      -0.772  12.734  19.650  0.00  0.00    +0.000 Cl
ATOM     18  C   UNL     1       1.388  11.264  18.793  0.00  0.00    +0.000 A 
ATOM     19 CL   UNL     1       2.040  12.664  18.010  0.00  0.00    +0.000 Cl
ATOM     20  C   UNL     1       2.105  10.066  18.684  0.00  0.00    +0.000 A 
ENDBRANCH  10  13
BRANCH   7  21
ATOM     21  C   UNL     1       4.990   6.068  17.218  0.00  0.00    +0.000 A 
ATOM     22  C   UNL     1       5.058   5.411  15.973  0.00  0.00    +0.000 A 
ATOM     23  C   UNL     1       6.262   5.274  15.275  0.00  0.00    +0.000 A 
ATOM     24  C   UNL     1       7.430   5.814  15.795  0.00  0.00    +0.000 A 
ATOM     25  C   UNL     1       7.391   6.484  17.014  0.00  0.00    +0.000 A 
ATOM     26  C   UNL     1       6.186   6.608  17.720  0.00  0.00    +0.000 A 
ENDBRANCH   7  21
TORSDOF 2
ENDMDL
MODEL 9
REMARK VINA RESULT:      -6.7      4.617      8.986
REMARK  Name = 
REMARK  4 active torsions:
REMARK  status: ('A' for Active; 'I' for Inactive)
REMARK    1  A    between atoms: C_1  and  C_2
REMARK    2  A    between atoms: C_2  and  C_3
REMARK    3  A    between atoms: N_7  and  C_19
REMARK    4  A    between atoms: N_10  and  C_11
REMARK                            x       y       z     vdW  Elec       q    Type
REMARK                         _______ _______ _______ _____ _____    ______ ____
ROOT
ATOM      1  C   UNL     1       2.514  13.755  20.761  0.00  0.00    +0.000 C 
ATOM      2  C   UNL     1       1.983  14.187  19.390  0.00  0.00    +0.000 C 
ATOM      3  C   UNL     1       2.945  15.172  18.731  0.00  0.00    +0.000 C 
ATOM      4  C   UNL     1       0.564  14.756  19.484  0.00  0.00    +0.000 C 
ATOM      5  N   UNL     1      -0.434  13.671  19.407  0.00  0.00    +0.000 NA
ATOM      6  C   UNL     1       0.047  12.633  18.805  0.00  0.00    +0.000 C 
ATOM      7  N   UNL     1      -0.696  11.481  18.535  0.00  0.00    +0.000 N 
ATOM      8  C   UNL     1      -0.125  10.203  18.326  0.00  0.00    +0.000 C 
ATOM      9  O   UNL     1      -0.527   9.437  17.450  0.00  0.00    +0.000 OA
ATOM     10  N   UNL     1       0.884   9.865  19.227  0.00  0.00    +0.000 N 
ATOM     11  S   UNL     1       1.738  12.713  18.357  0.00  0.00    +0.000 S 
ATOM     12  H   UNL     1       1.055  10.523  19.977  0.00  0.00    +0.000 HD
ENDROOT
BRANCH  10  13
ATOM     13  C   UNL     1       1.557   8.628  19.281  0.00  0.00    +0.000 A 
ATOM     14  C   UNL     1       1.428   7.731  20.348  0.00  0.00    +0.000 A 
ATOM     15  C   UNL     1       2.171   6.553  20.396  0.00  0.00    +0.000 A 
ATOM     16  C   UNL     1       3.061   6.246  19.368  0.00  0.00    +0.000 A 
ATOM     17 CL   UNL     1       3.971   4.785  19.510  0.00  0.00    +0.000 Cl
ATOM     18  C   UNL     1       3.180   7.115  18.281  0.00  0.00    +0.000 A 
ATOM     19 CL   UNL     1       4.277   6.809  16.977  0.00  0.00    +0.000 Cl
ATOM     20  C   UNL     1       2.423   8.292  18.232  0.00  0.00    +0.000 A 
ENDBRANCH  10  13
BRANCH   7  21
ATOM     21  C   UNL     1      -2.110  11.605  18.196  0.00  0.00    +0.000 A 
ATOM     22  C   UNL     1      -3.066  11.880  19.195  0.00  0.00    +0.000 A 
ATOM     23  C   UNL     1      -4.434  11.933  18.913  0.00  0.00    +0.000 A 
ATOM     24  C   UNL     1      -4.882  11.735  17.614  0.00  0.00    +0.000 A 
ATOM     25  C   UNL     1      -3.961  11.478  16.604  0.00  0.00    +0.000 A 
ATOM     26  C   UNL     1      -2.591  11.411  16.890  0.00  0.00    +0.000 A 
ENDBRANCH   7  21
TORSDOF 2
ENDMDL
