MODEL 1
REMARK VINA RESULT:      -8.4      0.000      0.000
REMARK  Name = 
REMARK  5 active torsions:
REMARK  status: ('A' for Active; 'I' for Inactive)
REMARK    1  A    between atoms: C_2  and  C_4
REMARK    2  A    between atoms: C_6  and  N_7
REMARK    3  A    between atoms: C_13  and  N_14
REMARK    4  A    between atoms: C_20  and  N_21
REMARK    5  A    between atoms: C_25  and  N_26
REMARK                            x       y       z     vdW  Elec       q    Type
REMARK                         _______ _______ _______ _____ _____    ______ ____
ROOT
ATOM      1  C   UNL     1      -1.702  10.701  18.048  0.00  0.00    +0.000 A 
ATOM      2  C   UNL     1      -0.529   9.914  18.094  0.00  0.00    +0.000 A 
ATOM      3  C   UNL     1       0.358   9.865  19.196  0.00  0.00    +0.000 A 
ATOM      4  C   UNL     1       0.018  10.700  20.273  0.00  0.00    +0.000 A 
ATOM      5  C   UNL     1      -1.144  11.496  20.281  0.00  0.00    +0.000 A 
ATOM      6  C   UNL     1      -1.997  11.469  19.169  0.00  0.00    +0.000 A 
ENDROOT
BRANCH   3   7
ATOM      7  N   UNL     1       1.490   9.044  19.147  0.00  0.00    +0.000 N 
ATOM      8  C   UNL     1       1.981   8.677  17.798  0.00  0.00    +0.000 C 
ATOM      9  C   UNL     1       3.268   7.867  17.892  0.00  0.00    +0.000 C 
ATOM     10  C   UNL     1       2.831   6.568  18.519  0.00  0.00    +0.000 A 
ATOM     11  C   UNL     1       3.044   5.352  17.863  0.00  0.00    +0.000 A 
ATOM     12  C   UNL     1       2.441   4.196  18.344  0.00  0.00    +0.000 A 
ATOM     13  C   UNL     1       1.667   4.263  19.510  0.00  0.00    +0.000 A 
ATOM     14  C   UNL     1       1.472   5.474  20.194  0.00  0.00    +0.000 A 
ATOM     15  C   UNL     1       2.018   6.656  19.672  0.00  0.00    +0.000 A 
ATOM     16  C   UNL     1       1.725   8.045  20.239  0.00  0.00    +0.000 C 
BRANCH  13  17
ATOM     17  N   UNL     1       1.014   3.026  19.977  0.00  0.00    +0.000 N 
ATOM     18  O   UNL     1       1.188   2.683  21.150  0.00  0.00    +0.000 OA
ATOM     19  O   UNL     1       0.330   2.396  19.149  0.00  0.00    +0.000 OA
ENDBRANCH  13  17
ENDBRANCH   3   7
BRANCH   1  21
ATOM     20  N   UNL     1      -2.570  11.522  15.880  0.00  0.00    +0.000 N 
ATOM     21  C   UNL     1      -2.522  10.536  16.814  0.00  0.00    +0.000 C 
ATOM     22  O   UNL     1      -3.129   9.488  16.616  0.00  0.00    +0.000 OA
ATOM     23  H   UNL     1      -3.117  11.333  15.047  0.00  0.00    +0.000 HD
ATOM     24  H   UNL     1      -2.019  12.375  15.878  0.00  0.00    +0.000 HD
ENDBRANCH   1  21
BRANCH   4  25
ATOM     25  N   UNL     1       0.908  10.856  21.409  0.00  0.00    +0.000 N 
ATOM     26  O   UNL     1       1.811  11.698  21.320  0.00  0.00    +0.000 OA
ATOM     27  O   UNL     1       0.639  10.190  22.419  0.00  0.00    +0.000 OA
ENDBRANCH   4  25
BRANCH   6  28
ATOM     28  N   UNL     1      -3.234  12.206  19.277  0.00  0.00    +0.000 N 
ATOM     29  O   UNL     1      -3.267  13.140  20.090  0.00  0.00    +0.000 OA
ATOM     30  O   UNL     1      -4.177  11.817  18.580  0.00  0.00    +0.000 OA
ENDBRANCH   6  28
TORSDOF 5
ENDMDL
MODEL 2
REMARK VINA RESULT:      -7.9      0.617      1.034
REMARK  Name = 
REMARK  5 active torsions:
REMARK  status: ('A' for Active; 'I' for Inactive)
REMARK    1  A    between atoms: C_2  and  C_4
REMARK    2  A    between atoms: C_6  and  N_7
REMARK    3  A    between atoms: C_13  and  N_14
REMARK    4  A    between atoms: C_20  and  N_21
REMARK    5  A    between atoms: C_25  and  N_26
REMARK                            x       y       z     vdW  Elec       q    Type
REMARK                         _______ _______ _______ _____ _____    ______ ____
ROOT
ATOM      1  C   UNL     1      -1.817  10.756  18.121  0.00  0.00    +0.000 A 
ATOM      2  C   UNL     1      -0.626   9.995  18.148  0.00  0.00    +0.000 A 
ATOM      3  C   UNL     1       0.280   9.967  19.235  0.00  0.00    +0.000 A 
ATOM      4  C   UNL     1      -0.058  10.797  20.316  0.00  0.00    +0.000 A 
ATOM      5  C   UNL     1      -1.237  11.568  20.343  0.00  0.00    +0.000 A 
ATOM      6  C   UNL     1      -2.109  11.520  19.246  0.00  0.00    +0.000 A 
ENDROOT
BRANCH   3   7
ATOM      7  N   UNL     1       1.429   9.171  19.167  0.00  0.00    +0.000 N 
ATOM      8  C   UNL     1       1.897   8.802  17.811  0.00  0.00    +0.000 C 
ATOM      9  C   UNL     1       3.204   8.021  17.883  0.00  0.00    +0.000 C 
ATOM     10  C   UNL     1       2.810   6.719  18.532  0.00  0.00    +0.000 A 
ATOM     11  C   UNL     1       3.035   5.502  17.883  0.00  0.00    +0.000 A 
ATOM     12  C   UNL     1       2.468   4.338  18.388  0.00  0.00    +0.000 A 
ATOM     13  C   UNL     1       1.720   4.399  19.571  0.00  0.00    +0.000 A 
ATOM     14  C   UNL     1       1.514   5.612  20.248  0.00  0.00    +0.000 A 
ATOM     15  C   UNL     1       2.022   6.800  19.702  0.00  0.00    +0.000 A 
ATOM     16  C   UNL     1       1.711   8.189  20.263  0.00  0.00    +0.000 C 
BRANCH  13  17
ATOM     17  N   UNL     1       1.106   3.153  20.064  0.00  0.00    +0.000 N 
ATOM     18  O   UNL     1       0.551   2.414  19.247  0.00  0.00    +0.000 OA
ATOM     19  O   UNL     1       1.179   2.928  21.287  0.00  0.00    +0.000 OA
ENDBRANCH  13  17
ENDBRANCH   3   7
BRANCH   1  21
ATOM     20  N   UNL     1      -3.589   9.586  16.849  0.00  0.00    +0.000 N 
ATOM     21  C   UNL     1      -2.654  10.571  16.902  0.00  0.00    +0.000 C 
ATOM     22  O   UNL     1      -2.532  11.337  15.952  0.00  0.00    +0.000 OA
ATOM     23  H   UNL     1      -4.150   9.536  16.006  0.00  0.00    +0.000 HD
ATOM     24  H   UNL     1      -3.860   8.973  17.613  0.00  0.00    +0.000 HD
ENDBRANCH   1  21
BRANCH   4  25
ATOM     25  N   UNL     1       0.847  10.975  21.436  0.00  0.00    +0.000 N 
ATOM     26  O   UNL     1       0.691  10.243  22.423  0.00  0.00    +0.000 OA
ATOM     27  O   UNL     1       1.767  11.791  21.281  0.00  0.00    +0.000 OA
ENDBRANCH   4  25
BRANCH   6  28
ATOM     28  N   UNL     1      -3.359  12.231  19.374  0.00  0.00    +0.000 N 
ATOM     29  O   UNL     1      -3.354  13.269  20.049  0.00  0.00    +0.000 OA
ATOM     30  O   UNL     1      -4.347  11.721  18.835  0.00  0.00    +0.000 OA
ENDBRANCH   6  28
TORSDOF 5
ENDMDL
MODEL 3
REMARK VINA RESULT:      -7.8      0.891      1.098
REMARK  Name = 
REMARK  5 active torsions:
REMARK  status: ('A' for Active; 'I' for Inactive)
REMARK    1  A    between atoms: C_2  and  C_4
REMARK    2  A    between atoms: C_6  and  N_7
REMARK    3  A    between atoms: C_13  and  N_14
REMARK    4  A    between atoms: C_20  and  N_21
REMARK    5  A    between atoms: C_25  and  N_26
REMARK                            x       y       z     vdW  Elec       q    Type
REMARK                         _______ _______ _______ _____ _____    ______ ____
ROOT
ATOM      1  C   UNL     1      -2.118  10.346  18.130  0.00  0.00    +0.000 A 
ATOM      2  C   UNL     1      -0.878   9.670  18.173  0.00  0.00    +0.000 A 
ATOM      3  C   UNL     1       0.232  10.084  18.948  0.00  0.00    +0.000 A 
ATOM      4  C   UNL     1       0.043  11.271  19.674  0.00  0.00    +0.000 A 
ATOM      5  C   UNL     1      -1.175  11.978  19.672  0.00  0.00    +0.000 A 
ATOM      6  C   UNL     1      -2.246  11.491  18.909  0.00  0.00    +0.000 A 
ENDROOT
BRANCH   3   7
ATOM      7  N   UNL     1       1.414   9.337  18.930  0.00  0.00    +0.000 N 
ATOM      8  C   UNL     1       1.820   8.773  17.621  0.00  0.00    +0.000 C 
ATOM      9  C   UNL     1       3.168   8.071  17.728  0.00  0.00    +0.000 C 
ATOM     10  C   UNL     1       2.883   6.876  18.601  0.00  0.00    +0.000 A 
ATOM     11  C   UNL     1       3.134   5.580  18.139  0.00  0.00    +0.000 A 
ATOM     12  C   UNL     1       2.661   4.490  18.860  0.00  0.00    +0.000 A 
ATOM     13  C   UNL     1       1.982   4.710  20.066  0.00  0.00    +0.000 A 
ATOM     14  C   UNL     1       1.753   6.006  20.555  0.00  0.00    +0.000 A 
ATOM     15  C   UNL     1       2.163   7.112  19.793  0.00  0.00    +0.000 A 
ATOM     16  C   UNL     1       1.813   8.558  20.146  0.00  0.00    +0.000 C 
BRANCH  13  17
ATOM     17  N   UNL     1       1.466   3.535  20.792  0.00  0.00    +0.000 N 
ATOM     18  O   UNL     1       1.871   3.336  21.940  0.00  0.00    +0.000 OA
ATOM     19  O   UNL     1       0.653   2.808  20.191  0.00  0.00    +0.000 OA
ENDBRANCH  13  17
ENDBRANCH   3   7
BRANCH   1  21
ATOM     20  N   UNL     1      -3.224   9.896  15.961  0.00  0.00    +0.000 N 
ATOM     21  C   UNL     1      -3.167   9.685  17.303  0.00  0.00    +0.000 C 
ATOM     22  O   UNL     1      -3.963   8.912  17.825  0.00  0.00    +0.000 OA
ATOM     23  H   UNL     1      -3.939   9.389  15.451  0.00  0.00    +0.000 HD
ATOM     24  H   UNL     1      -2.551  10.416  15.406  0.00  0.00    +0.000 HD
ENDBRANCH   1  21
BRANCH   4  25
ATOM     25  N   UNL     1       1.139  11.887  20.400  0.00  0.00    +0.000 N 
ATOM     26  O   UNL     1       1.927  12.594  19.758  0.00  0.00    +0.000 OA
ATOM     27  O   UNL     1       1.148  11.726  21.629  0.00  0.00    +0.000 OA
ENDBRANCH   4  25
BRANCH   6  28
ATOM     28  N   UNL     1      -3.507  12.182  19.037  0.00  0.00    +0.000 N 
ATOM     29  O   UNL     1      -4.253  12.186  18.048  0.00  0.00    +0.000 OA
ATOM     30  O   UNL     1      -3.723  12.753  20.111  0.00  0.00    +0.000 OA
ENDBRANCH   6  28
TORSDOF 5
ENDMDL
MODEL 4
REMARK VINA RESULT:      -7.7      2.432      7.846
REMARK  Name = 
REMARK  5 active torsions:
REMARK  status: ('A' for Active; 'I' for Inactive)
REMARK    1  A    between atoms: C_2  and  C_4
REMARK    2  A    between atoms: C_6  and  N_7
REMARK    3  A    between atoms: C_13  and  N_14
REMARK    4  A    between atoms: C_20  and  N_21
REMARK    5  A    between atoms: C_25  and  N_26
REMARK                            x       y       z     vdW  Elec       q    Type
REMARK                         _______ _______ _______ _____ _____    ______ ____
ROOT
ATOM      1  C   UNL     1       1.938   3.862  19.227  0.00  0.00    +0.000 A 
ATOM      2  C   UNL     1       1.800   5.241  19.506  0.00  0.00    +0.000 A 
ATOM      3  C   UNL     1       2.593   6.258  18.923  0.00  0.00    +0.000 A 
ATOM      4  C   UNL     1       3.592   5.806  18.045  0.00  0.00    +0.000 A 
ATOM      5  C   UNL     1       3.766   4.445  17.726  0.00  0.00    +0.000 A 
ATOM      6  C   UNL     1       2.920   3.494  18.313  0.00  0.00    +0.000 A 
ENDROOT
BRANCH   3   7
ATOM      7  N   UNL     1       2.369   7.597  19.258  0.00  0.00    +0.000 N 
ATOM      8  C   UNL     1       1.732   7.852  20.572  0.00  0.00    +0.000 C 
ATOM      9  C   UNL     1       1.639   9.348  20.848  0.00  0.00    +0.000 C 
ATOM     10  C   UNL     1       0.646   9.840  19.827  0.00  0.00    +0.000 A 
ATOM     11  C   UNL     1      -0.523  10.495  20.226  0.00  0.00    +0.000 A 
ATOM     12  C   UNL     1      -1.526  10.740  19.295  0.00  0.00    +0.000 A 
ATOM     13  C   UNL     1      -1.324  10.371  17.959  0.00  0.00    +0.000 A 
ATOM     14  C   UNL     1      -0.140   9.742  17.541  0.00  0.00    +0.000 A 
ATOM     15  C   UNL     1       0.843   9.425  18.491  0.00  0.00    +0.000 A 
ATOM     16  C   UNL     1       2.086   8.592  18.174  0.00  0.00    +0.000 C 
BRANCH  13  17
ATOM     17  N   UNL     1      -2.418  10.616  17.003  0.00  0.00    +0.000 N 
ATOM     18  O   UNL     1      -3.166  11.576  17.207  0.00  0.00    +0.000 OA
ATOM     19  O   UNL     1      -2.525   9.826  16.046  0.00  0.00    +0.000 OA
ENDBRANCH  13  17
ENDBRANCH   3   7
BRANCH   1  21
ATOM     20  N   UNL     1       0.933   2.856  21.253  0.00  0.00    +0.000 N 
ATOM     21  C   UNL     1       0.942   2.981  19.900  0.00  0.00    +0.000 C 
ATOM     22  O   UNL     1       0.096   2.392  19.235  0.00  0.00    +0.000 OA
ATOM     23  H   UNL     1       0.208   2.269  21.651  0.00  0.00    +0.000 HD
ATOM     24  H   UNL     1       1.503   3.383  21.909  0.00  0.00    +0.000 HD
ENDBRANCH   1  21
BRANCH   4  25
ATOM     25  N   UNL     1       4.567   6.724  17.485  0.00  0.00    +0.000 N 
ATOM     26  O   UNL     1       5.576   6.971  18.159  0.00  0.00    +0.000 OA
ATOM     27  O   UNL     1       4.354   7.122  16.331  0.00  0.00    +0.000 OA
ENDBRANCH   4  25
BRANCH   6  28
ATOM     28  N   UNL     1       3.059   2.129  17.861  0.00  0.00    +0.000 N 
ATOM     29  O   UNL     1       2.396   1.791  16.872  0.00  0.00    +0.000 OA
ATOM     30  O   UNL     1       3.796   1.394  18.527  0.00  0.00    +0.000 OA
ENDBRANCH   6  28
TORSDOF 5
ENDMDL
MODEL 5
REMARK VINA RESULT:      -7.6      2.464      7.830
REMARK  Name = 
REMARK  5 active torsions:
REMARK  status: ('A' for Active; 'I' for Inactive)
REMARK    1  A    between atoms: C_2  and  C_4
REMARK    2  A    between atoms: C_6  and  N_7
REMARK    3  A    between atoms: C_13  and  N_14
REMARK    4  A    between atoms: C_20  and  N_21
REMARK    5  A    between atoms: C_25  and  N_26
REMARK                            x       y       z     vdW  Elec       q    Type
REMARK                         _______ _______ _______ _____ _____    ______ ____
ROOT
ATOM      1  C   UNL     1       2.355   4.294  19.910  0.00  0.00    +0.000 A 
ATOM      2  C   UNL     1       2.068   5.677  19.938  0.00  0.00    +0.000 A 
ATOM      3  C   UNL     1       2.671   6.637  19.090  0.00  0.00    +0.000 A 
ATOM      4  C   UNL     1       3.637   6.128  18.207  0.00  0.00    +0.000 A 
ATOM      5  C   UNL     1       3.954   4.758  18.132  0.00  0.00    +0.000 A 
ATOM      6  C   UNL     1       3.291   3.858  18.978  0.00  0.00    +0.000 A 
ENDROOT
BRANCH   3   7
ATOM      7  N   UNL     1       2.310   7.984  19.191  0.00  0.00    +0.000 N 
ATOM      8  C   UNL     1       1.689   8.408  20.468  0.00  0.00    +0.000 C 
ATOM      9  C   UNL     1       1.438   9.911  20.475  0.00  0.00    +0.000 C 
ATOM     10  C   UNL     1       0.365  10.102  19.434  0.00  0.00    +0.000 A 
ATOM     11  C   UNL     1      -0.857  10.693  19.768  0.00  0.00    +0.000 A 
ATOM     12  C   UNL     1      -1.909  10.658  18.861  0.00  0.00    +0.000 A 
ATOM     13  C   UNL     1      -1.709  10.072  17.604  0.00  0.00    +0.000 A 
ATOM     14  C   UNL     1      -0.476   9.503  17.246  0.00  0.00    +0.000 A 
ATOM     15  C   UNL     1       0.566   9.470  18.186  0.00  0.00    +0.000 A 
ATOM     16  C   UNL     1       1.884   8.727  17.961  0.00  0.00    +0.000 C 
BRANCH  13  17
ATOM     17  N   UNL     1      -2.853  10.022  16.676  0.00  0.00    +0.000 N 
ATOM     18  O   UNL     1      -2.680   9.512  15.566  0.00  0.00    +0.000 OA
ATOM     19  O   UNL     1      -3.928  10.510  17.071  0.00  0.00    +0.000 OA
ENDBRANCH  13  17
ENDBRANCH   3   7
BRANCH   1  21
ATOM     20  N   UNL     1       0.402   2.859  20.417  0.00  0.00    +0.000 N 
ATOM     21  C   UNL     1       1.543   3.463  20.843  0.00  0.00    +0.000 C 
ATOM     22  O   UNL     1       1.923   3.286  21.996  0.00  0.00    +0.000 OA
ATOM     23  H   UNL     1      -0.085   2.279  21.091  0.00  0.00    +0.000 HD
ATOM     24  H   UNL     1       0.055   2.836  19.462  0.00  0.00    +0.000 HD
ENDBRANCH   1  21
BRANCH   4  25
ATOM     25  N   UNL     1       4.435   7.015  17.379  0.00  0.00    +0.000 N 
ATOM     26  O   UNL     1       5.458   7.501  17.878  0.00  0.00    +0.000 OA
ATOM     27  O   UNL     1       4.073   7.147  16.201  0.00  0.00    +0.000 OA
ENDBRANCH   4  25
BRANCH   6  28
ATOM     28  N   UNL     1       3.561   2.453  18.778  0.00  0.00    +0.000 N 
ATOM     29  O   UNL     1       2.952   1.885  17.862  0.00  0.00    +0.000 OA
ATOM     30  O   UNL     1       4.347   1.920  19.567  0.00  0.00    +0.000 OA
ENDBRANCH   6  28
TORSDOF 5
ENDMDL
MODEL 6
REMARK VINA RESULT:      -7.5      5.665      9.103
REMARK  Name = 
REMARK  5 active torsions:
REMARK  status: ('A' for Active; 'I' for Inactive)
REMARK    1  A    between atoms: C_2  and  C_4
REMARK    2  A    between atoms: C_6  and  N_7
REMARK    3  A    between atoms: C_13  and  N_14
REMARK    4  A    between atoms: C_20  and  N_21
REMARK    5  A    between atoms: C_25  and  N_26
REMARK                            x       y       z     vdW  Elec       q    Type
REMARK                         _______ _______ _______ _____ _____    ______ ____
ROOT
ATOM      1  C   UNL     1       6.152   3.876  13.958  0.00  0.00    +0.000 A 
ATOM      2  C   UNL     1       5.486   3.539  15.158  0.00  0.00    +0.000 A 
ATOM      3  C   UNL     1       5.857   4.015  16.439  0.00  0.00    +0.000 A 
ATOM      4  C   UNL     1       6.990   4.845  16.462  0.00  0.00    +0.000 A 
ATOM      5  C   UNL     1       7.683   5.219  15.294  0.00  0.00    +0.000 A 
ATOM      6  C   UNL     1       7.239   4.739  14.054  0.00  0.00    +0.000 A 
ENDROOT
BRANCH   3   7
ATOM      7  N   UNL     1       5.125   3.629  17.567  0.00  0.00    +0.000 N 
ATOM      8  C   UNL     1       3.863   2.894  17.316  0.00  0.00    +0.000 C 
ATOM      9  C   UNL     1       3.223   2.453  18.626  0.00  0.00    +0.000 C 
ATOM     10  C   UNL     1       2.803   3.747  19.275  0.00  0.00    +0.000 A 
ATOM     11  C   UNL     1       1.465   3.975  19.612  0.00  0.00    +0.000 A 
ATOM     12  C   UNL     1       1.060   5.247  19.998  0.00  0.00    +0.000 A 
ATOM     13  C   UNL     1       2.013   6.270  20.090  0.00  0.00    +0.000 A 
ATOM     14  C   UNL     1       3.365   6.044  19.784  0.00  0.00    +0.000 A 
ATOM     15  C   UNL     1       3.765   4.781  19.323  0.00  0.00    +0.000 A 
ATOM     16  C   UNL     1       5.170   4.478  18.801  0.00  0.00    +0.000 C 
BRANCH  13  17
ATOM     17  N   UNL     1       1.547   7.615  20.472  0.00  0.00    +0.000 N 
ATOM     18  O   UNL     1       1.030   7.759  21.583  0.00  0.00    +0.000 OA
ATOM     19  O   UNL     1       1.697   8.527  19.638  0.00  0.00    +0.000 OA
ENDBRANCH  13  17
ENDBRANCH   3   7
BRANCH   1  21
ATOM     20  N   UNL     1       6.126   2.280  12.066  0.00  0.00    +0.000 N 
ATOM     21  C   UNL     1       5.539   3.317  12.720  0.00  0.00    +0.000 C 
ATOM     22  O   UNL     1       4.475   3.766  12.306  0.00  0.00    +0.000 OA
ATOM     23  H   UNL     1       5.640   1.924  11.251  0.00  0.00    +0.000 HD
ATOM     24  H   UNL     1       6.936   1.754  12.379  0.00  0.00    +0.000 HD
ENDBRANCH   1  21
BRANCH   4  25
ATOM     25  N   UNL     1       7.565   5.291  17.718  0.00  0.00    +0.000 N 
ATOM     26  O   UNL     1       8.210   4.467  18.379  0.00  0.00    +0.000 OA
ATOM     27  O   UNL     1       7.438   6.494  17.988  0.00  0.00    +0.000 OA
ENDBRANCH   4  25
BRANCH   6  28
ATOM     28  N   UNL     1       7.907   5.247  12.880  0.00  0.00    +0.000 N 
ATOM     29  O   UNL     1       8.807   6.080  13.057  0.00  0.00    +0.000 OA
ATOM     30  O   UNL     1       7.497   4.843  11.787  0.00  0.00    +0.000 OA
ENDBRANCH   6  28
TORSDOF 5
ENDMDL
MODEL 7
REMARK VINA RESULT:      -7.3      1.525      1.954
REMARK  Name = 
REMARK  5 active torsions:
REMARK  status: ('A' for Active; 'I' for Inactive)
REMARK    1  A    between atoms: C_2  and  C_4
REMARK    2  A    between atoms: C_6  and  N_7
REMARK    3  A    between atoms: C_13  and  N_14
REMARK    4  A    between atoms: C_20  and  N_21
REMARK    5  A    between atoms: C_25  and  N_26
REMARK                            x       y       z     vdW  Elec       q    Type
REMARK                         _______ _______ _______ _____ _____    ______ ____
ROOT
ATOM      1  C   UNL     1      -3.107  11.459  18.891  0.00  0.00    +0.000 A 
ATOM      2  C   UNL     1      -1.803  10.933  18.748  0.00  0.00    +0.000 A 
ATOM      3  C   UNL     1      -0.780  11.060  19.718  0.00  0.00    +0.000 A 
ATOM      4  C   UNL     1      -1.129  11.798  20.861  0.00  0.00    +0.000 A 
ATOM      5  C   UNL     1      -2.417  12.335  21.056  0.00  0.00    +0.000 A 
ATOM      6  C   UNL     1      -3.394  12.140  20.069  0.00  0.00    +0.000 A 
ENDROOT
BRANCH   3   7
ATOM      7  N   UNL     1       0.478  10.493  19.486  0.00  0.00    +0.000 N 
ATOM      8  C   UNL     1       0.782  10.113  18.086  0.00  0.00    +0.000 C 
ATOM      9  C   UNL     1       2.212   9.602  17.963  0.00  0.00    +0.000 C 
ATOM     10  C   UNL     1       2.199   8.305  18.730  0.00  0.00    +0.000 A 
ATOM     11  C   UNL     1       2.554   7.104  18.108  0.00  0.00    +0.000 A 
ATOM     12  C   UNL     1       2.323   5.898  18.758  0.00  0.00    +0.000 A 
ATOM     13  C   UNL     1       1.782   5.910  20.050  0.00  0.00    +0.000 A 
ATOM     14  C   UNL     1       1.451   7.112  20.697  0.00  0.00    +0.000 A 
ATOM     15  C   UNL     1       1.613   8.328  20.016  0.00  0.00    +0.000 A 
ATOM     16  C   UNL     1       1.126   9.673  20.558  0.00  0.00    +0.000 C 
BRANCH  13  17
ATOM     17  N   UNL     1       1.519   4.614  20.701  0.00  0.00    +0.000 N 
ATOM     18  O   UNL     1       2.253   4.270  21.631  0.00  0.00    +0.000 OA
ATOM     19  O   UNL     1       0.570   3.939  20.261  0.00  0.00    +0.000 OA
ENDBRANCH  13  17
ENDBRANCH   3   7
BRANCH   1  21
ATOM     20  N   UNL     1      -4.403  12.093  16.878  0.00  0.00    +0.000 N 
ATOM     21  C   UNL     1      -4.041  11.137  17.774  0.00  0.00    +0.000 C 
ATOM     22  O   UNL     1      -4.458   9.992  17.634  0.00  0.00    +0.000 OA
ATOM     23  H   UNL     1      -5.012  11.801  16.123  0.00  0.00    +0.000 HD
ATOM     24  H   UNL     1      -4.031  13.037  16.824  0.00  0.00    +0.000 HD
ENDBRANCH   1  21
BRANCH   4  25
ATOM     25  N   UNL     1      -0.140  12.126  21.871  0.00  0.00    +0.000 N 
ATOM     26  O   UNL     1      -0.178  11.498  22.938  0.00  0.00    +0.000 OA
ATOM     27  O   UNL     1       0.724  12.954  21.551  0.00  0.00    +0.000 OA
ENDBRANCH   4  25
BRANCH   6  28
ATOM     28  N   UNL     1      -4.728  12.603  20.370  0.00  0.00    +0.000 N 
ATOM     29  O   UNL     1      -5.318  12.053  21.310  0.00  0.00    +0.000 OA
ATOM     30  O   UNL     1      -5.191  13.481  19.636  0.00  0.00    +0.000 OA
ENDBRANCH   6  28
TORSDOF 5
ENDMDL
MODEL 8
REMARK VINA RESULT:      -7.3      3.868      8.378
REMARK  Name = 
REMARK  5 active torsions:
REMARK  status: ('A' for Active; 'I' for Inactive)
REMARK    1  A    between atoms: C_2  and  C_4
REMARK    2  A    between atoms: C_6  and  N_7
REMARK    3  A    between atoms: C_13  and  N_14
REMARK    4  A    between atoms: C_20  and  N_21
REMARK    5  A    between atoms: C_25  and  N_26
REMARK                            x       y       z     vdW  Elec       q    Type
REMARK                         _______ _______ _______ _____ _____    ______ ____
ROOT
ATOM      1  C   UNL     1       6.632   6.642  18.090  0.00  0.00    +0.000 A 
ATOM      2  C   UNL     1       5.323   7.173  18.051  0.00  0.00    +0.000 A 
ATOM      3  C   UNL     1       4.147   6.417  18.275  0.00  0.00    +0.000 A 
ATOM      4  C   UNL     1       4.354   5.048  18.511  0.00  0.00    +0.000 A 
ATOM      5  C   UNL     1       5.638   4.471  18.570  0.00  0.00    +0.000 A 
ATOM      6  C   UNL     1       6.761   5.287  18.374  0.00  0.00    +0.000 A 
ENDROOT
BRANCH   3   7
ATOM      7  N   UNL     1       2.896   7.040  18.224  0.00  0.00    +0.000 N 
ATOM      8  C   UNL     1       2.854   8.390  17.614  0.00  0.00    +0.000 C 
ATOM      9  C   UNL     1       1.422   8.905  17.537  0.00  0.00    +0.000 C 
ATOM     10  C   UNL     1       1.035   9.112  18.978  0.00  0.00    +0.000 A 
ATOM     11  C   UNL     1       0.626  10.369  19.434  0.00  0.00    +0.000 A 
ATOM     12  C   UNL     1       0.490  10.595  20.798  0.00  0.00    +0.000 A 
ATOM     13  C   UNL     1       0.719   9.541  21.692  0.00  0.00    +0.000 A 
ATOM     14  C   UNL     1       1.100   8.266  21.243  0.00  0.00    +0.000 A 
ATOM     15  C   UNL     1       1.310   8.053  19.873  0.00  0.00    +0.000 A 
ATOM     16  C   UNL     1       1.888   6.759  19.297  0.00  0.00    +0.000 C 
BRANCH  13  17
ATOM     17  N   UNL     1       0.598   9.821  23.134  0.00  0.00    +0.000 N 
ATOM     18  O   UNL     1      -0.381  10.465  23.523  0.00  0.00    +0.000 OA
ATOM     19  O   UNL     1       1.503   9.394  23.875  0.00  0.00    +0.000 OA
ENDBRANCH  13  17
ENDBRANCH   3   7
BRANCH   1  21
ATOM     20  N   UNL     1       8.554   7.962  18.925  0.00  0.00    +0.000 N 
ATOM     21  C   UNL     1       7.722   7.641  17.899  0.00  0.00    +0.000 C 
ATOM     22  O   UNL     1       7.900   8.151  16.797  0.00  0.00    +0.000 OA
ATOM     23  H   UNL     1       9.296   8.621  18.719  0.00  0.00    +0.000 HD
ATOM     24  H   UNL     1       8.578   7.519  19.839  0.00  0.00    +0.000 HD
ENDBRANCH   1  21
BRANCH   4  25
ATOM     25  N   UNL     1       3.235   4.130  18.618  0.00  0.00    +0.000 N 
ATOM     26  O   UNL     1       2.675   3.782  17.570  0.00  0.00    +0.000 OA
ATOM     27  O   UNL     1       2.982   3.695  19.751  0.00  0.00    +0.000 OA
ENDBRANCH   4  25
BRANCH   6  28
ATOM     28  N   UNL     1       8.054   4.673  18.565  0.00  0.00    +0.000 N 
ATOM     29  O   UNL     1       8.645   4.917  19.626  0.00  0.00    +0.000 OA
ATOM     30  O   UNL     1       8.489   3.989  17.633  0.00  0.00    +0.000 OA
ENDBRANCH   6  28
TORSDOF 5
ENDMDL
MODEL 9
REMARK VINA RESULT:      -7.1      5.426      9.306
REMARK  Name = 
REMARK  5 active torsions:
REMARK  status: ('A' for Active; 'I' for Inactive)
REMARK    1  A    between atoms: C_2  and  C_4
REMARK    2  A    between atoms: C_6  and  N_7
REMARK    3  A    between atoms: C_13  and  N_14
REMARK    4  A    between atoms: C_20  and  N_21
REMARK    5  A    between atoms: C_25  and  N_26
REMARK                            x       y       z     vdW  Elec       q    Type
REMARK                         _______ _______ _______ _____ _____    ______ ____
ROOT
ATOM      1  C   UNL     1      -2.891  11.978  18.665  0.00  0.00    +0.000 A 
ATOM      2  C   UNL     1      -3.452  12.503  19.851  0.00  0.00    +0.000 A 
ATOM      3  C   UNL     1      -4.822  12.415  20.194  0.00  0.00    +0.000 A 
ATOM      4  C   UNL     1      -5.637  11.787  19.239  0.00  0.00    +0.000 A 
ATOM      5  C   UNL     1      -5.127  11.239  18.046  0.00  0.00    +0.000 A 
ATOM      6  C   UNL     1      -3.752  11.330  17.787  0.00  0.00    +0.000 A 
ENDROOT
BRANCH   3   7
ATOM      7  N   UNL     1      -5.278  12.959  21.400  0.00  0.00    +0.000 N 
ATOM      8  C   UNL     1      -5.880  14.312  21.329  0.00  0.00    +0.000 C 
ATOM      9  C   UNL     1      -6.418  14.737  22.690  0.00  0.00    +0.000 C 
ATOM     10  C   UNL     1      -5.178  14.901  23.531  0.00  0.00    +0.000 A 
ATOM     11  C   UNL     1      -4.889  16.124  24.144  0.00  0.00    +0.000 A 
ATOM     12  C   UNL     1      -3.642  16.325  24.725  0.00  0.00    +0.000 A 
ATOM     13  C   UNL     1      -2.713  15.276  24.729  0.00  0.00    +0.000 A 
ATOM     14  C   UNL     1      -3.006  14.033  24.145  0.00  0.00    +0.000 A 
ATOM     15  C   UNL     1      -4.234  13.851  23.492  0.00  0.00    +0.000 A 
ATOM     16  C   UNL     1      -4.583  12.603  22.679  0.00  0.00    +0.000 C 
BRANCH  13  17
ATOM     17  N   UNL     1      -1.389  15.529  25.325  0.00  0.00    +0.000 N 
ATOM     18  O   UNL     1      -0.388  15.259  24.655  0.00  0.00    +0.000 OA
ATOM     19  O   UNL     1      -1.364  15.995  26.479  0.00  0.00    +0.000 OA
ENDBRANCH  13  17
ENDBRANCH   3   7
BRANCH   1  21
ATOM     20  N   UNL     1      -0.869  13.074  17.748  0.00  0.00    +0.000 N 
ATOM     21  C   UNL     1      -1.412  12.122  18.552  0.00  0.00    +0.000 C 
ATOM     22  O   UNL     1      -0.673  11.404  19.218  0.00  0.00    +0.000 OA
ATOM     23  H   UNL     1       0.142  13.142  17.742  0.00  0.00    +0.000 HD
ATOM     24  H   UNL     1      -1.377  13.797  17.246  0.00  0.00    +0.000 HD
ENDBRANCH   1  21
BRANCH   4  25
ATOM     25  N   UNL     1      -7.080  11.750  19.393  0.00  0.00    +0.000 N 
ATOM     26  O   UNL     1      -7.748  12.564  18.742  0.00  0.00    +0.000 OA
ATOM     27  O   UNL     1      -7.538  10.844  20.103  0.00  0.00    +0.000 OA
ENDBRANCH   4  25
BRANCH   6  28
ATOM     28  N   UNL     1      -3.262  10.648  16.612  0.00  0.00    +0.000 N 
ATOM     29  O   UNL     1      -3.401  11.223  15.525  0.00  0.00    +0.000 OA
ATOM     30  O   UNL     1      -2.782   9.522  16.782  0.00  0.00    +0.000 OA
ENDBRANCH   6  28
TORSDOF 5
ENDMDL
