MODEL 1
REMARK VINA RESULT:      -5.6      0.000      0.000
REMARK  Name = 
REMARK  2 active torsions:
REMARK  status: ('A' for Active; 'I' for Inactive)
REMARK    1  A    between atoms: C_1  and  C_2
REMARK    2  A    between atoms: C_7  and  N_8
REMARK                            x       y       z     vdW  Elec       q    Type
REMARK                         _______ _______ _______ _____ _____    ______ ____
ROOT
ATOM      1  C   UNL     1       3.069   2.397  18.098  0.00  0.00    +0.000 C 
ATOM      2  C   UNL     1       4.169   3.401  18.067  0.00  0.00    +0.000 A 
ATOM      3  C   UNL     1       5.045   3.764  19.081  0.00  0.00    +0.000 A 
ATOM      4  C   UNL     1       5.941   4.754  18.631  0.00  0.00    +0.000 A 
ATOM      5  C   UNL     1       5.740   5.092  17.323  0.00  0.00    +0.000 A 
ATOM      6  S   UNL     1       4.462   4.283  16.607  0.00  0.00    +0.000 S 
ATOM      7  C   UNL     1       6.664   6.130  16.800  0.00  0.00    +0.000 C 
ATOM      8  C   UNL     1       7.556   6.453  18.046  0.00  0.00    +0.000 C 
ATOM      9  C   UNL     1       7.033   5.531  19.155  0.00  0.00    +0.000 C 
ATOM     10  O   UNL     1       7.472   5.468  20.295  0.00  0.00    +0.000 OA
ENDROOT
BRANCH   7  11
ATOM     11  N   UNL     1       7.442   5.640  15.669  0.00  0.00    +0.000 NA
ATOM     12  H   UNL     1       8.342   5.283  15.988  0.00  0.00    +0.000 HD
ATOM     13  H   UNL     1       7.642   6.400  15.023  0.00  0.00    +0.000 HD
ENDBRANCH   7  11
TORSDOF 1
ENDMDL
MODEL 2
REMARK VINA RESULT:      -5.5      3.124      4.694
REMARK  Name = 
REMARK  2 active torsions:
REMARK  status: ('A' for Active; 'I' for Inactive)
REMARK    1  A    between atoms: C_1  and  C_2
REMARK    2  A    between atoms: C_7  and  N_8
REMARK                            x       y       z     vdW  Elec       q    Type
REMARK                         _______ _______ _______ _____ _____    ______ ____
ROOT
ATOM      1  C   UNL     1       6.405   6.978  17.201  0.00  0.00    +0.000 C 
ATOM      2  C   UNL     1       5.545   5.849  17.655  0.00  0.00    +0.000 A 
ATOM      3  C   UNL     1       4.447   5.283  17.021  0.00  0.00    +0.000 A 
ATOM      4  C   UNL     1       3.920   4.228  17.794  0.00  0.00    +0.000 A 
ATOM      5  C   UNL     1       4.620   4.017  18.947  0.00  0.00    +0.000 A 
ATOM      6  S   UNL     1       5.889   5.085  19.169  0.00  0.00    +0.000 S 
ATOM      7  C   UNL     1       4.104   2.912  19.794  0.00  0.00    +0.000 C 
ATOM      8  C   UNL     1       2.872   2.400  18.974  0.00  0.00    +0.000 C 
ATOM      9  C   UNL     1       2.836   3.285  17.722  0.00  0.00    +0.000 C 
ATOM     10  O   UNL     1       2.020   3.201  16.814  0.00  0.00    +0.000 OA
ENDROOT
BRANCH   7  11
ATOM     11  N   UNL     1       5.108   1.875  19.998  0.00  0.00    +0.000 NA
ATOM     12  H   UNL     1       6.008   2.295  20.226  0.00  0.00    +0.000 HD
ATOM     13  H   UNL     1       5.243   1.342  19.142  0.00  0.00    +0.000 HD
ENDBRANCH   7  11
TORSDOF 1
ENDMDL
MODEL 3
REMARK VINA RESULT:      -5.4      2.522      3.029
REMARK  Name = 
REMARK  2 active torsions:
REMARK  status: ('A' for Active; 'I' for Inactive)
REMARK    1  A    between atoms: C_1  and  C_2
REMARK    2  A    between atoms: C_7  and  N_8
REMARK                            x       y       z     vdW  Elec       q    Type
REMARK                         _______ _______ _______ _____ _____    ______ ____
ROOT
ATOM      1  C   UNL     1       0.803   2.415  18.778  0.00  0.00    +0.000 C 
ATOM      2  C   UNL     1       1.929   3.310  18.390  0.00  0.00    +0.000 A 
ATOM      3  C   UNL     1       1.941   4.694  18.278  0.00  0.00    +0.000 A 
ATOM      4  C   UNL     1       3.217   5.148  17.888  0.00  0.00    +0.000 A 
ATOM      5  C   UNL     1       4.115   4.131  17.737  0.00  0.00    +0.000 A 
ATOM      6  S   UNL     1       3.466   2.612  18.009  0.00  0.00    +0.000 S 
ATOM      7  C   UNL     1       5.477   4.560  17.331  0.00  0.00    +0.000 C 
ATOM      8  C   UNL     1       5.327   6.114  17.219  0.00  0.00    +0.000 C 
ATOM      9  C   UNL     1       3.867   6.398  17.596  0.00  0.00    +0.000 C 
ATOM     10  O   UNL     1       3.345   7.503  17.641  0.00  0.00    +0.000 OA
ENDROOT
BRANCH   7  11
ATOM     11  N   UNL     1       6.483   4.165  18.311  0.00  0.00    +0.000 NA
ATOM     12  H   UNL     1       7.387   4.569  18.069  0.00  0.00    +0.000 HD
ATOM     13  H   UNL     1       6.602   3.155  18.305  0.00  0.00    +0.000 HD
ENDBRANCH   7  11
TORSDOF 1
ENDMDL
MODEL 4
REMARK VINA RESULT:      -5.3      4.057      5.353
REMARK  Name = 
REMARK  2 active torsions:
REMARK  status: ('A' for Active; 'I' for Inactive)
REMARK    1  A    between atoms: C_1  and  C_2
REMARK    2  A    between atoms: C_7  and  N_8
REMARK                            x       y       z     vdW  Elec       q    Type
REMARK                         _______ _______ _______ _____ _____    ______ ____
ROOT
ATOM      1  C   UNL     1       5.096   4.329  16.028  0.00  0.00    +0.000 C 
ATOM      2  C   UNL     1       4.018   4.224  17.052  0.00  0.00    +0.000 A 
ATOM      3  C   UNL     1       2.978   3.308  17.130  0.00  0.00    +0.000 A 
ATOM      4  C   UNL     1       2.181   3.560  18.264  0.00  0.00    +0.000 A 
ATOM      5  C   UNL     1       2.633   4.615  19.004  0.00  0.00    +0.000 A 
ATOM      6  S   UNL     1       3.983   5.362  18.355  0.00  0.00    +0.000 S 
ATOM      7  C   UNL     1       1.826   4.918  20.213  0.00  0.00    +0.000 C 
ATOM      8  C   UNL     1       0.695   3.837  20.148  0.00  0.00    +0.000 C 
ATOM      9  C   UNL     1       1.003   3.018  18.888  0.00  0.00    +0.000 C 
ATOM     10  O   UNL     1       0.354   2.064  18.483  0.00  0.00    +0.000 OA
ENDROOT
BRANCH   7  11
ATOM     11  N   UNL     1       2.622   4.820  21.431  0.00  0.00    +0.000 NA
ATOM     12  H   UNL     1       2.312   5.513  22.111  0.00  0.00    +0.000 HD
ATOM     13  H   UNL     1       3.599   5.024  21.230  0.00  0.00    +0.000 HD
ENDBRANCH   7  11
TORSDOF 1
ENDMDL
MODEL 5
REMARK VINA RESULT:      -5.3      3.963      5.182
REMARK  Name = 
REMARK  2 active torsions:
REMARK  status: ('A' for Active; 'I' for Inactive)
REMARK    1  A    between atoms: C_1  and  C_2
REMARK    2  A    between atoms: C_7  and  N_8
REMARK                            x       y       z     vdW  Elec       q    Type
REMARK                         _______ _______ _______ _____ _____    ______ ____
ROOT
ATOM      1  C   UNL     1       3.568   7.402  17.629  0.00  0.00    +0.000 C 
ATOM      2  C   UNL     1       3.284   6.046  18.177  0.00  0.00    +0.000 A 
ATOM      3  C   UNL     1       2.178   5.235  17.961  0.00  0.00    +0.000 A 
ATOM      4  C   UNL     1       2.308   4.023  18.667  0.00  0.00    +0.000 A 
ATOM      5  C   UNL     1       3.480   3.941  19.364  0.00  0.00    +0.000 A 
ATOM      6  S   UNL     1       4.436   5.309  19.237  0.00  0.00    +0.000 S 
ATOM      7  C   UNL     1       3.665   2.678  20.123  0.00  0.00    +0.000 C 
ATOM      8  C   UNL     1       2.346   1.894  19.808  0.00  0.00    +0.000 C 
ATOM      9  C   UNL     1       1.551   2.816  18.875  0.00  0.00    +0.000 C 
ATOM     10  O   UNL     1       0.457   2.566  18.390  0.00  0.00    +0.000 OA
ENDROOT
BRANCH   7  11
ATOM     11  N   UNL     1       4.858   1.959  19.692  0.00  0.00    +0.000 NA
ATOM     12  H   UNL     1       4.672   0.958  19.655  0.00  0.00    +0.000 HD
ATOM     13  H   UNL     1       5.611   2.092  20.363  0.00  0.00    +0.000 HD
ENDBRANCH   7  11
TORSDOF 1
ENDMDL
MODEL 6
REMARK VINA RESULT:      -5.3      2.648      3.043
REMARK  Name = 
REMARK  2 active torsions:
REMARK  status: ('A' for Active; 'I' for Inactive)
REMARK    1  A    between atoms: C_1  and  C_2
REMARK    2  A    between atoms: C_7  and  N_8
REMARK                            x       y       z     vdW  Elec       q    Type
REMARK                         _______ _______ _______ _____ _____    ______ ____
ROOT
ATOM      1  C   UNL     1       2.265   5.243  19.976  0.00  0.00    +0.000 C 
ATOM      2  C   UNL     1       3.360   5.216  18.966  0.00  0.00    +0.000 A 
ATOM      3  C   UNL     1       3.534   6.022  17.850  0.00  0.00    +0.000 A 
ATOM      4  C   UNL     1       4.710   5.665  17.159  0.00  0.00    +0.000 A 
ATOM      5  C   UNL     1       5.385   4.642  17.761  0.00  0.00    +0.000 A 
ATOM      6  S   UNL     1       4.627   4.049  19.131  0.00  0.00    +0.000 S 
ATOM      7  C   UNL     1       6.635   4.233  17.073  0.00  0.00    +0.000 C 
ATOM      8  C   UNL     1       6.677   5.197  15.840  0.00  0.00    +0.000 C 
ATOM      9  C   UNL     1       5.425   6.072  15.979  0.00  0.00    +0.000 C 
ATOM     10  O   UNL     1       5.093   6.967  15.214  0.00  0.00    +0.000 OA
ENDROOT
BRANCH   7  11
ATOM     11  N   UNL     1       7.801   4.380  17.936  0.00  0.00    +0.000 NA
ATOM     12  H   UNL     1       8.473   5.018  17.514  0.00  0.00    +0.000 HD
ATOM     13  H   UNL     1       8.274   3.486  18.044  0.00  0.00    +0.000 HD
ENDBRANCH   7  11
TORSDOF 1
ENDMDL
MODEL 7
REMARK VINA RESULT:      -5.3      3.016      3.432
REMARK  Name = 
REMARK  2 active torsions:
REMARK  status: ('A' for Active; 'I' for Inactive)
REMARK    1  A    between atoms: C_1  and  C_2
REMARK    2  A    between atoms: C_7  and  N_8
REMARK                            x       y       z     vdW  Elec       q    Type
REMARK                         _______ _______ _______ _____ _____    ______ ____
ROOT
ATOM      1  C   UNL     1       1.570   2.738  21.608  0.00  0.00    +0.000 C 
ATOM      2  C   UNL     1       2.369   3.469  20.584  0.00  0.00    +0.000 A 
ATOM      3  C   UNL     1       2.213   4.770  20.126  0.00  0.00    +0.000 A 
ATOM      4  C   UNL     1       3.186   5.072  19.153  0.00  0.00    +0.000 A 
ATOM      5  C   UNL     1       4.038   4.031  18.918  0.00  0.00    +0.000 A 
ATOM      6  S   UNL     1       3.685   2.658  19.808  0.00  0.00    +0.000 S 
ATOM      7  C   UNL     1       5.086   4.303  17.901  0.00  0.00    +0.000 C 
ATOM      8  C   UNL     1       4.767   5.773  17.466  0.00  0.00    +0.000 C 
ATOM      9  C   UNL     1       3.556   6.182  18.314  0.00  0.00    +0.000 C 
ATOM     10  O   UNL     1       2.998   7.270  18.281  0.00  0.00    +0.000 OA
ENDROOT
BRANCH   7  11
ATOM     11  N   UNL     1       6.427   4.163  18.457  0.00  0.00    +0.000 NA
ATOM     12  H   UNL     1       6.908   5.062  18.446  0.00  0.00    +0.000 HD
ATOM     13  H   UNL     1       6.980   3.529  17.887  0.00  0.00    +0.000 HD
ENDBRANCH   7  11
TORSDOF 1
ENDMDL
MODEL 8
REMARK VINA RESULT:      -5.2      4.071      5.493
REMARK  Name = 
REMARK  2 active torsions:
REMARK  status: ('A' for Active; 'I' for Inactive)
REMARK    1  A    between atoms: C_1  and  C_2
REMARK    2  A    between atoms: C_7  and  N_8
REMARK                            x       y       z     vdW  Elec       q    Type
REMARK                         _______ _______ _______ _____ _____    ______ ____
ROOT
ATOM      1  C   UNL     1       5.163   4.292  16.289  0.00  0.00    +0.000 C 
ATOM      2  C   UNL     1       4.192   3.912  17.352  0.00  0.00    +0.000 A 
ATOM      3  C   UNL     1       2.911   3.392  17.215  0.00  0.00    +0.000 A 
ATOM      4  C   UNL     1       2.330   3.168  18.479  0.00  0.00    +0.000 A 
ATOM      5  C   UNL     1       3.165   3.495  19.510  0.00  0.00    +0.000 A 
ATOM      6  S   UNL     1       4.638   4.116  19.012  0.00  0.00    +0.000 S 
ATOM      7  C   UNL     1       2.599   3.272  20.864  0.00  0.00    +0.000 C 
ATOM      8  C   UNL     1       1.167   2.722  20.549  0.00  0.00    +0.000 C 
ATOM      9  C   UNL     1       1.087   2.682  19.017  0.00  0.00    +0.000 C 
ATOM     10  O   UNL     1       0.126   2.301  18.364  0.00  0.00    +0.000 OA
ENDROOT
BRANCH   7  11
ATOM     11  N   UNL     1       3.401   2.330  21.636  0.00  0.00    +0.000 NA
ATOM     12  H   UNL     1       2.865   1.977  22.428  0.00  0.00    +0.000 HD
ATOM     13  H   UNL     1       4.218   2.798  22.021  0.00  0.00    +0.000 HD
ENDBRANCH   7  11
TORSDOF 1
ENDMDL
MODEL 9
REMARK VINA RESULT:      -5.2      4.747      5.871
REMARK  Name = 
REMARK  2 active torsions:
REMARK  status: ('A' for Active; 'I' for Inactive)
REMARK    1  A    between atoms: C_1  and  C_2
REMARK    2  A    between atoms: C_7  and  N_8
REMARK                            x       y       z     vdW  Elec       q    Type
REMARK                         _______ _______ _______ _____ _____    ______ ____
ROOT
ATOM      1  C   UNL     1       2.873   7.836  18.145  0.00  0.00    +0.000 C 
ATOM      2  C   UNL     1       2.500   6.462  18.586  0.00  0.00    +0.000 A 
ATOM      3  C   UNL     1       2.517   5.281  17.857  0.00  0.00    +0.000 A 
ATOM      4  C   UNL     1       2.092   4.201  18.656  0.00  0.00    +0.000 A 
ATOM      5  C   UNL     1       1.790   4.576  19.934  0.00  0.00    +0.000 A 
ATOM      6  S   UNL     1       1.959   6.218  20.211  0.00  0.00    +0.000 S 
ATOM      7  C   UNL     1       1.340   3.471  20.817  0.00  0.00    +0.000 C 
ATOM      8  C   UNL     1       1.384   2.231  19.862  0.00  0.00    +0.000 C 
ATOM      9  C   UNL     1       1.878   2.784  18.519  0.00  0.00    +0.000 C 
ATOM     10  O   UNL     1       2.059   2.129  17.502  0.00  0.00    +0.000 OA
ENDROOT
BRANCH   7  11
ATOM     11  N   UNL     1       2.213   3.315  21.975  0.00  0.00    +0.000 NA
ATOM     12  H   UNL     1       3.183   3.483  21.710  0.00  0.00    +0.000 HD
ATOM     13  H   UNL     1       2.167   2.361  22.324  0.00  0.00    +0.000 HD
ENDBRANCH   7  11
TORSDOF 1
ENDMDL
