MODEL 1
REMARK VINA RESULT:      -8.3      0.000      0.000
REMARK  Name = 
REMARK  9 active torsions:
REMARK  status: ('A' for Active; 'I' for Inactive)
REMARK    1  A    between atoms: C_1  and  N_2
REMARK    2  A    between atoms: C_6  and  C_7
REMARK    3  A    between atoms: N_9  and  C_10
REMARK    4  A    between atoms: C_10  and  C_11
REMARK    5  A    between atoms: C_14  and  O_15
REMARK    6  A    between atoms: C_14  and  C_16
REMARK    7  A    between atoms: C_16  and  N_17
REMARK    8  A    between atoms: C_18  and  C_20
REMARK    9  A    between atoms: C_26  and  O_27
REMARK                            x       y       z     vdW  Elec       q    Type
REMARK                         _______ _______ _______ _____ _____    ______ ____
ROOT
ATOM      1  C   UNL     1       3.531   2.234  20.200  0.00  0.00    +0.000 C 
ATOM      2  O   UNL     1       3.218   2.384  21.607  0.00  0.00    +0.000 OA
ATOM      3  C   UNL     1       2.038   3.191  21.740  0.00  0.00    +0.000 C 
ATOM      4  C   UNL     1       1.791   3.903  20.409  0.00  0.00    +0.000 C 
ATOM      5  C   UNL     1       2.383   2.884  19.421  0.00  0.00    +0.000 C 
ENDROOT
BRANCH   4   6
ATOM      6  O   UNL     1       0.380   4.054  20.198  0.00  0.00    +0.000 OA
ATOM      7  H   UNL     1       0.191   5.005  20.037  0.00  0.00    +0.000 HD
ENDBRANCH   4   6
BRANCH   5   8
ATOM      8  O   UNL     1       1.437   1.843  19.106  0.00  0.00    +0.000 OA
ATOM      9  H   UNL     1       1.231   1.908  18.153  0.00  0.00    +0.000 HD
ENDBRANCH   5   8
BRANCH   1  10
ATOM     10  C   UNL     1       4.916   2.852  19.963  0.00  0.00    +0.000 C 
BRANCH  10  13
ATOM     11  C   UNL     1       5.867   4.463  18.335  0.00  0.00    +0.000 C 
ATOM     12  O   UNL     1       6.505   5.034  19.211  0.00  0.00    +0.000 OA
ATOM     13  N   UNL     1       5.014   3.408  18.629  0.00  0.00    +0.000 N 
ATOM     14  H   UNL     1       4.746   2.787  17.873  0.00  0.00    +0.000 HD
BRANCH  11  20
ATOM     15  C   UNL     1       4.618   6.932  16.944  0.00  0.00    +0.000 C 
ATOM     16  N   UNL     1       5.385   5.871  16.321  0.00  0.00    +0.000 N 
ATOM     17  N   UNL     1       5.588   5.926  14.993  0.00  0.00    +0.000 NA
ATOM     18  C   UNL     1       6.290   4.819  14.721  0.00  0.00    +0.000 A 
ATOM     19  C   UNL     1       6.544   4.072  15.874  0.00  0.00    +0.000 A 
ATOM     20  C   UNL     1       5.949   4.770  16.929  0.00  0.00    +0.000 A 
ENDBRANCH  11  20
ENDBRANCH  10  13
ENDBRANCH   1  10
BRANCH   4  21
ATOM     21  C   UNL     1       2.511   5.268  20.308  0.00  0.00    +0.000 C 
BRANCH  21  22
ATOM     22  N   UNL     1       1.739   6.379  20.830  0.00  0.00    +0.000 N 
ATOM     23  C   UNL     1       1.737   7.607  20.213  0.00  0.00    +0.000 C 
ATOM     24  O   UNL     1       2.300   7.808  19.143  0.00  0.00    +0.000 OA
ATOM     25  H   UNL     1       1.368   6.301  21.769  0.00  0.00    +0.000 HD
BRANCH  23  26
ATOM     26  C   UNL     1       1.001   8.686  20.914  0.00  0.00    +0.000 A 
ATOM     27  C   UNL     1       0.422   9.706  20.151  0.00  0.00    +0.000 A 
ATOM     28  C   UNL     1      -0.298  10.719  20.783  0.00  0.00    +0.000 A 
ATOM     29  C   UNL     1      -0.454  10.706  22.169  0.00  0.00    +0.000 A 
ATOM     30  C   UNL     1       0.115   9.684  22.930  0.00  0.00    +0.000 A 
ATOM     31  C   UNL     1       0.843   8.672  22.305  0.00  0.00    +0.000 A 
ENDBRANCH  23  26
ENDBRANCH  21  22
ENDBRANCH   4  21
TORSDOF 8
ENDMDL
MODEL 2
REMARK VINA RESULT:      -8.1      2.247      6.591
REMARK  Name = 
REMARK  9 active torsions:
REMARK  status: ('A' for Active; 'I' for Inactive)
REMARK    1  A    between atoms: C_1  and  N_2
REMARK    2  A    between atoms: C_6  and  C_7
REMARK    3  A    between atoms: N_9  and  C_10
REMARK    4  A    between atoms: C_10  and  C_11
REMARK    5  A    between atoms: C_14  and  O_15
REMARK    6  A    between atoms: C_14  and  C_16
REMARK    7  A    between atoms: C_16  and  N_17
REMARK    8  A    between atoms: C_18  and  C_20
REMARK    9  A    between atoms: C_26  and  O_27
REMARK                            x       y       z     vdW  Elec       q    Type
REMARK                         _______ _______ _______ _____ _____    ______ ____
ROOT
ATOM      1  C   UNL     1       5.676   6.810  17.428  0.00  0.00    +0.000 C 
ATOM      2  O   UNL     1       5.914   6.292  18.761  0.00  0.00    +0.000 OA
ATOM      3  C   UNL     1       6.762   5.137  18.668  0.00  0.00    +0.000 C 
ATOM      4  C   UNL     1       6.769   4.661  17.215  0.00  0.00    +0.000 C 
ATOM      5  C   UNL     1       6.551   5.991  16.473  0.00  0.00    +0.000 C 
ENDROOT
BRANCH   4   6
ATOM      6  O   UNL     1       8.053   4.107  16.895  0.00  0.00    +0.000 OA
ATOM      7  H   UNL     1       8.716   4.832  16.914  0.00  0.00    +0.000 HD
ENDBRANCH   4   6
BRANCH   5   8
ATOM      8  O   UNL     1       7.788   6.711  16.304  0.00  0.00    +0.000 OA
ATOM      9  H   UNL     1       7.621   7.646  16.537  0.00  0.00    +0.000 HD
ENDBRANCH   5   8
BRANCH   1  10
ATOM     10  C   UNL     1       4.166   6.732  17.162  0.00  0.00    +0.000 C 
BRANCH  10  13
ATOM     11  C   UNL     1       2.484   8.214  18.224  0.00  0.00    +0.000 C 
ATOM     12  O   UNL     1       2.330   8.850  17.189  0.00  0.00    +0.000 OA
ATOM     13  N   UNL     1       3.412   7.185  18.313  0.00  0.00    +0.000 N 
ATOM     14  H   UNL     1       3.303   6.508  19.060  0.00  0.00    +0.000 HD
BRANCH  11  20
ATOM     15  C   UNL     1       0.855  10.748  18.940  0.00  0.00    +0.000 C 
ATOM     16  N   UNL     1       1.001   9.547  19.739  0.00  0.00    +0.000 N 
ATOM     17  N   UNL     1       0.384   9.496  20.932  0.00  0.00    +0.000 NA
ATOM     18  C   UNL     1       0.723   8.299  21.427  0.00  0.00    +0.000 A 
ATOM     19  C   UNL     1       1.541   7.588  20.545  0.00  0.00    +0.000 A 
ATOM     20  C   UNL     1       1.720   8.412  19.430  0.00  0.00    +0.000 A 
ENDBRANCH  11  20
ENDBRANCH  10  13
ENDBRANCH   1  10
BRANCH   4  21
ATOM     21  C   UNL     1       5.641   3.651  16.901  0.00  0.00    +0.000 C 
BRANCH  21  22
ATOM     22  N   UNL     1       4.786   3.355  18.034  0.00  0.00    +0.000 N 
ATOM     23  C   UNL     1       3.417   3.345  17.921  0.00  0.00    +0.000 C 
ATOM     24  O   UNL     1       2.844   3.486  16.846  0.00  0.00    +0.000 OA
ATOM     25  H   UNL     1       5.202   3.361  18.958  0.00  0.00    +0.000 HD
BRANCH  23  26
ATOM     26  C   UNL     1       2.660   3.144  19.180  0.00  0.00    +0.000 A 
ATOM     27  C   UNL     1       3.351   2.697  20.311  0.00  0.00    +0.000 A 
ATOM     28  C   UNL     1       2.670   2.525  21.515  0.00  0.00    +0.000 A 
ATOM     29  C   UNL     1       1.307   2.813  21.594  0.00  0.00    +0.000 A 
ATOM     30  C   UNL     1       0.619   3.269  20.469  0.00  0.00    +0.000 A 
ATOM     31  C   UNL     1       1.293   3.436  19.260  0.00  0.00    +0.000 A 
ENDBRANCH  23  26
ENDBRANCH  21  22
ENDBRANCH   4  21
TORSDOF 8
ENDMDL
MODEL 3
REMARK VINA RESULT:      -8.0      0.800      1.236
REMARK  Name = 
REMARK  9 active torsions:
REMARK  status: ('A' for Active; 'I' for Inactive)
REMARK    1  A    between atoms: C_1  and  N_2
REMARK    2  A    between atoms: C_6  and  C_7
REMARK    3  A    between atoms: N_9  and  C_10
REMARK    4  A    between atoms: C_10  and  C_11
REMARK    5  A    between atoms: C_14  and  O_15
REMARK    6  A    between atoms: C_14  and  C_16
REMARK    7  A    between atoms: C_16  and  N_17
REMARK    8  A    between atoms: C_18  and  C_20
REMARK    9  A    between atoms: C_26  and  O_27
REMARK                            x       y       z     vdW  Elec       q    Type
REMARK                         _______ _______ _______ _____ _____    ______ ____
ROOT
ATOM      1  C   UNL     1       3.319   2.337  20.043  0.00  0.00    +0.000 C 
ATOM      2  O   UNL     1       2.867   2.230  21.416  0.00  0.00    +0.000 OA
ATOM      3  C   UNL     1       1.739   3.098  21.606  0.00  0.00    +0.000 C 
ATOM      4  C   UNL     1       1.689   4.082  20.436  0.00  0.00    +0.000 C 
ATOM      5  C   UNL     1       2.311   3.232  19.315  0.00  0.00    +0.000 C 
ENDROOT
BRANCH   4   6
ATOM      6  O   UNL     1       0.323   4.400  20.132  0.00  0.00    +0.000 OA
ATOM      7  H   UNL     1      -0.242   3.651  20.425  0.00  0.00    +0.000 HD
ENDBRANCH   4   6
BRANCH   5   8
ATOM      8  O   UNL     1       1.334   2.365  18.704  0.00  0.00    +0.000 OA
ATOM      9  H   UNL     1       0.468   2.816  18.750  0.00  0.00    +0.000 HD
ENDBRANCH   5   8
BRANCH   1  10
ATOM     10  C   UNL     1       4.762   2.861  20.068  0.00  0.00    +0.000 C 
BRANCH  10  13
ATOM     11  C   UNL     1       5.764   4.571  18.577  0.00  0.00    +0.000 C 
ATOM     12  O   UNL     1       5.891   5.363  19.503  0.00  0.00    +0.000 OA
ATOM     13  N   UNL     1       5.165   3.332  18.759  0.00  0.00    +0.000 N 
ATOM     14  H   UNL     1       5.343   2.611  18.068  0.00  0.00    +0.000 HD
BRANCH  11  20
ATOM     15  C   UNL     1       7.487   6.970  17.644  0.00  0.00    +0.000 C 
ATOM     16  N   UNL     1       7.005   5.869  16.832  0.00  0.00    +0.000 N 
ATOM     17  N   UNL     1       7.311   5.860  15.523  0.00  0.00    +0.000 NA
ATOM     18  C   UNL     1       6.716   4.758  15.052  0.00  0.00    +0.000 A 
ATOM     19  C   UNL     1       6.046   4.062  16.062  0.00  0.00    +0.000 A 
ATOM     20  C   UNL     1       6.242   4.795  17.236  0.00  0.00    +0.000 A 
ENDBRANCH  11  20
ENDBRANCH  10  13
ENDBRANCH   1  10
BRANCH   4  21
ATOM     21  C   UNL     1       2.510   5.368  20.688  0.00  0.00    +0.000 C 
BRANCH  21  22
ATOM     22  N   UNL     1       1.705   6.514  21.063  0.00  0.00    +0.000 N 
ATOM     23  C   UNL     1       1.705   7.669  20.318  0.00  0.00    +0.000 C 
ATOM     24  O   UNL     1       2.299   7.765  19.251  0.00  0.00    +0.000 OA
ATOM     25  H   UNL     1       1.304   6.530  21.994  0.00  0.00    +0.000 HD
BRANCH  23  26
ATOM     26  C   UNL     1       0.930   8.804  20.877  0.00  0.00    +0.000 A 
ATOM     27  C   UNL     1       0.557   8.759  22.224  0.00  0.00    +0.000 A 
ATOM     28  C   UNL     1      -0.148   9.825  22.782  0.00  0.00    +0.000 A 
ATOM     29  C   UNL     1      -0.467  10.937  22.001  0.00  0.00    +0.000 A 
ATOM     30  C   UNL     1      -0.087  10.986  20.660  0.00  0.00    +0.000 A 
ATOM     31  C   UNL     1       0.613   9.920  20.094  0.00  0.00    +0.000 A 
ENDBRANCH  23  26
ENDBRANCH  21  22
ENDBRANCH   4  21
TORSDOF 8
ENDMDL
MODEL 4
REMARK VINA RESULT:      -7.9      1.132      1.398
REMARK  Name = 
REMARK  9 active torsions:
REMARK  status: ('A' for Active; 'I' for Inactive)
REMARK    1  A    between atoms: C_1  and  N_2
REMARK    2  A    between atoms: C_6  and  C_7
REMARK    3  A    between atoms: N_9  and  C_10
REMARK    4  A    between atoms: C_10  and  C_11
REMARK    5  A    between atoms: C_14  and  O_15
REMARK    6  A    between atoms: C_14  and  C_16
REMARK    7  A    between atoms: C_16  and  N_17
REMARK    8  A    between atoms: C_18  and  C_20
REMARK    9  A    between atoms: C_26  and  O_27
REMARK                            x       y       z     vdW  Elec       q    Type
REMARK                         _______ _______ _______ _____ _____    ______ ____
ROOT
ATOM      1  C   UNL     1       3.064   2.226  19.640  0.00  0.00    +0.000 C 
ATOM      2  O   UNL     1       2.625   1.826  20.962  0.00  0.00    +0.000 OA
ATOM      3  C   UNL     1       1.537   2.671  21.369  0.00  0.00    +0.000 C 
ATOM      4  C   UNL     1       1.514   3.896  20.454  0.00  0.00    +0.000 C 
ATOM      5  C   UNL     1       2.085   3.301  19.157  0.00  0.00    +0.000 C 
ENDROOT
BRANCH   4   6
ATOM      6  O   UNL     1       0.159   4.327  20.261  0.00  0.00    +0.000 OA
ATOM      7  H   UNL     1      -0.305   4.290  21.126  0.00  0.00    +0.000 HD
ENDBRANCH   4   6
BRANCH   5   8
ATOM      8  O   UNL     1       1.065   2.634  18.386  0.00  0.00    +0.000 OA
ATOM      9  H   UNL     1       0.760   3.256  17.697  0.00  0.00    +0.000 HD
ENDBRANCH   5   8
BRANCH   1  10
ATOM     10  C   UNL     1       4.528   2.676  19.752  0.00  0.00    +0.000 C 
BRANCH  10  13
ATOM     11  C   UNL     1       5.656   4.413  18.388  0.00  0.00    +0.000 C 
ATOM     12  O   UNL     1       5.760   5.161  19.352  0.00  0.00    +0.000 OA
ATOM     13  N   UNL     1       5.012   3.187  18.487  0.00  0.00    +0.000 N 
ATOM     14  H   UNL     1       5.203   2.490  17.775  0.00  0.00    +0.000 HD
BRANCH  11  20
ATOM     15  C   UNL     1       7.463   6.813  17.635  0.00  0.00    +0.000 C 
ATOM     16  N   UNL     1       7.008   5.751  16.759  0.00  0.00    +0.000 N 
ATOM     17  N   UNL     1       7.384   5.783  15.469  0.00  0.00    +0.000 NA
ATOM     18  C   UNL     1       6.798   4.708  14.927  0.00  0.00    +0.000 A 
ATOM     19  C   UNL     1       6.065   3.989  15.874  0.00  0.00    +0.000 A 
ATOM     20  C   UNL     1       6.208   4.676  17.083  0.00  0.00    +0.000 A 
ENDBRANCH  11  20
ENDBRANCH  10  13
ENDBRANCH   1  10
BRANCH   4  21
ATOM     21  C   UNL     1       2.391   5.059  20.974  0.00  0.00    +0.000 C 
BRANCH  21  22
ATOM     22  N   UNL     1       1.809   6.371  20.768  0.00  0.00    +0.000 N 
ATOM     23  C   UNL     1       2.169   7.159  19.701  0.00  0.00    +0.000 C 
ATOM     24  O   UNL     1       2.920   6.767  18.816  0.00  0.00    +0.000 OA
ATOM     25  H   UNL     1       1.290   6.786  21.533  0.00  0.00    +0.000 HD
BRANCH  23  26
ATOM     26  C   UNL     1       1.588   8.523  19.674  0.00  0.00    +0.000 A 
ATOM     27  C   UNL     1       1.625   9.241  18.475  0.00  0.00    +0.000 A 
ATOM     28  C   UNL     1       1.062  10.515  18.414  0.00  0.00    +0.000 A 
ATOM     29  C   UNL     1       0.450  11.064  19.542  0.00  0.00    +0.000 A 
ATOM     30  C   UNL     1       0.404  10.344  20.736  0.00  0.00    +0.000 A 
ATOM     31  C   UNL     1       0.972   9.072  20.805  0.00  0.00    +0.000 A 
ENDBRANCH  23  26
ENDBRANCH  21  22
ENDBRANCH   4  21
TORSDOF 8
ENDMDL
MODEL 5
REMARK VINA RESULT:      -7.9      2.198      6.568
REMARK  Name = 
REMARK  9 active torsions:
REMARK  status: ('A' for Active; 'I' for Inactive)
REMARK    1  A    between atoms: C_1  and  N_2
REMARK    2  A    between atoms: C_6  and  C_7
REMARK    3  A    between atoms: N_9  and  C_10
REMARK    4  A    between atoms: C_10  and  C_11
REMARK    5  A    between atoms: C_14  and  O_15
REMARK    6  A    between atoms: C_14  and  C_16
REMARK    7  A    between atoms: C_16  and  N_17
REMARK    8  A    between atoms: C_18  and  C_20
REMARK    9  A    between atoms: C_26  and  O_27
REMARK                            x       y       z     vdW  Elec       q    Type
REMARK                         _______ _______ _______ _____ _____    ______ ____
ROOT
ATOM      1  C   UNL     1       5.640   6.797  17.251  0.00  0.00    +0.000 C 
ATOM      2  O   UNL     1       5.788   6.387  18.633  0.00  0.00    +0.000 OA
ATOM      3  C   UNL     1       6.676   5.259  18.693  0.00  0.00    +0.000 C 
ATOM      4  C   UNL     1       6.812   4.681  17.284  0.00  0.00    +0.000 C 
ATOM      5  C   UNL     1       6.613   5.944  16.431  0.00  0.00    +0.000 C 
ENDROOT
BRANCH   4   6
ATOM      6  O   UNL     1       8.134   4.152  17.106  0.00  0.00    +0.000 OA
ATOM      7  H   UNL     1       8.735   4.893  16.869  0.00  0.00    +0.000 HD
ENDBRANCH   4   6
BRANCH   5   8
ATOM      8  O   UNL     1       7.837   6.695  16.303  0.00  0.00    +0.000 OA
ATOM      9  H   UNL     1       7.792   7.195  15.464  0.00  0.00    +0.000 HD
ENDBRANCH   5   8
BRANCH   1  10
ATOM     10  C   UNL     1       4.159   6.646  16.876  0.00  0.00    +0.000 C 
BRANCH  10  13
ATOM     11  C   UNL     1       2.382   7.610  18.313  0.00  0.00    +0.000 C 
ATOM     12  O   UNL     1       2.044   6.501  18.709  0.00  0.00    +0.000 OA
ATOM     13  N   UNL     1       3.383   7.767  17.364  0.00  0.00    +0.000 N 
ATOM     14  H   UNL     1       3.827   8.676  17.287  0.00  0.00    +0.000 HD
BRANCH  11  20
ATOM     15  C   UNL     1       1.233   8.111  21.145  0.00  0.00    +0.000 C 
ATOM     16  N   UNL     1       1.322   9.063  20.055  0.00  0.00    +0.000 N 
ATOM     17  N   UNL     1       0.856  10.308  20.256  0.00  0.00    +0.000 NA
ATOM     18  C   UNL     1       1.052  10.927  19.085  0.00  0.00    +0.000 A 
ATOM     19  C   UNL     1       1.653  10.082  18.149  0.00  0.00    +0.000 A 
ATOM     20  C   UNL     1       1.835   8.854  18.793  0.00  0.00    +0.000 A 
ENDBRANCH  11  20
ENDBRANCH  10  13
ENDBRANCH   1  10
BRANCH   4  21
ATOM     21  C   UNL     1       5.744   3.610  16.962  0.00  0.00    +0.000 C 
BRANCH  21  22
ATOM     22  N   UNL     1       4.861   3.308  18.071  0.00  0.00    +0.000 N 
ATOM     23  C   UNL     1       3.497   3.264  17.915  0.00  0.00    +0.000 C 
ATOM     24  O   UNL     1       2.955   3.377  16.821  0.00  0.00    +0.000 OA
ATOM     25  H   UNL     1       5.248   3.337  19.008  0.00  0.00    +0.000 HD
BRANCH  23  26
ATOM     26  C   UNL     1       2.706   3.062  19.153  0.00  0.00    +0.000 A 
ATOM     27  C   UNL     1       3.384   2.759  20.337  0.00  0.00    +0.000 A 
ATOM     28  C   UNL     1       2.668   2.590  21.521  0.00  0.00    +0.000 A 
ATOM     29  C   UNL     1       1.280   2.738  21.525  0.00  0.00    +0.000 A 
ATOM     30  C   UNL     1       0.603   3.049  20.346  0.00  0.00    +0.000 A 
ATOM     31  C   UNL     1       1.314   3.213  19.157  0.00  0.00    +0.000 A 
ENDBRANCH  23  26
ENDBRANCH  21  22
ENDBRANCH   4  21
TORSDOF 8
ENDMDL
MODEL 6
REMARK VINA RESULT:      -7.9      2.415      7.764
REMARK  Name = 
REMARK  9 active torsions:
REMARK  status: ('A' for Active; 'I' for Inactive)
REMARK    1  A    between atoms: C_1  and  N_2
REMARK    2  A    between atoms: C_6  and  C_7
REMARK    3  A    between atoms: N_9  and  C_10
REMARK    4  A    between atoms: C_10  and  C_11
REMARK    5  A    between atoms: C_14  and  O_15
REMARK    6  A    between atoms: C_14  and  C_16
REMARK    7  A    between atoms: C_16  and  N_17
REMARK    8  A    between atoms: C_18  and  C_20
REMARK    9  A    between atoms: C_26  and  O_27
REMARK                            x       y       z     vdW  Elec       q    Type
REMARK                         _______ _______ _______ _____ _____    ______ ____
ROOT
ATOM      1  C   UNL     1       2.627   5.181  18.675  0.00  0.00    +0.000 C 
ATOM      2  O   UNL     1       2.592   4.299  17.525  0.00  0.00    +0.000 OA
ATOM      3  C   UNL     1       3.590   3.279  17.689  0.00  0.00    +0.000 C 
ATOM      4  C   UNL     1       4.556   3.725  18.787  0.00  0.00    +0.000 C 
ATOM      5  C   UNL     1       3.624   4.574  19.667  0.00  0.00    +0.000 C 
ENDROOT
BRANCH   4   6
ATOM      6  O   UNL     1       5.029   2.578  19.508  0.00  0.00    +0.000 OA
ATOM      7  H   UNL     1       4.645   2.601  20.412  0.00  0.00    +0.000 HD
ENDBRANCH   4   6
BRANCH   5   8
ATOM      8  O   UNL     1       2.870   3.754  20.583  0.00  0.00    +0.000 OA
ATOM      9  H   UNL     1       3.509   3.259  21.132  0.00  0.00    +0.000 HD
ENDBRANCH   5   8
BRANCH   1  10
ATOM     10  C   UNL     1       2.978   6.587  18.171  0.00  0.00    +0.000 C 
BRANCH  10  13
ATOM     11  C   UNL     1       1.879   8.794  18.448  0.00  0.00    +0.000 C 
ATOM     12  O   UNL     1       2.065   9.080  17.272  0.00  0.00    +0.000 OA
ATOM     13  N   UNL     1       2.347   7.604  18.988  0.00  0.00    +0.000 N 
ATOM     14  H   UNL     1       1.928   7.276  19.852  0.00  0.00    +0.000 HD
BRANCH  11  20
ATOM     15  C   UNL     1       1.887  11.889  18.563  0.00  0.00    +0.000 C 
ATOM     16  N   UNL     1       1.154  10.982  19.425  0.00  0.00    +0.000 N 
ATOM     17  N   UNL     1       0.390  11.506  20.399  0.00  0.00    +0.000 NA
ATOM     18  C   UNL     1      -0.126  10.441  21.024  0.00  0.00    +0.000 A 
ATOM     19  C   UNL     1       0.298   9.245  20.439  0.00  0.00    +0.000 A 
ATOM     20  C   UNL     1       1.139   9.605  19.381  0.00  0.00    +0.000 A 
ENDBRANCH  11  20
ENDBRANCH  10  13
ENDBRANCH   1  10
BRANCH   4  21
ATOM     21  C   UNL     1       5.740   4.562  18.250  0.00  0.00    +0.000 C 
BRANCH  21  22
ATOM     22  N   UNL     1       6.087   4.273  16.873  0.00  0.00    +0.000 N 
ATOM     23  C   UNL     1       6.140   5.262  15.920  0.00  0.00    +0.000 C 
ATOM     24  O   UNL     1       5.995   6.449  16.193  0.00  0.00    +0.000 OA
ATOM     25  H   UNL     1       6.087   3.304  16.575  0.00  0.00    +0.000 HD
BRANCH  23  26
ATOM     26  C   UNL     1       6.391   4.814  14.529  0.00  0.00    +0.000 A 
ATOM     27  C   UNL     1       7.502   5.326  13.852  0.00  0.00    +0.000 A 
ATOM     28  C   UNL     1       7.778   4.902  12.553  0.00  0.00    +0.000 A 
ATOM     29  C   UNL     1       6.955   3.957  11.937  0.00  0.00    +0.000 A 
ATOM     30  C   UNL     1       5.852   3.438  12.615  0.00  0.00    +0.000 A 
ATOM     31  C   UNL     1       5.568   3.864  13.913  0.00  0.00    +0.000 A 
ENDBRANCH  23  26
ENDBRANCH  21  22
ENDBRANCH   4  21
TORSDOF 8
ENDMDL
MODEL 7
REMARK VINA RESULT:      -7.9      1.300      1.854
REMARK  Name = 
REMARK  9 active torsions:
REMARK  status: ('A' for Active; 'I' for Inactive)
REMARK    1  A    between atoms: C_1  and  N_2
REMARK    2  A    between atoms: C_6  and  C_7
REMARK    3  A    between atoms: N_9  and  C_10
REMARK    4  A    between atoms: C_10  and  C_11
REMARK    5  A    between atoms: C_14  and  O_15
REMARK    6  A    between atoms: C_14  and  C_16
REMARK    7  A    between atoms: C_16  and  N_17
REMARK    8  A    between atoms: C_18  and  C_20
REMARK    9  A    between atoms: C_26  and  O_27
REMARK                            x       y       z     vdW  Elec       q    Type
REMARK                         _______ _______ _______ _____ _____    ______ ____
ROOT
ATOM      1  C   UNL     1       3.210   2.277  19.702  0.00  0.00    +0.000 C 
ATOM      2  O   UNL     1       2.857   1.794  21.023  0.00  0.00    +0.000 OA
ATOM      3  C   UNL     1       1.702   2.510  21.488  0.00  0.00    +0.000 C 
ATOM      4  C   UNL     1       1.524   3.752  20.615  0.00  0.00    +0.000 C 
ATOM      5  C   UNL     1       2.111   3.258  19.283  0.00  0.00    +0.000 C 
ENDROOT
BRANCH   4   6
ATOM      6  O   UNL     1       0.126   4.046  20.475  0.00  0.00    +0.000 OA
ATOM      7  H   UNL     1      -0.380   3.413  21.030  0.00  0.00    +0.000 HD
ENDBRANCH   4   6
BRANCH   5   8
ATOM      8  O   UNL     1       1.141   2.512  18.521  0.00  0.00    +0.000 OA
ATOM      9  H   UNL     1       0.353   3.080  18.407  0.00  0.00    +0.000 HD
ENDBRANCH   5   8
BRANCH   1  10
ATOM     10  C   UNL     1       4.623   2.871  19.786  0.00  0.00    +0.000 C 
BRANCH  10  13
ATOM     11  C   UNL     1       6.070   4.331  18.399  0.00  0.00    +0.000 C 
ATOM     12  O   UNL     1       6.621   4.796  19.389  0.00  0.00    +0.000 OA
ATOM     13  N   UNL     1       5.034   3.414  18.508  0.00  0.00    +0.000 N 
ATOM     14  H   UNL     1       4.815   2.844  17.698  0.00  0.00    +0.000 HD
BRANCH  11  20
ATOM     15  C   UNL     1       7.435   6.935  17.424  0.00  0.00    +0.000 C 
ATOM     16  N   UNL     1       7.045   5.795  16.616  0.00  0.00    +0.000 N 
ATOM     17  N   UNL     1       7.277   5.842  15.293  0.00  0.00    +0.000 NA
ATOM     18  C   UNL     1       6.794   4.681  14.832  0.00  0.00    +0.000 A 
ATOM     19  C   UNL     1       6.271   3.895  15.862  0.00  0.00    +0.000 A 
ATOM     20  C   UNL     1       6.441   4.630  17.039  0.00  0.00    +0.000 A 
ENDBRANCH  11  20
ENDBRANCH  10  13
ENDBRANCH   1  10
BRANCH   4  21
ATOM     21  C   UNL     1       2.294   4.984  21.147  0.00  0.00    +0.000 C 
BRANCH  21  22
ATOM     22  N   UNL     1       1.796   6.249  20.644  0.00  0.00    +0.000 N 
ATOM     23  C   UNL     1       2.417   6.908  19.611  0.00  0.00    +0.000 C 
ATOM     24  O   UNL     1       3.359   6.425  18.992  0.00  0.00    +0.000 OA
ATOM     25  H   UNL     1       1.109   6.745  21.201  0.00  0.00    +0.000 HD
BRANCH  23  26
ATOM     26  C   UNL     1       1.876   8.247  19.274  0.00  0.00    +0.000 A 
ATOM     27  C   UNL     1       1.127   8.928  20.239  0.00  0.00    +0.000 A 
ATOM     28  C   UNL     1       0.629  10.200  19.959  0.00  0.00    +0.000 A 
ATOM     29  C   UNL     1       0.891  10.796  18.725  0.00  0.00    +0.000 A 
ATOM     30  C   UNL     1       1.646  10.122  17.765  0.00  0.00    +0.000 A 
ATOM     31  C   UNL     1       2.141   8.847  18.037  0.00  0.00    +0.000 A 
ENDBRANCH  23  26
ENDBRANCH  21  22
ENDBRANCH   4  21
TORSDOF 8
ENDMDL
MODEL 8
REMARK VINA RESULT:      -7.8      2.238      7.783
REMARK  Name = 
REMARK  9 active torsions:
REMARK  status: ('A' for Active; 'I' for Inactive)
REMARK    1  A    between atoms: C_1  and  N_2
REMARK    2  A    between atoms: C_6  and  C_7
REMARK    3  A    between atoms: N_9  and  C_10
REMARK    4  A    between atoms: C_10  and  C_11
REMARK    5  A    between atoms: C_14  and  O_15
REMARK    6  A    between atoms: C_14  and  C_16
REMARK    7  A    between atoms: C_16  and  N_17
REMARK    8  A    between atoms: C_18  and  C_20
REMARK    9  A    between atoms: C_26  and  O_27
REMARK                            x       y       z     vdW  Elec       q    Type
REMARK                         _______ _______ _______ _____ _____    ______ ____
ROOT
ATOM      1  C   UNL     1       2.676   5.166  18.750  0.00  0.00    +0.000 C 
ATOM      2  O   UNL     1       2.631   4.340  17.560  0.00  0.00    +0.000 OA
ATOM      3  C   UNL     1       3.630   3.313  17.667  0.00  0.00    +0.000 C 
ATOM      4  C   UNL     1       4.605   3.706  18.777  0.00  0.00    +0.000 C 
ATOM      5  C   UNL     1       3.681   4.512  19.704  0.00  0.00    +0.000 C 
ENDROOT
BRANCH   4   6
ATOM      6  O   UNL     1       5.083   2.526  19.438  0.00  0.00    +0.000 OA
ATOM      7  H   UNL     1       4.713   1.741  18.977  0.00  0.00    +0.000 HD
ENDBRANCH   4   6
BRANCH   5   8
ATOM      8  O   UNL     1       2.934   3.650  20.586  0.00  0.00    +0.000 OA
ATOM      9  H   UNL     1       3.126   3.927  21.504  0.00  0.00    +0.000 HD
ENDBRANCH   5   8
BRANCH   1  10
ATOM     10  C   UNL     1       3.024   6.595  18.312  0.00  0.00    +0.000 C 
BRANCH  10  13
ATOM     11  C   UNL     1       1.848   8.779  18.314  0.00  0.00    +0.000 C 
ATOM     12  O   UNL     1       2.433   9.141  17.301  0.00  0.00    +0.000 OA
ATOM     13  N   UNL     1       2.121   7.556  18.911  0.00  0.00    +0.000 N 
ATOM     14  H   UNL     1       1.431   7.173  19.549  0.00  0.00    +0.000 HD
BRANCH  11  20
ATOM     15  C   UNL     1       1.350   8.894  21.369  0.00  0.00    +0.000 C 
ATOM     16  N   UNL     1       0.593   9.568  20.332  0.00  0.00    +0.000 N 
ATOM     17  N   UNL     1      -0.454  10.327  20.699  0.00  0.00    +0.000 NA
ATOM     18  C   UNL     1      -0.952  10.784  19.543  0.00  0.00    +0.000 A 
ATOM     19  C   UNL     1      -0.214  10.327  18.448  0.00  0.00    +0.000 A 
ATOM     20  C   UNL     1       0.807   9.528  18.971  0.00  0.00    +0.000 A 
ENDBRANCH  11  20
ENDBRANCH  10  13
ENDBRANCH   1  10
BRANCH   4  21
ATOM     21  C   UNL     1       5.785   4.568  18.271  0.00  0.00    +0.000 C 
BRANCH  21  22
ATOM     22  N   UNL     1       6.173   4.288  16.902  0.00  0.00    +0.000 N 
ATOM     23  C   UNL     1       6.227   5.279  15.952  0.00  0.00    +0.000 C 
ATOM     24  O   UNL     1       6.051   6.461  16.222  0.00  0.00    +0.000 OA
ATOM     25  H   UNL     1       6.201   3.320  16.605  0.00  0.00    +0.000 HD
BRANCH  23  26
ATOM     26  C   UNL     1       6.523   4.838  14.567  0.00  0.00    +0.000 A 
ATOM     27  C   UNL     1       5.697   3.873  13.982  0.00  0.00    +0.000 A 
ATOM     28  C   UNL     1       5.936   3.459  12.673  0.00  0.00    +0.000 A 
ATOM     29  C   UNL     1       6.987   4.018  11.944  0.00  0.00    +0.000 A 
ATOM     30  C   UNL     1       7.806   4.987  12.524  0.00  0.00    +0.000 A 
ATOM     31  C   UNL     1       7.576   5.400  13.836  0.00  0.00    +0.000 A 
ENDBRANCH  23  26
ENDBRANCH  21  22
ENDBRANCH   4  21
TORSDOF 8
ENDMDL
MODEL 9
REMARK VINA RESULT:      -7.8      0.470      1.479
REMARK  Name = 
REMARK  9 active torsions:
REMARK  status: ('A' for Active; 'I' for Inactive)
REMARK    1  A    between atoms: C_1  and  N_2
REMARK    2  A    between atoms: C_6  and  C_7
REMARK    3  A    between atoms: N_9  and  C_10
REMARK    4  A    between atoms: C_10  and  C_11
REMARK    5  A    between atoms: C_14  and  O_15
REMARK    6  A    between atoms: C_14  and  C_16
REMARK    7  A    between atoms: C_16  and  N_17
REMARK    8  A    between atoms: C_18  and  C_20
REMARK    9  A    between atoms: C_26  and  O_27
REMARK                            x       y       z     vdW  Elec       q    Type
REMARK                         _______ _______ _______ _____ _____    ______ ____
ROOT
ATOM      1  C   UNL     1       3.485   2.223  20.062  0.00  0.00    +0.000 C 
ATOM      2  O   UNL     1       3.273   2.320  21.492  0.00  0.00    +0.000 OA
ATOM      3  C   UNL     1       2.117   3.137  21.739  0.00  0.00    +0.000 C 
ATOM      4  C   UNL     1       1.790   3.904  20.457  0.00  0.00    +0.000 C 
ATOM      5  C   UNL     1       2.295   2.918  19.391  0.00  0.00    +0.000 C 
ENDROOT
BRANCH   4   6
ATOM      6  O   UNL     1       0.370   4.081  20.351  0.00  0.00    +0.000 OA
ATOM      7  H   UNL     1       0.063   4.597  21.129  0.00  0.00    +0.000 HD
ENDBRANCH   4   6
BRANCH   5   8
ATOM      8  O   UNL     1       1.314   1.902  19.103  0.00  0.00    +0.000 OA
ATOM      9  H   UNL     1       1.082   1.975  18.156  0.00  0.00    +0.000 HD
ENDBRANCH   5   8
BRANCH   1  10
ATOM     10  C   UNL     1       4.859   2.832  19.752  0.00  0.00    +0.000 C 
BRANCH  10  13
ATOM     11  C   UNL     1       5.634   4.837  18.515  0.00  0.00    +0.000 C 
ATOM     12  O   UNL     1       6.431   5.126  19.400  0.00  0.00    +0.000 OA
ATOM     13  N   UNL     1       4.780   3.749  18.634  0.00  0.00    +0.000 N 
ATOM     14  H   UNL     1       4.364   3.376  17.788  0.00  0.00    +0.000 HD
BRANCH  11  20
ATOM     15  C   UNL     1       7.154   4.153  15.905  0.00  0.00    +0.000 C 
ATOM     16  N   UNL     1       6.199   5.225  16.106  0.00  0.00    +0.000 N 
ATOM     17  N   UNL     1       5.925   6.038  15.072  0.00  0.00    +0.000 NA
ATOM     18  C   UNL     1       5.048   6.920  15.568  0.00  0.00    +0.000 A 
ATOM     19  C   UNL     1       4.756   6.658  16.909  0.00  0.00    +0.000 A 
ATOM     20  C   UNL     1       5.514   5.537  17.261  0.00  0.00    +0.000 A 
ENDBRANCH  11  20
ENDBRANCH  10  13
ENDBRANCH   1  10
BRANCH   4  21
ATOM     21  C   UNL     1       2.522   5.263  20.359  0.00  0.00    +0.000 C 
BRANCH  21  22
ATOM     22  N   UNL     1       1.739   6.387  20.832  0.00  0.00    +0.000 N 
ATOM     23  C   UNL     1       1.750   7.598  20.182  0.00  0.00    +0.000 C 
ATOM     24  O   UNL     1       2.336   7.770  19.119  0.00  0.00    +0.000 OA
ATOM     25  H   UNL     1       1.347   6.335  21.766  0.00  0.00    +0.000 HD
BRANCH  23  26
ATOM     26  C   UNL     1       0.998   8.696  20.837  0.00  0.00    +0.000 A 
ATOM     27  C   UNL     1       0.762   8.616  22.213  0.00  0.00    +0.000 A 
ATOM     28  C   UNL     1       0.082   9.647  22.859  0.00  0.00    +0.000 A 
ATOM     29  C   UNL     1      -0.348  10.761  22.137  0.00  0.00    +0.000 A 
ATOM     30  C   UNL     1      -0.104  10.846  20.766  0.00  0.00    +0.000 A 
ATOM     31  C   UNL     1       0.570   9.814  20.113  0.00  0.00    +0.000 A 
ENDBRANCH  23  26
ENDBRANCH  21  22
ENDBRANCH   4  21
TORSDOF 8
ENDMDL
