MODEL 1
REMARK VINA RESULT:      -8.1      0.000      0.000
REMARK  Name = 
REMARK  8 active torsions:
REMARK  status: ('A' for Active; 'I' for Inactive)
REMARK    1  A    between atoms: C_1  and  C_2
REMARK    2  A    between atoms: C_3  and  O_4
REMARK    3  A    between atoms: O_4  and  C_5
REMARK    4  A    between atoms: C_5  and  C_6
REMARK    5  A    between atoms: C_6  and  C_7
REMARK    6  A    between atoms: C_7  and  C_8
REMARK    7  A    between atoms: C_8  and  N_9
REMARK    8  A    between atoms: N_12  and  C_13
REMARK                            x       y       z     vdW  Elec       q    Type
REMARK                         _______ _______ _______ _____ _____    ______ ____
ROOT
ATOM      1  C   UNL     1      -0.693   9.819  20.381  0.00  0.00    +0.000 C 
ENDROOT
BRANCH   1   2
ATOM      2  N   UNL     1      -0.596  11.233  20.119  0.00  0.00    +0.000 NA
ATOM      3  C   UNL     1      -0.074  11.583  18.789  0.00  0.00    +0.000 C 
ATOM      4  C   UNL     1      -0.749  12.907  18.380  0.00  0.00    +0.000 C 
ATOM      5  N   UNL     1      -0.377  13.946  19.355  0.00  0.00    +0.000 N 
ATOM      6  C   UNL     1      -0.718  13.589  20.752  0.00  0.00    +0.000 C 
ATOM      7  C   UNL     1      -0.137  12.199  21.118  0.00  0.00    +0.000 C 
BRANCH   5   8
ATOM      8  C   UNL     1       0.235  15.147  19.038  0.00  0.00    +0.000 A 
ATOM      9  C   UNL     1      -0.600  16.285  18.925  0.00  0.00    +0.000 A 
ATOM     10  C   UNL     1      -0.113  17.555  18.657  0.00  0.00    +0.000 A 
ATOM     11  C   UNL     1       1.208  17.702  18.300  0.00  0.00    +0.000 A 
ATOM     12  C   UNL     1       2.041  16.588  18.246  0.00  0.00    +0.000 A 
ATOM     13  C   UNL     1       3.248  16.725  17.564  0.00  0.00    +0.000 A 
ATOM     14  C   UNL     1       4.048  15.612  17.408  0.00  0.00    +0.000 A 
ATOM     15  C   UNL     1       3.957  14.593  18.323  0.00  0.00    +0.000 A 
ATOM     16  C   UNL     1       2.724  14.411  18.930  0.00  0.00    +0.000 A 
ATOM     17  F   UNL     1       2.598  13.287  19.645  0.00  0.00    +0.000 F 
ATOM     18  C   UNL     1       1.639  15.326  18.757  0.00  0.00    +0.000 A 
ENDBRANCH   5   8
ENDBRANCH   1   2
BRANCH   1  19
ATOM     19  C   UNL     1      -0.120   9.415  21.736  0.00  0.00    +0.000 C 
BRANCH  19  20
ATOM     20  C   UNL     1       1.237   8.739  21.589  0.00  0.00    +0.000 C 
BRANCH  20  21
ATOM     21  C   UNL     1       1.436   8.273  20.151  0.00  0.00    +0.000 C 
BRANCH  21  22
ATOM     22  O   UNL     1       2.517   7.349  20.132  0.00  0.00    +0.000 OA
BRANCH  22  25
ATOM     23  C   UNL     1       3.737   6.209  17.877  0.00  0.00    +0.000 C 
ATOM     24  C   UNL     1       2.825   5.442  18.793  0.00  0.00    +0.000 A 
ATOM     25  C   UNL     1       2.220   6.027  19.925  0.00  0.00    +0.000 A 
ATOM     26  C   UNL     1       1.372   5.260  20.757  0.00  0.00    +0.000 A 
ATOM     27  C   UNL     1       1.115   3.911  20.488  0.00  0.00    +0.000 A 
ATOM     28  C   UNL     1       1.714   3.333  19.381  0.00  0.00    +0.000 A 
ATOM     29  C   UNL     1       2.533   4.108  18.555  0.00  0.00    +0.000 A 
ATOM     30  C   UNL     1       3.021   3.226  17.491  0.00  0.00    +0.000 C 
ATOM     31  O   UNL     1       3.774   3.505  16.579  0.00  0.00    +0.000 OA
ATOM     32  N   UNL     1       2.455   1.963  17.707  0.00  0.00    +0.000 N 
ATOM     33  C   UNL     1       1.652   1.947  18.871  0.00  0.00    +0.000 C 
ATOM     34  H   UNL     1       2.660   1.185  17.084  0.00  0.00    +0.000 HD
ENDBRANCH  22  25
ENDBRANCH  21  22
ENDBRANCH  20  21
ENDBRANCH  19  20
ENDBRANCH   1  19
TORSDOF 7
ENDMDL
MODEL 2
REMARK VINA RESULT:      -8.0      5.635     11.510
REMARK  Name = 
REMARK  8 active torsions:
REMARK  status: ('A' for Active; 'I' for Inactive)
REMARK    1  A    between atoms: C_1  and  C_2
REMARK    2  A    between atoms: C_3  and  O_4
REMARK    3  A    between atoms: O_4  and  C_5
REMARK    4  A    between atoms: C_5  and  C_6
REMARK    5  A    between atoms: C_6  and  C_7
REMARK    6  A    between atoms: C_7  and  C_8
REMARK    7  A    between atoms: C_8  and  N_9
REMARK    8  A    between atoms: N_12  and  C_13
REMARK                            x       y       z     vdW  Elec       q    Type
REMARK                         _______ _______ _______ _____ _____    ______ ____
ROOT
ATOM      1  C   UNL     1       7.369   8.181  17.239  0.00  0.00    +0.000 C 
ENDROOT
BRANCH   1   2
ATOM      2  N   UNL     1       6.682   6.927  17.415  0.00  0.00    +0.000 NA
ATOM      3  C   UNL     1       5.231   6.976  17.174  0.00  0.00    +0.000 C 
ATOM      4  C   UNL     1       4.826   5.594  16.623  0.00  0.00    +0.000 C 
ATOM      5  N   UNL     1       5.132   4.573  17.639  0.00  0.00    +0.000 N 
ATOM      6  C   UNL     1       6.551   4.575  18.064  0.00  0.00    +0.000 C 
ATOM      7  C   UNL     1       6.987   5.997  18.503  0.00  0.00    +0.000 C 
BRANCH   5   8
ATOM      8  C   UNL     1       4.212   3.684  18.170  0.00  0.00    +0.000 A 
ATOM      9  C   UNL     1       4.226   2.363  17.662  0.00  0.00    +0.000 A 
ATOM     10  C   UNL     1       3.390   1.364  18.136  0.00  0.00    +0.000 A 
ATOM     11  C   UNL     1       2.376   1.697  19.005  0.00  0.00    +0.000 A 
ATOM     12  C   UNL     1       2.222   3.017  19.420  0.00  0.00    +0.000 A 
ATOM     13  C   UNL     1       1.009   3.365  20.007  0.00  0.00    +0.000 A 
ATOM     14  C   UNL     1       0.790   4.686  20.338  0.00  0.00    +0.000 A 
ATOM     15  C   UNL     1       1.868   5.495  20.599  0.00  0.00    +0.000 A 
ATOM     16  C   UNL     1       3.048   5.189  19.938  0.00  0.00    +0.000 A 
ATOM     17  F   UNL     1       4.014   6.111  20.037  0.00  0.00    +0.000 F 
ATOM     18  C   UNL     1       3.207   4.004  19.154  0.00  0.00    +0.000 A 
ENDBRANCH   5   8
ENDBRANCH   1   2
BRANCH   1  19
ATOM     19  C   UNL     1       8.378   8.478  18.345  0.00  0.00    +0.000 C 
BRANCH  19  20
ATOM     20  C   UNL     1       8.759   9.953  18.371  0.00  0.00    +0.000 C 
BRANCH  20  21
ATOM     21  C   UNL     1       9.637  10.244  19.583  0.00  0.00    +0.000 C 
BRANCH  21  22
ATOM     22  O   UNL     1      10.004  11.617  19.542  0.00  0.00    +0.000 OA
BRANCH  22  25
ATOM     23  C   UNL     1       9.071  13.808  18.057  0.00  0.00    +0.000 C 
ATOM     24  C   UNL     1       8.758  13.610  19.514  0.00  0.00    +0.000 A 
ATOM     25  C   UNL     1       9.231  12.503  20.248  0.00  0.00    +0.000 A 
ATOM     26  C   UNL     1       8.905  12.363  21.617  0.00  0.00    +0.000 A 
ATOM     27  C   UNL     1       8.106  13.305  22.274  0.00  0.00    +0.000 A 
ATOM     28  C   UNL     1       7.634  14.389  21.554  0.00  0.00    +0.000 A 
ATOM     29  C   UNL     1       7.982  14.527  20.207  0.00  0.00    +0.000 A 
ATOM     30  C   UNL     1       7.332  15.748  19.722  0.00  0.00    +0.000 C 
ATOM     31  O   UNL     1       7.366  16.215  18.601  0.00  0.00    +0.000 OA
ATOM     32  N   UNL     1       6.640  16.307  20.805  0.00  0.00    +0.000 N 
ATOM     33  C   UNL     1       6.763  15.510  21.965  0.00  0.00    +0.000 C 
ATOM     34  H   UNL     1       6.107  17.167  20.695  0.00  0.00    +0.000 HD
ENDBRANCH  22  25
ENDBRANCH  21  22
ENDBRANCH  20  21
ENDBRANCH  19  20
ENDBRANCH   1  19
TORSDOF 7
ENDMDL
MODEL 3
REMARK VINA RESULT:      -7.9      6.717     11.764
REMARK  Name = 
REMARK  8 active torsions:
REMARK  status: ('A' for Active; 'I' for Inactive)
REMARK    1  A    between atoms: C_1  and  C_2
REMARK    2  A    between atoms: C_3  and  O_4
REMARK    3  A    between atoms: O_4  and  C_5
REMARK    4  A    between atoms: C_5  and  C_6
REMARK    5  A    between atoms: C_6  and  C_7
REMARK    6  A    between atoms: C_7  and  C_8
REMARK    7  A    between atoms: C_8  and  N_9
REMARK    8  A    between atoms: N_12  and  C_13
REMARK                            x       y       z     vdW  Elec       q    Type
REMARK                         _______ _______ _______ _____ _____    ______ ____
ROOT
ATOM      1  C   UNL     1       7.406   8.172  17.224  0.00  0.00    +0.000 C 
ENDROOT
BRANCH   1   2
ATOM      2  N   UNL     1       6.708   6.922  17.395  0.00  0.00    +0.000 NA
ATOM      3  C   UNL     1       5.255   6.988  17.174  0.00  0.00    +0.000 C 
ATOM      4  C   UNL     1       4.829   5.617  16.612  0.00  0.00    +0.000 C 
ATOM      5  N   UNL     1       5.139   4.581  17.611  0.00  0.00    +0.000 N 
ATOM      6  C   UNL     1       6.563   4.564  18.016  0.00  0.00    +0.000 C 
ATOM      7  C   UNL     1       7.019   5.976  18.467  0.00  0.00    +0.000 C 
BRANCH   5   8
ATOM      8  C   UNL     1       4.218   3.695  18.144  0.00  0.00    +0.000 A 
ATOM      9  C   UNL     1       4.215   2.379  17.624  0.00  0.00    +0.000 A 
ATOM     10  C   UNL     1       3.377   1.381  18.098  0.00  0.00    +0.000 A 
ATOM     11  C   UNL     1       2.375   1.714  18.980  0.00  0.00    +0.000 A 
ATOM     12  C   UNL     1       2.236   3.032  19.408  0.00  0.00    +0.000 A 
ATOM     13  C   UNL     1       1.031   3.384  20.012  0.00  0.00    +0.000 A 
ATOM     14  C   UNL     1       0.827   4.704  20.357  0.00  0.00    +0.000 A 
ATOM     15  C   UNL     1       1.914   5.501  20.614  0.00  0.00    +0.000 A 
ATOM     16  C   UNL     1       3.084   5.193  19.938  0.00  0.00    +0.000 A 
ATOM     17  F   UNL     1       4.058   6.106  20.035  0.00  0.00    +0.000 F 
ATOM     18  C   UNL     1       3.225   4.014  19.142  0.00  0.00    +0.000 A 
ENDBRANCH   5   8
ENDBRANCH   1   2
BRANCH   1  19
ATOM     19  C   UNL     1       8.348   8.501  18.378  0.00  0.00    +0.000 C 
BRANCH  19  20
ATOM     20  C   UNL     1       8.852   9.936  18.296  0.00  0.00    +0.000 C 
BRANCH  20  21
ATOM     21  C   UNL     1       9.482  10.346  19.622  0.00  0.00    +0.000 C 
BRANCH  21  22
ATOM     22  O   UNL     1       9.411  11.762  19.726  0.00  0.00    +0.000 OA
BRANCH  22  25
ATOM     23  C   UNL     1      10.213  14.433  20.042  0.00  0.00    +0.000 C 
ATOM     24  C   UNL     1       9.554  13.638  21.134  0.00  0.00    +0.000 A 
ATOM     25  C   UNL     1       9.154  12.298  20.961  0.00  0.00    +0.000 A 
ATOM     26  C   UNL     1       8.535  11.595  22.022  0.00  0.00    +0.000 A 
ATOM     27  C   UNL     1       8.298  12.206  23.258  0.00  0.00    +0.000 A 
ATOM     28  C   UNL     1       8.684  13.525  23.428  0.00  0.00    +0.000 A 
ATOM     29  C   UNL     1       9.314  14.200  22.379  0.00  0.00    +0.000 A 
ATOM     30  C   UNL     1       9.587  15.561  22.851  0.00  0.00    +0.000 C 
ATOM     31  O   UNL     1      10.108  16.472  22.238  0.00  0.00    +0.000 OA
ATOM     32  N   UNL     1       9.132  15.640  24.174  0.00  0.00    +0.000 N 
ATOM     33  C   UNL     1       8.541  14.425  24.591  0.00  0.00    +0.000 C 
ATOM     34  H   UNL     1       9.218  16.503  24.705  0.00  0.00    +0.000 HD
ENDBRANCH  22  25
ENDBRANCH  21  22
ENDBRANCH  20  21
ENDBRANCH  19  20
ENDBRANCH   1  19
TORSDOF 7
ENDMDL
MODEL 4
REMARK VINA RESULT:      -7.8      3.290      5.212
REMARK  Name = 
REMARK  8 active torsions:
REMARK  status: ('A' for Active; 'I' for Inactive)
REMARK    1  A    between atoms: C_1  and  C_2
REMARK    2  A    between atoms: C_3  and  O_4
REMARK    3  A    between atoms: O_4  and  C_5
REMARK    4  A    between atoms: C_5  and  C_6
REMARK    5  A    between atoms: C_6  and  C_7
REMARK    6  A    between atoms: C_7  and  C_8
REMARK    7  A    between atoms: C_8  and  N_9
REMARK    8  A    between atoms: N_12  and  C_13
REMARK                            x       y       z     vdW  Elec       q    Type
REMARK                         _______ _______ _______ _____ _____    ______ ____
ROOT
ATOM      1  C   UNL     1       3.098   7.040  18.658  0.00  0.00    +0.000 C 
ENDROOT
BRANCH   1   2
ATOM      2  N   UNL     1       2.325   8.235  18.891  0.00  0.00    +0.000 NA
ATOM      3  C   UNL     1       1.159   8.057  19.770  0.00  0.00    +0.000 C 
ATOM      4  C   UNL     1       0.965   9.388  20.524  0.00  0.00    +0.000 C 
ATOM      5  N   UNL     1       0.696  10.451  19.542  0.00  0.00    +0.000 N 
ATOM      6  C   UNL     1       1.752  10.579  18.512  0.00  0.00    +0.000 C 
ATOM      7  C   UNL     1       2.028   9.209  17.839  0.00  0.00    +0.000 C 
BRANCH   5   8
ATOM      8  C   UNL     1      -0.422  11.268  19.546  0.00  0.00    +0.000 A 
ATOM      9  C   UNL     1      -0.424  12.352  20.457  0.00  0.00    +0.000 A 
ATOM     10  C   UNL     1      -1.459  13.272  20.533  0.00  0.00    +0.000 A 
ATOM     11  C   UNL     1      -2.620  13.031  19.834  0.00  0.00    +0.000 A 
ATOM     12  C   UNL     1      -2.728  11.894  19.039  0.00  0.00    +0.000 A 
ATOM     13  C   UNL     1      -4.006  11.516  18.634  0.00  0.00    +0.000 A 
ATOM     14  C   UNL     1      -4.155  10.340  17.929  0.00  0.00    +0.000 A 
ATOM     15  C   UNL     1      -3.099   9.867  17.191  0.00  0.00    +0.000 A 
ATOM     16  C   UNL     1      -1.829  10.176  17.656  0.00  0.00    +0.000 A 
ATOM     17  F   UNL     1      -0.826   9.527  17.053  0.00  0.00    +0.000 F 
ATOM     18  C   UNL     1      -1.606  11.077  18.744  0.00  0.00    +0.000 A 
ENDBRANCH   5   8
ENDBRANCH   1   2
BRANCH   1  19
ATOM     19  C   UNL     1       3.992   7.130  17.425  0.00  0.00    +0.000 C 
BRANCH  19  20
ATOM     20  C   UNL     1       5.197   6.204  17.541  0.00  0.00    +0.000 C 
BRANCH  20  21
ATOM     21  C   UNL     1       5.162   5.160  16.431  0.00  0.00    +0.000 C 
BRANCH  21  22
ATOM     22  O   UNL     1       4.908   3.893  17.024  0.00  0.00    +0.000 OA
BRANCH  22  25
ATOM     23  C   UNL     1       5.097   3.119  19.714  0.00  0.00    +0.000 C 
ATOM     24  C   UNL     1       3.786   3.326  19.009  0.00  0.00    +0.000 A 
ATOM     25  C   UNL     1       3.705   3.717  17.658  0.00  0.00    +0.000 A 
ATOM     26  C   UNL     1       2.445   3.901  17.042  0.00  0.00    +0.000 A 
ATOM     27  C   UNL     1       1.254   3.708  17.751  0.00  0.00    +0.000 A 
ATOM     28  C   UNL     1       1.332   3.330  19.081  0.00  0.00    +0.000 A 
ATOM     29  C   UNL     1       2.583   3.131  19.671  0.00  0.00    +0.000 A 
ATOM     30  C   UNL     1       2.342   2.754  21.066  0.00  0.00    +0.000 C 
ATOM     31  O   UNL     1       3.165   2.511  21.926  0.00  0.00    +0.000 OA
ATOM     32  N   UNL     1       0.953   2.718  21.252  0.00  0.00    +0.000 N 
ATOM     33  C   UNL     1       0.264   3.084  20.073  0.00  0.00    +0.000 C 
ATOM     34  H   UNL     1       0.553   2.479  22.156  0.00  0.00    +0.000 HD
ENDBRANCH  22  25
ENDBRANCH  21  22
ENDBRANCH  20  21
ENDBRANCH  19  20
ENDBRANCH   1  19
TORSDOF 7
ENDMDL
MODEL 5
REMARK VINA RESULT:      -7.8      5.726      7.359
REMARK  Name = 
REMARK  8 active torsions:
REMARK  status: ('A' for Active; 'I' for Inactive)
REMARK    1  A    between atoms: C_1  and  C_2
REMARK    2  A    between atoms: C_3  and  O_4
REMARK    3  A    between atoms: O_4  and  C_5
REMARK    4  A    between atoms: C_5  and  C_6
REMARK    5  A    between atoms: C_6  and  C_7
REMARK    6  A    between atoms: C_7  and  C_8
REMARK    7  A    between atoms: C_8  and  N_9
REMARK    8  A    between atoms: N_12  and  C_13
REMARK                            x       y       z     vdW  Elec       q    Type
REMARK                         _______ _______ _______ _____ _____    ______ ____
ROOT
ATOM      1  C   UNL     1       8.657   8.597  18.664  0.00  0.00    +0.000 C 
ENDROOT
BRANCH   1   2
ATOM      2  N   UNL     1       8.979  10.002  18.694  0.00  0.00    +0.000 NA
ATOM      3  C   UNL     1       9.337  10.527  20.020  0.00  0.00    +0.000 C 
ATOM      4  C   UNL     1      10.355  11.663  19.788  0.00  0.00    +0.000 C 
ATOM      5  N   UNL     1       9.710  12.716  18.987  0.00  0.00    +0.000 N 
ATOM      6  C   UNL     1       9.166  12.226  17.700  0.00  0.00    +0.000 C 
ATOM      7  C   UNL     1       8.237  11.006  17.930  0.00  0.00    +0.000 C 
BRANCH   5   8
ATOM      8  C   UNL     1       9.602  14.044  19.366  0.00  0.00    +0.000 A 
ATOM      9  C   UNL     1       8.638  14.355  20.355  0.00  0.00    +0.000 A 
ATOM     10  C   UNL     1       8.457  15.635  20.856  0.00  0.00    +0.000 A 
ATOM     11  C   UNL     1       9.101  16.688  20.249  0.00  0.00    +0.000 A 
ATOM     12  C   UNL     1       9.946  16.454  19.167  0.00  0.00    +0.000 A 
ATOM     13  C   UNL     1      10.298  17.549  18.382  0.00  0.00    +0.000 A 
ATOM     14  C   UNL     1      11.053  17.334  17.248  0.00  0.00    +0.000 A 
ATOM     15  C   UNL     1      11.872  16.233  17.192  0.00  0.00    +0.000 A 
ATOM     16  C   UNL     1      11.464  15.118  17.908  0.00  0.00    +0.000 A 
ATOM     17  F   UNL     1      12.154  13.998  17.664  0.00  0.00    +0.000 F 
ATOM     18  C   UNL     1      10.346  15.143  18.799  0.00  0.00    +0.000 A 
ENDBRANCH   5   8
ENDBRANCH   1   2
BRANCH   1  19
ATOM     19  C   UNL     1       7.825   8.193  17.451  0.00  0.00    +0.000 C 
BRANCH  19  20
ATOM     20  C   UNL     1       6.915   7.013  17.766  0.00  0.00    +0.000 C 
BRANCH  20  21
ATOM     21  C   UNL     1       5.796   6.925  16.734  0.00  0.00    +0.000 C 
BRANCH  21  22
ATOM     22  O   UNL     1       4.557   6.868  17.430  0.00  0.00    +0.000 OA
BRANCH  22  25
ATOM     23  C   UNL     1       2.575   6.773  19.414  0.00  0.00    +0.000 C 
ATOM     24  C   UNL     1       2.993   5.572  18.612  0.00  0.00    +0.000 A 
ATOM     25  C   UNL     1       3.988   5.634  17.616  0.00  0.00    +0.000 A 
ATOM     26  C   UNL     1       4.343   4.475  16.888  0.00  0.00    +0.000 A 
ATOM     27  C   UNL     1       3.717   3.246  17.128  0.00  0.00    +0.000 A 
ATOM     28  C   UNL     1       2.734   3.184  18.100  0.00  0.00    +0.000 A 
ATOM     29  C   UNL     1       2.409   4.333  18.828  0.00  0.00    +0.000 A 
ATOM     30  C   UNL     1       1.342   3.960  19.761  0.00  0.00    +0.000 C 
ATOM     31  O   UNL     1       0.767   4.672  20.559  0.00  0.00    +0.000 OA
ATOM     32  N   UNL     1       1.087   2.594  19.573  0.00  0.00    +0.000 N 
ATOM     33  C   UNL     1       1.894   2.053  18.547  0.00  0.00    +0.000 C 
ATOM     34  H   UNL     1       0.373   2.117  20.120  0.00  0.00    +0.000 HD
ENDBRANCH  22  25
ENDBRANCH  21  22
ENDBRANCH  20  21
ENDBRANCH  19  20
ENDBRANCH   1  19
TORSDOF 7
ENDMDL
MODEL 6
REMARK VINA RESULT:      -7.8      3.572      5.743
REMARK  Name = 
REMARK  8 active torsions:
REMARK  status: ('A' for Active; 'I' for Inactive)
REMARK    1  A    between atoms: C_1  and  C_2
REMARK    2  A    between atoms: C_3  and  O_4
REMARK    3  A    between atoms: O_4  and  C_5
REMARK    4  A    between atoms: C_5  and  C_6
REMARK    5  A    between atoms: C_6  and  C_7
REMARK    6  A    between atoms: C_7  and  C_8
REMARK    7  A    between atoms: C_8  and  N_9
REMARK    8  A    between atoms: N_12  and  C_13
REMARK                            x       y       z     vdW  Elec       q    Type
REMARK                         _______ _______ _______ _____ _____    ______ ____
ROOT
ATOM      1  C   UNL     1       2.728   6.388  19.921  0.00  0.00    +0.000 C 
ENDROOT
BRANCH   1   2
ATOM      2  N   UNL     1       2.062   7.666  19.924  0.00  0.00    +0.000 NA
ATOM      3  C   UNL     1       0.870   7.742  20.783  0.00  0.00    +0.000 C 
ATOM      4  C   UNL     1       0.782   9.193  21.295  0.00  0.00    +0.000 C 
ATOM      5  N   UNL     1       0.627  10.092  20.140  0.00  0.00    +0.000 N 
ATOM      6  C   UNL     1       1.708   9.952  19.137  0.00  0.00    +0.000 C 
ATOM      7  C   UNL     1       1.871   8.469  18.715  0.00  0.00    +0.000 C 
BRANCH   5   8
ATOM      8  C   UNL     1      -0.413  10.991  19.970  0.00  0.00    +0.000 A 
ATOM      9  C   UNL     1      -0.513  12.046  20.909  0.00  0.00    +0.000 A 
ATOM     10  C   UNL     1      -1.478  13.038  20.830  0.00  0.00    +0.000 A 
ATOM     11  C   UNL     1      -2.500  12.905  19.918  0.00  0.00    +0.000 A 
ATOM     12  C   UNL     1      -2.534  11.801  19.070  0.00  0.00    +0.000 A 
ATOM     13  C   UNL     1      -3.736  11.532  18.419  0.00  0.00    +0.000 A 
ATOM     14  C   UNL     1      -3.830  10.391  17.651  0.00  0.00    +0.000 A 
ATOM     15  C   UNL     1      -2.688   9.861  17.103  0.00  0.00    +0.000 A 
ATOM     16  C   UNL     1      -1.511  10.060  17.808  0.00  0.00    +0.000 A 
ATOM     17  F   UNL     1      -0.460   9.355  17.376  0.00  0.00    +0.000 F 
ATOM     18  C   UNL     1      -1.435  10.911  18.955  0.00  0.00    +0.000 A 
ENDBRANCH   5   8
ENDBRANCH   1   2
BRANCH   1  19
ATOM     19  C   UNL     1       1.891   5.272  19.305  0.00  0.00    +0.000 C 
BRANCH  19  20
ATOM     20  C   UNL     1       2.150   5.140  17.809  0.00  0.00    +0.000 C 
BRANCH  20  21
ATOM     21  C   UNL     1       2.209   3.668  17.417  0.00  0.00    +0.000 C 
BRANCH  21  22
ATOM     22  O   UNL     1       3.573   3.267  17.411  0.00  0.00    +0.000 OA
BRANCH  22  25
ATOM     23  C   UNL     1       5.250   3.547  19.643  0.00  0.00    +0.000 C 
ATOM     24  C   UNL     1       5.372   4.401  18.412  0.00  0.00    +0.000 A 
ATOM     25  C   UNL     1       4.524   4.248  17.297  0.00  0.00    +0.000 A 
ATOM     26  C   UNL     1       4.682   5.076  16.161  0.00  0.00    +0.000 A 
ATOM     27  C   UNL     1       5.679   6.057  16.110  0.00  0.00    +0.000 A 
ATOM     28  C   UNL     1       6.518   6.204  17.202  0.00  0.00    +0.000 A 
ATOM     29  C   UNL     1       6.336   5.394  18.326  0.00  0.00    +0.000 A 
ATOM     30  C   UNL     1       7.367   5.773  19.296  0.00  0.00    +0.000 C 
ATOM     31  O   UNL     1       7.567   5.297  20.396  0.00  0.00    +0.000 OA
ATOM     32  N   UNL     1       8.111   6.814  18.724  0.00  0.00    +0.000 N 
ATOM     33  C   UNL     1       7.657   7.119  17.421  0.00  0.00    +0.000 C 
ATOM     34  H   UNL     1       8.890   7.235  19.225  0.00  0.00    +0.000 HD
ENDBRANCH  22  25
ENDBRANCH  21  22
ENDBRANCH  20  21
ENDBRANCH  19  20
ENDBRANCH   1  19
TORSDOF 7
ENDMDL
MODEL 7
REMARK VINA RESULT:      -7.7      6.882     12.015
REMARK  Name = 
REMARK  8 active torsions:
REMARK  status: ('A' for Active; 'I' for Inactive)
REMARK    1  A    between atoms: C_1  and  C_2
REMARK    2  A    between atoms: C_3  and  O_4
REMARK    3  A    between atoms: O_4  and  C_5
REMARK    4  A    between atoms: C_5  and  C_6
REMARK    5  A    between atoms: C_6  and  C_7
REMARK    6  A    between atoms: C_7  and  C_8
REMARK    7  A    between atoms: C_8  and  N_9
REMARK    8  A    between atoms: N_12  and  C_13
REMARK                            x       y       z     vdW  Elec       q    Type
REMARK                         _______ _______ _______ _____ _____    ______ ____
ROOT
ATOM      1  C   UNL     1       8.166   7.689  17.387  0.00  0.00    +0.000 C 
ENDROOT
BRANCH   1   2
ATOM      2  N   UNL     1       7.197   6.622  17.384  0.00  0.00    +0.000 NA
ATOM      3  C   UNL     1       5.793   7.060  17.390  0.00  0.00    +0.000 C 
ATOM      4  C   UNL     1       4.992   5.994  16.615  0.00  0.00    +0.000 C 
ATOM      5  N   UNL     1       5.119   4.707  17.317  0.00  0.00    +0.000 N 
ATOM      6  C   UNL     1       6.524   4.277  17.504  0.00  0.00    +0.000 C 
ATOM      7  C   UNL     1       7.354   5.401  18.176  0.00  0.00    +0.000 C 
BRANCH   5   8
ATOM      8  C   UNL     1       4.056   3.946  17.774  0.00  0.00    +0.000 A 
ATOM      9  C   UNL     1       3.730   2.784  17.034  0.00  0.00    +0.000 A 
ATOM     10  C   UNL     1       2.719   1.911  17.405  0.00  0.00    +0.000 A 
ATOM     11  C   UNL     1       1.869   2.269  18.426  0.00  0.00    +0.000 A 
ATOM     12  C   UNL     1       2.052   3.478  19.091  0.00  0.00    +0.000 A 
ATOM     13  C   UNL     1       0.994   3.951  19.863  0.00  0.00    +0.000 A 
ATOM     14  C   UNL     1       1.109   5.192  20.452  0.00  0.00    +0.000 A 
ATOM     15  C   UNL     1       2.359   5.681  20.738  0.00  0.00    +0.000 A 
ATOM     16  C   UNL     1       3.391   5.272  19.906  0.00  0.00    +0.000 A 
ATOM     17  F   UNL     1       4.547   5.926  20.065  0.00  0.00    +0.000 F 
ATOM     18  C   UNL     1       3.219   4.266  18.905  0.00  0.00    +0.000 A 
ENDBRANCH   5   8
ENDBRANCH   1   2
BRANCH   1  19
ATOM     19  C   UNL     1       7.595   9.023  17.856  0.00  0.00    +0.000 C 
BRANCH  19  20
ATOM     20  C   UNL     1       8.671  10.101  17.916  0.00  0.00    +0.000 C 
BRANCH  20  21
ATOM     21  C   UNL     1       9.077  10.353  19.363  0.00  0.00    +0.000 C 
BRANCH  21  22
ATOM     22  O   UNL     1      10.434  10.778  19.373  0.00  0.00    +0.000 OA
BRANCH  22  25
ATOM     23  C   UNL     1      10.182  13.047  21.004  0.00  0.00    +0.000 C 
ATOM     24  C   UNL     1      10.608  13.114  19.565  0.00  0.00    +0.000 A 
ATOM     25  C   UNL     1      10.733  11.966  18.756  0.00  0.00    +0.000 A 
ATOM     26  C   UNL     1      11.139  12.084  17.407  0.00  0.00    +0.000 A 
ATOM     27  C   UNL     1      11.434  13.330  16.842  0.00  0.00    +0.000 A 
ATOM     28  C   UNL     1      11.318  14.459  17.636  0.00  0.00    +0.000 A 
ATOM     29  C   UNL     1      10.894  14.330  18.962  0.00  0.00    +0.000 A 
ATOM     30  C   UNL     1      10.882  15.677  19.538  0.00  0.00    +0.000 C 
ATOM     31  O   UNL     1      10.591  16.000  20.673  0.00  0.00    +0.000 OA
ATOM     32  N   UNL     1      11.276  16.564  18.527  0.00  0.00    +0.000 N 
ATOM     33  C   UNL     1      11.583  15.880  17.329  0.00  0.00    +0.000 C 
ATOM     34  H   UNL     1      11.343  17.564  18.706  0.00  0.00    +0.000 HD
ENDBRANCH  22  25
ENDBRANCH  21  22
ENDBRANCH  20  21
ENDBRANCH  19  20
ENDBRANCH   1  19
TORSDOF 7
ENDMDL
MODEL 8
REMARK VINA RESULT:      -7.7      6.735     11.966
REMARK  Name = 
REMARK  8 active torsions:
REMARK  status: ('A' for Active; 'I' for Inactive)
REMARK    1  A    between atoms: C_1  and  C_2
REMARK    2  A    between atoms: C_3  and  O_4
REMARK    3  A    between atoms: O_4  and  C_5
REMARK    4  A    between atoms: C_5  and  C_6
REMARK    5  A    between atoms: C_6  and  C_7
REMARK    6  A    between atoms: C_7  and  C_8
REMARK    7  A    between atoms: C_8  and  N_9
REMARK    8  A    between atoms: N_12  and  C_13
REMARK                            x       y       z     vdW  Elec       q    Type
REMARK                         _______ _______ _______ _____ _____    ______ ____
ROOT
ATOM      1  C   UNL     1       7.985   8.079  17.300  0.00  0.00    +0.000 C 
ENDROOT
BRANCH   1   2
ATOM      2  N   UNL     1       6.850   7.250  17.622  0.00  0.00    +0.000 NA
ATOM      3  C   UNL     1       5.547   7.930  17.556  0.00  0.00    +0.000 C 
ATOM      4  C   UNL     1       4.514   6.869  17.130  0.00  0.00    +0.000 C 
ATOM      5  N   UNL     1       4.477   5.810  18.152  0.00  0.00    +0.000 N 
ATOM      6  C   UNL     1       5.797   5.188  18.401  0.00  0.00    +0.000 C 
ATOM      7  C   UNL     1       6.861   6.273  18.712  0.00  0.00    +0.000 C 
BRANCH   5   8
ATOM      8  C   UNL     1       3.341   5.409  18.835  0.00  0.00    +0.000 A 
ATOM      9  C   UNL     1       2.871   6.263  19.862  0.00  0.00    +0.000 A 
ATOM     10  C   UNL     1       1.722   6.003  20.593  0.00  0.00    +0.000 A 
ATOM     11  C   UNL     1       1.105   4.781  20.455  0.00  0.00    +0.000 A 
ATOM     12  C   UNL     1       1.618   3.840  19.567  0.00  0.00    +0.000 A 
ATOM     13  C   UNL     1       1.182   2.524  19.707  0.00  0.00    +0.000 A 
ATOM     14  C   UNL     1       1.746   1.553  18.907  0.00  0.00    +0.000 A 
ATOM     15  C   UNL     1       2.270   1.914  17.690  0.00  0.00    +0.000 A 
ATOM     16  C   UNL     1       2.781   3.198  17.591  0.00  0.00    +0.000 A 
ATOM     17  F   UNL     1       3.478   3.452  16.477  0.00  0.00    +0.000 F 
ATOM     18  C   UNL     1       2.631   4.169  18.629  0.00  0.00    +0.000 A 
ENDBRANCH   5   8
ENDBRANCH   1   2
BRANCH   1  19
ATOM     19  C   UNL     1       8.672   8.667  18.529  0.00  0.00    +0.000 C 
BRANCH  19  20
ATOM     20  C   UNL     1       8.995  10.143  18.335  0.00  0.00    +0.000 C 
BRANCH  20  21
ATOM     21  C   UNL     1       9.352  10.780  19.673  0.00  0.00    +0.000 C 
BRANCH  21  22
ATOM     22  O   UNL     1      10.663  11.322  19.568  0.00  0.00    +0.000 OA
BRANCH  22  25
ATOM     23  C   UNL     1      10.413  13.757  20.941  0.00  0.00    +0.000 C 
ATOM     24  C   UNL     1      10.703  13.670  19.469  0.00  0.00    +0.000 A 
ATOM     25  C   UNL     1      10.828  12.440  18.792  0.00  0.00    +0.000 A 
ATOM     26  C   UNL     1      11.105  12.414  17.405  0.00  0.00    +0.000 A 
ATOM     27  C   UNL     1      11.267  13.595  16.673  0.00  0.00    +0.000 A 
ATOM     28  C   UNL     1      11.151  14.805  17.337  0.00  0.00    +0.000 A 
ATOM     29  C   UNL     1      10.856  14.816  18.704  0.00  0.00    +0.000 A 
ATOM     30  C   UNL     1      10.809  16.222  19.117  0.00  0.00    +0.000 C 
ATOM     31  O   UNL     1      10.600  16.665  20.229  0.00  0.00    +0.000 OA
ATOM     32  N   UNL     1      11.054  16.998  17.977  0.00  0.00    +0.000 N 
ATOM     33  C   UNL     1      11.296  16.190  16.843  0.00  0.00    +0.000 C 
ATOM     34  H   UNL     1      11.072  18.014  18.031  0.00  0.00    +0.000 HD
ENDBRANCH  22  25
ENDBRANCH  21  22
ENDBRANCH  20  21
ENDBRANCH  19  20
ENDBRANCH   1  19
TORSDOF 7
ENDMDL
MODEL 9
REMARK VINA RESULT:      -7.7      3.090      5.439
REMARK  Name = 
REMARK  8 active torsions:
REMARK  status: ('A' for Active; 'I' for Inactive)
REMARK    1  A    between atoms: C_1  and  C_2
REMARK    2  A    between atoms: C_3  and  O_4
REMARK    3  A    between atoms: O_4  and  C_5
REMARK    4  A    between atoms: C_5  and  C_6
REMARK    5  A    between atoms: C_6  and  C_7
REMARK    6  A    between atoms: C_7  and  C_8
REMARK    7  A    between atoms: C_8  and  N_9
REMARK    8  A    between atoms: N_12  and  C_13
REMARK                            x       y       z     vdW  Elec       q    Type
REMARK                         _______ _______ _______ _____ _____    ______ ____
ROOT
ATOM      1  C   UNL     1       2.650   7.100  18.670  0.00  0.00    +0.000 C 
ENDROOT
BRANCH   1   2
ATOM      2  N   UNL     1       1.800   8.191  19.075  0.00  0.00    +0.000 NA
ATOM      3  C   UNL     1       1.935   9.414  18.269  0.00  0.00    +0.000 C 
ATOM      4  C   UNL     1       0.551  10.095  18.259  0.00  0.00    +0.000 C 
ATOM      5  N   UNL     1       0.187  10.442  19.643  0.00  0.00    +0.000 N 
ATOM      6  C   UNL     1       0.196   9.280  20.561  0.00  0.00    +0.000 C 
ATOM      7  C   UNL     1       1.550   8.528  20.477  0.00  0.00    +0.000 C 
BRANCH   5   8
ATOM      8  C   UNL     1      -0.135  11.716  20.081  0.00  0.00    +0.000 A 
ATOM      9  C   UNL     1       0.893  12.462  20.705  0.00  0.00    +0.000 A 
ATOM     10  C   UNL     1       0.718  13.764  21.149  0.00  0.00    +0.000 A 
ATOM     11  C   UNL     1      -0.548  14.301  21.159  0.00  0.00    +0.000 A 
ATOM     12  C   UNL     1      -1.626  13.551  20.696  0.00  0.00    +0.000 A 
ATOM     13  C   UNL     1      -2.903  13.988  21.036  0.00  0.00    +0.000 A 
ATOM     14  C   UNL     1      -3.985  13.212  20.676  0.00  0.00    +0.000 A 
ATOM     15  C   UNL     1      -3.876  12.380  19.590  0.00  0.00    +0.000 A 
ATOM     16  C   UNL     1      -2.612  11.879  19.316  0.00  0.00    +0.000 A 
ATOM     17  F   UNL     1      -2.569  10.907  18.397  0.00  0.00    +0.000 F 
ATOM     18  C   UNL     1      -1.442  12.324  20.006  0.00  0.00    +0.000 A 
ENDBRANCH   5   8
ENDBRANCH   1   2
BRANCH   1  19
ATOM     19  C   UNL     1       2.122   5.733  19.091  0.00  0.00    +0.000 C 
BRANCH  19  20
ATOM     20  C   UNL     1       1.927   4.815  17.891  0.00  0.00    +0.000 C 
BRANCH  20  21
ATOM     21  C   UNL     1       2.683   3.508  18.104  0.00  0.00    +0.000 C 
BRANCH  21  22
ATOM     22  O   UNL     1       3.723   3.438  17.137  0.00  0.00    +0.000 OA
BRANCH  22  25
ATOM     23  C   UNL     1       5.377   3.527  19.402  0.00  0.00    +0.000 C 
ATOM     24  C   UNL     1       5.490   4.502  18.264  0.00  0.00    +0.000 A 
ATOM     25  C   UNL     1       4.654   4.444  17.130  0.00  0.00    +0.000 A 
ATOM     26  C   UNL     1       4.804   5.384  16.084  0.00  0.00    +0.000 A 
ATOM     27  C   UNL     1       5.781   6.385  16.140  0.00  0.00    +0.000 A 
ATOM     28  C   UNL     1       6.607   6.439  17.250  0.00  0.00    +0.000 A 
ATOM     29  C   UNL     1       6.434   5.517  18.286  0.00  0.00    +0.000 A 
ATOM     30  C   UNL     1       7.450   5.818  19.299  0.00  0.00    +0.000 C 
ATOM     31  O   UNL     1       7.651   5.239  20.347  0.00  0.00    +0.000 OA
ATOM     32  N   UNL     1       8.177   6.925  18.840  0.00  0.00    +0.000 N 
ATOM     33  C   UNL     1       7.726   7.350  17.570  0.00  0.00    +0.000 C 
ATOM     34  H   UNL     1       8.942   7.310  19.388  0.00  0.00    +0.000 HD
ENDBRANCH  22  25
ENDBRANCH  21  22
ENDBRANCH  20  21
ENDBRANCH  19  20
ENDBRANCH   1  19
TORSDOF 7
ENDMDL
