MODEL 1
REMARK VINA RESULT:      -8.6      0.000      0.000
REMARK  Name = 
REMARK  5 active torsions:
REMARK  status: ('A' for Active; 'I' for Inactive)
REMARK    1  A    between atoms: C_1  and  C_2
REMARK    2  A    between atoms: N_11  and  C_12
REMARK    3  A    between atoms: C_14  and  C_15
REMARK    4  A    between atoms: C_18  and  C_19
REMARK    5  A    between atoms: C_21  and  C_22
REMARK                            x       y       z     vdW  Elec       q    Type
REMARK                         _______ _______ _______ _____ _____    ______ ____
ROOT
ATOM      1  C   UNL     1       6.007   3.576  14.717  0.00  0.00    +0.000 C 
ATOM      2  C   UNL     1       6.436   4.698  15.633  0.00  0.00    +0.000 C 
ATOM      3  O   UNL     1       7.625   5.020  15.727  0.00  0.00    +0.000 OA
ATOM      4  N   UNL     1       5.437   5.304  16.372  0.00  0.00    +0.000 N 
ATOM      5  C   UNL     1       5.795   6.207  17.431  0.00  0.00    +0.000 C 
ATOM      6  C   UNL     1       4.503   6.476  18.195  0.00  0.00    +0.000 C 
ATOM      7  C   UNL     1       4.034   7.892  17.792  0.00  0.00    +0.000 C 
ATOM      8  N   UNL     1       2.599   7.832  17.827  0.00  0.00    +0.000 N 
ATOM      9  C   UNL     1       1.836   8.986  17.853  0.00  0.00    +0.000 C 
ATOM     10  O   UNL     1       2.364  10.086  17.701  0.00  0.00    +0.000 OA
ATOM     11  N   UNL     1       0.495   8.775  18.106  0.00  0.00    +0.000 N 
ATOM     12  C   UNL     1       2.158   6.464  17.800  0.00  0.00    +0.000 C 
ATOM     13  C   UNL     1       3.391   5.528  17.677  0.00  0.00    +0.000 C 
ATOM     14  C   UNL     1       4.015   4.976  16.371  0.00  0.00    +0.000 C 
ATOM     15  H   UNL     1       0.272   7.895  18.538  0.00  0.00    +0.000 HD
ENDROOT
BRANCH  11  16
ATOM     16  C   UNL     1      -0.537   9.750  18.113  0.00  0.00    +0.000 A 
ATOM     17  C   UNL     1      -1.418   9.895  17.031  0.00  0.00    +0.000 A 
ATOM     18  C   UNL     1      -2.442  10.856  17.038  0.00  0.00    +0.000 A 
ATOM     19  C   UNL     1      -3.374  10.981  15.870  0.00  0.00    +0.000 C 
ATOM     20  C   UNL     1      -2.581  11.693  18.142  0.00  0.00    +0.000 A 
ATOM     21  C   UNL     1      -1.725  11.558  19.233  0.00  0.00    +0.000 A 
ATOM     22  C   UNL     1      -0.702  10.590  19.238  0.00  0.00    +0.000 A 
ATOM     23  C   UNL     1       0.170  10.500  20.462  0.00  0.00    +0.000 C 
ENDBRANCH  11  16
BRANCH  13  24
ATOM     24  C   UNL     1       2.665   4.264  18.140  0.00  0.00    +0.000 C 
ATOM     25  O   UNL     1       2.402   3.424  17.257  0.00  0.00    +0.000 OA
ATOM     26  N   UNL     1       2.214   4.026  19.391  0.00  0.00    +0.000 N 
ATOM     27  C   UNL     1       2.327   4.832  20.574  0.00  0.00    +0.000 C 
ATOM     28  C   UNL     1       2.274   3.801  21.687  0.00  0.00    +0.000 C 
ATOM     29  C   UNL     1       1.394   2.674  21.150  0.00  0.00    +0.000 C 
ATOM     30  C   UNL     1       1.439   2.821  19.643  0.00  0.00    +0.000 C 
ENDBRANCH  13  24
TORSDOF 2
ENDMDL
MODEL 2
REMARK VINA RESULT:      -8.0      2.975      8.557
REMARK  Name = 
REMARK  5 active torsions:
REMARK  status: ('A' for Active; 'I' for Inactive)
REMARK    1  A    between atoms: C_1  and  C_2
REMARK    2  A    between atoms: N_11  and  C_12
REMARK    3  A    between atoms: C_14  and  C_15
REMARK    4  A    between atoms: C_18  and  C_19
REMARK    5  A    between atoms: C_21  and  C_22
REMARK                            x       y       z     vdW  Elec       q    Type
REMARK                         _______ _______ _______ _____ _____    ______ ____
ROOT
ATOM      1  C   UNL     1       1.420  15.347  20.741  0.00  0.00    +0.000 C 
ATOM      2  C   UNL     1       0.962  14.664  19.474  0.00  0.00    +0.000 C 
ATOM      3  O   UNL     1       0.651  15.323  18.477  0.00  0.00    +0.000 OA
ATOM      4  N   UNL     1       0.880  13.285  19.515  0.00  0.00    +0.000 N 
ATOM      5  C   UNL     1       0.231  12.587  18.439  0.00  0.00    +0.000 C 
ATOM      6  C   UNL     1       0.079  11.147  18.916  0.00  0.00    +0.000 C 
ATOM      7  C   UNL     1       1.149  10.316  18.174  0.00  0.00    +0.000 C 
ATOM      8  N   UNL     1       1.532   9.289  19.102  0.00  0.00    +0.000 N 
ATOM      9  C   UNL     1       2.216   8.163  18.680  0.00  0.00    +0.000 C 
ATOM     10  O   UNL     1       2.637   8.085  17.527  0.00  0.00    +0.000 OA
ATOM     11  N   UNL     1       2.321   7.170  19.634  0.00  0.00    +0.000 N 
ATOM     12  C   UNL     1       1.128   9.647  20.435  0.00  0.00    +0.000 C 
ATOM     13  C   UNL     1       0.474  11.055  20.413  0.00  0.00    +0.000 C 
ATOM     14  C   UNL     1       1.180  12.415  20.647  0.00  0.00    +0.000 C 
ATOM     15  H   UNL     1       1.657   7.225  20.387  0.00  0.00    +0.000 HD
ENDROOT
BRANCH  11  16
ATOM     16  C   UNL     1       3.030   5.945  19.519  0.00  0.00    +0.000 A 
ATOM     17  C   UNL     1       4.336   5.898  19.010  0.00  0.00    +0.000 A 
ATOM     18  C   UNL     1       5.040   4.687  18.899  0.00  0.00    +0.000 A 
ATOM     19  C   UNL     1       6.440   4.670  18.359  0.00  0.00    +0.000 C 
ATOM     20  C   UNL     1       4.424   3.503  19.295  0.00  0.00    +0.000 A 
ATOM     21  C   UNL     1       3.131   3.529  19.816  0.00  0.00    +0.000 A 
ATOM     22  C   UNL     1       2.422   4.740  19.938  0.00  0.00    +0.000 A 
ATOM     23  C   UNL     1       1.037   4.682  20.524  0.00  0.00    +0.000 C 
ENDBRANCH  11  16
BRANCH  13  24
ATOM     24  C   UNL     1      -0.221  10.918  21.767  0.00  0.00    +0.000 C 
ATOM     25  O   UNL     1       0.313  10.142  22.585  0.00  0.00    +0.000 OA
ATOM     26  N   UNL     1      -1.395  11.488  22.114  0.00  0.00    +0.000 N 
ATOM     27  C   UNL     1      -2.243  12.369  21.361  0.00  0.00    +0.000 C 
ATOM     28  C   UNL     1      -2.955  13.156  22.446  0.00  0.00    +0.000 C 
ATOM     29  C   UNL     1      -3.065  12.199  23.631  0.00  0.00    +0.000 C 
ATOM     30  C   UNL     1      -1.982  11.164  23.405  0.00  0.00    +0.000 C 
ENDBRANCH  13  24
TORSDOF 2
ENDMDL
MODEL 3
REMARK VINA RESULT:      -8.0      3.017      8.920
REMARK  Name = 
REMARK  5 active torsions:
REMARK  status: ('A' for Active; 'I' for Inactive)
REMARK    1  A    between atoms: C_1  and  C_2
REMARK    2  A    between atoms: N_11  and  C_12
REMARK    3  A    between atoms: C_14  and  C_15
REMARK    4  A    between atoms: C_18  and  C_19
REMARK    5  A    between atoms: C_21  and  C_22
REMARK                            x       y       z     vdW  Elec       q    Type
REMARK                         _______ _______ _______ _____ _____    ______ ____
ROOT
ATOM      1  C   UNL     1      -3.003  12.951  20.423  0.00  0.00    +0.000 C 
ATOM      2  C   UNL     1      -2.289  12.212  21.529  0.00  0.00    +0.000 C 
ATOM      3  O   UNL     1      -2.671  12.301  22.700  0.00  0.00    +0.000 OA
ATOM      4  N   UNL     1      -1.181  11.473  21.159  0.00  0.00    +0.000 N 
ATOM      5  C   UNL     1      -0.317  10.942  22.177  0.00  0.00    +0.000 C 
ATOM      6  C   UNL     1       0.918  10.430  21.443  0.00  0.00    +0.000 C 
ATOM      7  C   UNL     1       0.807   8.890  21.405  0.00  0.00    +0.000 C 
ATOM      8  N   UNL     1       1.418   8.504  20.164  0.00  0.00    +0.000 N 
ATOM      9  C   UNL     1       1.806   7.196  19.935  0.00  0.00    +0.000 C 
ATOM     10  O   UNL     1       1.505   6.308  20.731  0.00  0.00    +0.000 OA
ATOM     11  N   UNL     1       2.572   7.020  18.799  0.00  0.00    +0.000 N 
ATOM     12  C   UNL     1       1.509   9.635  19.281  0.00  0.00    +0.000 C 
ATOM     13  C   UNL     1       0.852  10.869  19.957  0.00  0.00    +0.000 C 
ATOM     14  C   UNL     1      -0.619  11.334  19.819  0.00  0.00    +0.000 C 
ATOM     15  H   UNL     1       3.015   7.851  18.447  0.00  0.00    +0.000 HD
ENDROOT
BRANCH  11  16
ATOM     16  C   UNL     1       3.043   5.791  18.268  0.00  0.00    +0.000 A 
ATOM     17  C   UNL     1       2.354   4.587  18.478  0.00  0.00    +0.000 A 
ATOM     18  C   UNL     1       2.816   3.371  17.950  0.00  0.00    +0.000 A 
ATOM     19  C   UNL     1       2.052   2.101  18.184  0.00  0.00    +0.000 C 
ATOM     20  C   UNL     1       3.994   3.356  17.207  0.00  0.00    +0.000 A 
ATOM     21  C   UNL     1       4.687   4.542  16.975  0.00  0.00    +0.000 A 
ATOM     22  C   UNL     1       4.225   5.767  17.493  0.00  0.00    +0.000 A 
ATOM     23  C   UNL     1       5.025   7.004  17.184  0.00  0.00    +0.000 C 
ENDBRANCH  11  16
BRANCH  13  24
ATOM     24  C   UNL     1       1.510  11.905  19.046  0.00  0.00    +0.000 C 
ATOM     25  O   UNL     1       1.954  11.483  17.960  0.00  0.00    +0.000 OA
ATOM     26  N   UNL     1       1.728  13.202  19.354  0.00  0.00    +0.000 N 
ATOM     27  C   UNL     1       1.378  13.934  20.539  0.00  0.00    +0.000 C 
ATOM     28  C   UNL     1       1.250  15.357  20.028  0.00  0.00    +0.000 C 
ATOM     29  C   UNL     1       2.242  15.461  18.872  0.00  0.00    +0.000 C 
ATOM     30  C   UNL     1       2.473  14.033  18.420  0.00  0.00    +0.000 C 
ENDBRANCH  13  24
TORSDOF 2
ENDMDL
MODEL 4
REMARK VINA RESULT:      -7.7      1.199      1.443
REMARK  Name = 
REMARK  5 active torsions:
REMARK  status: ('A' for Active; 'I' for Inactive)
REMARK    1  A    between atoms: C_1  and  C_2
REMARK    2  A    between atoms: N_11  and  C_12
REMARK    3  A    between atoms: C_14  and  C_15
REMARK    4  A    between atoms: C_18  and  C_19
REMARK    5  A    between atoms: C_21  and  C_22
REMARK                            x       y       z     vdW  Elec       q    Type
REMARK                         _______ _______ _______ _____ _____    ______ ____
ROOT
ATOM      1  C   UNL     1       5.943   3.450  14.712  0.00  0.00    +0.000 C 
ATOM      2  C   UNL     1       6.469   4.801  15.138  0.00  0.00    +0.000 C 
ATOM      3  O   UNL     1       7.547   5.224  14.709  0.00  0.00    +0.000 OA
ATOM      4  N   UNL     1       5.699   5.501  16.048  0.00  0.00    +0.000 N 
ATOM      5  C   UNL     1       6.245   6.672  16.677  0.00  0.00    +0.000 C 
ATOM      6  C   UNL     1       5.269   7.033  17.791  0.00  0.00    +0.000 C 
ATOM      7  C   UNL     1       4.462   8.255  17.299  0.00  0.00    +0.000 C 
ATOM      8  N   UNL     1       3.159   8.099  17.879  0.00  0.00    +0.000 N 
ATOM      9  C   UNL     1       2.272   9.159  17.941  0.00  0.00    +0.000 C 
ATOM     10  O   UNL     1       2.526  10.218  17.370  0.00  0.00    +0.000 OA
ATOM     11  N   UNL     1       1.153   8.921  18.715  0.00  0.00    +0.000 N 
ATOM     12  C   UNL     1       2.967   6.741  18.314  0.00  0.00    +0.000 C 
ATOM     13  C   UNL     1       4.219   5.901  17.943  0.00  0.00    +0.000 C 
ATOM     14  C   UNL     1       4.438   5.077  16.649  0.00  0.00    +0.000 C 
ATOM     15  H   UNL     1       1.241   8.169  19.377  0.00  0.00    +0.000 HD
ENDROOT
BRANCH  11  16
ATOM     16  C   UNL     1       0.041   9.784  18.899  0.00  0.00    +0.000 A 
ATOM     17  C   UNL     1      -0.909   9.983  17.885  0.00  0.00    +0.000 A 
ATOM     18  C   UNL     1      -2.012  10.832  18.066  0.00  0.00    +0.000 A 
ATOM     19  C   UNL     1      -3.016  11.018  16.967  0.00  0.00    +0.000 C 
ATOM     20  C   UNL     1      -2.163  11.502  19.277  0.00  0.00    +0.000 A 
ATOM     21  C   UNL     1      -1.239  11.309  20.302  0.00  0.00    +0.000 A 
ATOM     22  C   UNL     1      -0.135  10.452  20.132  0.00  0.00    +0.000 A 
ATOM     23  C   UNL     1       0.808  10.287  21.293  0.00  0.00    +0.000 C 
ENDBRANCH  11  16
BRANCH  13  24
ATOM     24  C   UNL     1       3.916   4.751  18.902  0.00  0.00    +0.000 C 
ATOM     25  O   UNL     1       4.740   4.567  19.821  0.00  0.00    +0.000 OA
ATOM     26  N   UNL     1       2.894   3.876  18.788  0.00  0.00    +0.000 N 
ATOM     27  C   UNL     1       1.843   3.817  17.812  0.00  0.00    +0.000 C 
ATOM     28  C   UNL     1       0.720   3.132  18.569  0.00  0.00    +0.000 C 
ATOM     29  C   UNL     1       1.414   2.199  19.559  0.00  0.00    +0.000 C 
ATOM     30  C   UNL     1       2.810   2.763  19.723  0.00  0.00    +0.000 C 
ENDBRANCH  13  24
TORSDOF 2
ENDMDL
MODEL 5
REMARK VINA RESULT:      -7.5      4.081      9.809
REMARK  Name = 
REMARK  5 active torsions:
REMARK  status: ('A' for Active; 'I' for Inactive)
REMARK    1  A    between atoms: C_1  and  C_2
REMARK    2  A    between atoms: N_11  and  C_12
REMARK    3  A    between atoms: C_14  and  C_15
REMARK    4  A    between atoms: C_18  and  C_19
REMARK    5  A    between atoms: C_21  and  C_22
REMARK                            x       y       z     vdW  Elec       q    Type
REMARK                         _______ _______ _______ _____ _____    ______ ____
ROOT
ATOM      1  C   UNL     1      -3.601  15.569  20.958  0.00  0.00    +0.000 C 
ATOM      2  C   UNL     1      -3.539  14.575  22.093  0.00  0.00    +0.000 C 
ATOM      3  O   UNL     1      -4.367  14.607  23.009  0.00  0.00    +0.000 OA
ATOM      4  N   UNL     1      -2.496  13.669  22.059  0.00  0.00    +0.000 N 
ATOM      5  C   UNL     1      -2.233  12.855  23.215  0.00  0.00    +0.000 C 
ATOM      6  C   UNL     1      -0.890  12.184  22.948  0.00  0.00    +0.000 C 
ATOM      7  C   UNL     1      -1.192  10.716  22.575  0.00  0.00    +0.000 C 
ATOM      8  N   UNL     1      -0.172  10.355  21.631  0.00  0.00    +0.000 N 
ATOM      9  C   UNL     1       0.086   9.030  21.328  0.00  0.00    +0.000 C 
ATOM     10  O   UNL     1      -0.648   8.140  21.752  0.00  0.00    +0.000 OA
ATOM     11  N   UNL     1       1.229   8.829  20.579  0.00  0.00    +0.000 N 
ATOM     12  C   UNL     1       0.446  11.536  21.091  0.00  0.00    +0.000 C 
ATOM     13  C   UNL     1      -0.253  12.795  21.673  0.00  0.00    +0.000 C 
ATOM     14  C   UNL     1      -1.443  13.570  21.053  0.00  0.00    +0.000 C 
ATOM     15  H   UNL     1       1.894   9.584  20.599  0.00  0.00    +0.000 HD
ENDROOT
BRANCH  11  16
ATOM     16  C   UNL     1       1.702   7.598  20.054  0.00  0.00    +0.000 A 
ATOM     17  C   UNL     1       1.686   6.421  20.817  0.00  0.00    +0.000 A 
ATOM     18  C   UNL     1       2.149   5.200  20.298  0.00  0.00    +0.000 A 
ATOM     19  C   UNL     1       2.111   3.956  21.134  0.00  0.00    +0.000 C 
ATOM     20  C   UNL     1       2.646   5.159  18.998  0.00  0.00    +0.000 A 
ATOM     21  C   UNL     1       2.659   6.315  18.218  0.00  0.00    +0.000 A 
ATOM     22  C   UNL     1       2.187   7.540  18.729  0.00  0.00    +0.000 A 
ATOM     23  C   UNL     1       2.222   8.737  17.817  0.00  0.00    +0.000 C 
ENDBRANCH  11  16
BRANCH  13  24
ATOM     24  C   UNL     1       0.870  13.768  21.315  0.00  0.00    +0.000 C 
ATOM     25  O   UNL     1       1.286  14.494  22.240  0.00  0.00    +0.000 OA
ATOM     26  N   UNL     1       1.379  13.966  20.080  0.00  0.00    +0.000 N 
ATOM     27  C   UNL     1       1.054  13.319  18.841  0.00  0.00    +0.000 C 
ATOM     28  C   UNL     1       2.342  13.449  18.047  0.00  0.00    +0.000 C 
ATOM     29  C   UNL     1       2.979  14.752  18.524  0.00  0.00    +0.000 C 
ATOM     30  C   UNL     1       2.369  15.015  19.886  0.00  0.00    +0.000 C 
ENDBRANCH  13  24
TORSDOF 2
ENDMDL
MODEL 6
REMARK VINA RESULT:      -7.4      3.232      9.127
REMARK  Name = 
REMARK  5 active torsions:
REMARK  status: ('A' for Active; 'I' for Inactive)
REMARK    1  A    between atoms: C_1  and  C_2
REMARK    2  A    between atoms: N_11  and  C_12
REMARK    3  A    between atoms: C_14  and  C_15
REMARK    4  A    between atoms: C_18  and  C_19
REMARK    5  A    between atoms: C_21  and  C_22
REMARK                            x       y       z     vdW  Elec       q    Type
REMARK                         _______ _______ _______ _____ _____    ______ ____
ROOT
ATOM      1  C   UNL     1      -4.780  13.277  21.459  0.00  0.00    +0.000 C 
ATOM      2  C   UNL     1      -3.422  13.429  22.103  0.00  0.00    +0.000 C 
ATOM      3  O   UNL     1      -3.257  14.195  23.058  0.00  0.00    +0.000 OA
ATOM      4  N   UNL     1      -2.392  12.697  21.544  0.00  0.00    +0.000 N 
ATOM      5  C   UNL     1      -1.039  12.968  21.945  0.00  0.00    +0.000 C 
ATOM      6  C   UNL     1      -0.158  12.199  20.967  0.00  0.00    +0.000 C 
ATOM      7  C   UNL     1       0.371  10.959  21.723  0.00  0.00    +0.000 C 
ATOM      8  N   UNL     1       0.481   9.934  20.724  0.00  0.00    +0.000 N 
ATOM      9  C   UNL     1       1.231   8.793  20.950  0.00  0.00    +0.000 C 
ATOM     10  O   UNL     1       1.700   8.567  22.064  0.00  0.00    +0.000 OA
ATOM     11  N   UNL     1       1.423   8.007  19.831  0.00  0.00    +0.000 N 
ATOM     12  C   UNL     1      -0.296  10.283  19.565  0.00  0.00    +0.000 C 
ATOM     13  C   UNL     1      -1.036  11.622  19.827  0.00  0.00    +0.000 C 
ATOM     14  C   UNL     1      -2.467  11.801  20.395  0.00  0.00    +0.000 C 
ATOM     15  H   UNL     1       1.283   8.472  18.950  0.00  0.00    +0.000 HD
ENDROOT
BRANCH  11  16
ATOM     16  C   UNL     1       2.076   6.748  19.772  0.00  0.00    +0.000 A 
ATOM     17  C   UNL     1       1.770   5.720  20.676  0.00  0.00    +0.000 A 
ATOM     18  C   UNL     1       2.412   4.472  20.617  0.00  0.00    +0.000 A 
ATOM     19  C   UNL     1       2.057   3.388  21.592  0.00  0.00    +0.000 C 
ATOM     20  C   UNL     1       3.383   4.252  19.644  0.00  0.00    +0.000 A 
ATOM     21  C   UNL     1       3.693   5.255  18.728  0.00  0.00    +0.000 A 
ATOM     22  C   UNL     1       3.047   6.506  18.775  0.00  0.00    +0.000 A 
ATOM     23  C   UNL     1       3.429   7.529  17.739  0.00  0.00    +0.000 C 
ENDBRANCH  11  16
BRANCH  13  24
ATOM     24  C   UNL     1      -1.332  11.918  18.357  0.00  0.00    +0.000 C 
ATOM     25  O   UNL     1      -0.870  12.985  17.905  0.00  0.00    +0.000 OA
ATOM     26  N   UNL     1      -2.113  11.176  17.543  0.00  0.00    +0.000 N 
ATOM     27  C   UNL     1      -2.807   9.948  17.810  0.00  0.00    +0.000 C 
ATOM     28  C   UNL     1      -2.895   9.308  16.436  0.00  0.00    +0.000 C 
ATOM     29  C   UNL     1      -2.972  10.474  15.453  0.00  0.00    +0.000 C 
ATOM     30  C   UNL     1      -2.389  11.658  16.198  0.00  0.00    +0.000 C 
ENDBRANCH  13  24
TORSDOF 2
ENDMDL
MODEL 7
REMARK VINA RESULT:      -7.3      3.909     10.066
REMARK  Name = 
REMARK  5 active torsions:
REMARK  status: ('A' for Active; 'I' for Inactive)
REMARK    1  A    between atoms: C_1  and  C_2
REMARK    2  A    between atoms: N_11  and  C_12
REMARK    3  A    between atoms: C_14  and  C_15
REMARK    4  A    between atoms: C_18  and  C_19
REMARK    5  A    between atoms: C_21  and  C_22
REMARK                            x       y       z     vdW  Elec       q    Type
REMARK                         _______ _______ _______ _____ _____    ______ ____
ROOT
ATOM      1  C   UNL     1      -5.277  13.911  21.213  0.00  0.00    +0.000 C 
ATOM      2  C   UNL     1      -4.383  13.523  22.367  0.00  0.00    +0.000 C 
ATOM      3  O   UNL     1      -4.704  13.780  23.531  0.00  0.00    +0.000 OA
ATOM      4  N   UNL     1      -3.190  12.906  22.039  0.00  0.00    +0.000 N 
ATOM      5  C   UNL     1      -2.189  12.725  23.054  0.00  0.00    +0.000 C 
ATOM      6  C   UNL     1      -0.932  12.276  22.317  0.00  0.00    +0.000 C 
ATOM      7  C   UNL     1      -0.783  10.760  22.573  0.00  0.00    +0.000 C 
ATOM      8  N   UNL     1      -0.191  10.237  21.374  0.00  0.00    +0.000 N 
ATOM      9  C   UNL     1       0.398   8.985  21.356  0.00  0.00    +0.000 C 
ATOM     10  O   UNL     1       0.300   8.235  22.325  0.00  0.00    +0.000 OA
ATOM     11  N   UNL     1       1.113   8.710  20.206  0.00  0.00    +0.000 N 
ATOM     12  C   UNL     1      -0.345  11.173  20.294  0.00  0.00    +0.000 C 
ATOM     13  C   UNL     1      -1.160  12.399  20.788  0.00  0.00    +0.000 C 
ATOM     14  C   UNL     1      -2.694  12.595  20.702  0.00  0.00    +0.000 C 
ATOM     15  H   UNL     1       1.388   9.514  19.668  0.00  0.00    +0.000 HD
ENDROOT
BRANCH  11  16
ATOM     16  C   UNL     1       1.753   7.488  19.869  0.00  0.00    +0.000 A 
ATOM     17  C   UNL     1       1.682   6.367  20.708  0.00  0.00    +0.000 A 
ATOM     18  C   UNL     1       2.310   5.156  20.375  0.00  0.00    +0.000 A 
ATOM     19  C   UNL     1       2.208   3.970  21.288  0.00  0.00    +0.000 C 
ATOM     20  C   UNL     1       3.031   5.068  19.186  0.00  0.00    +0.000 A 
ATOM     21  C   UNL     1       3.104   6.167  18.332  0.00  0.00    +0.000 A 
ATOM     22  C   UNL     1       2.468   7.382  18.655  0.00  0.00    +0.000 A 
ATOM     23  C   UNL     1       2.583   8.514  17.671  0.00  0.00    +0.000 C 
ENDBRANCH  11  16
BRANCH  13  24
ATOM     24  C   UNL     1      -0.743  13.325  19.646  0.00  0.00    +0.000 C 
ATOM     25  O   UNL     1      -0.436  12.773  18.571  0.00  0.00    +0.000 OA
ATOM     26  N   UNL     1      -0.594  14.665  19.730  0.00  0.00    +0.000 N 
ATOM     27  C   UNL     1      -0.820  15.544  20.843  0.00  0.00    +0.000 C 
ATOM     28  C   UNL     1      -1.149  16.862  20.167  0.00  0.00    +0.000 C 
ATOM     29  C   UNL     1      -0.360  16.853  18.860  0.00  0.00    +0.000 C 
ATOM     30  C   UNL     1      -0.077  15.391  18.580  0.00  0.00    +0.000 C 
ENDBRANCH  13  24
TORSDOF 2
ENDMDL
MODEL 8
REMARK VINA RESULT:      -7.1      4.055      9.928
REMARK  Name = 
REMARK  5 active torsions:
REMARK  status: ('A' for Active; 'I' for Inactive)
REMARK    1  A    between atoms: C_1  and  C_2
REMARK    2  A    between atoms: N_11  and  C_12
REMARK    3  A    between atoms: C_14  and  C_15
REMARK    4  A    between atoms: C_18  and  C_19
REMARK    5  A    between atoms: C_21  and  C_22
REMARK                            x       y       z     vdW  Elec       q    Type
REMARK                         _______ _______ _______ _____ _____    ______ ____
ROOT
ATOM      1  C   UNL     1      -4.881  14.502  21.017  0.00  0.00    +0.000 C 
ATOM      2  C   UNL     1      -4.197  13.916  22.230  0.00  0.00    +0.000 C 
ATOM      3  O   UNL     1      -4.663  14.082  23.362  0.00  0.00    +0.000 OA
ATOM      4  N   UNL     1      -3.021  13.227  21.999  0.00  0.00    +0.000 N 
ATOM      5  C   UNL     1      -2.196  12.850  23.114  0.00  0.00    +0.000 C 
ATOM      6  C   UNL     1      -0.885  12.363  22.508  0.00  0.00    +0.000 C 
ATOM      7  C   UNL     1      -0.894  10.821  22.607  0.00  0.00    +0.000 C 
ATOM      8  N   UNL     1      -0.176  10.370  21.448  0.00  0.00    +0.000 N 
ATOM      9  C   UNL     1       0.309   9.077  21.366  0.00  0.00    +0.000 C 
ATOM     10  O   UNL     1       0.012   8.244  22.221  0.00  0.00    +0.000 OA
ATOM     11  N   UNL     1       1.160   8.854  20.301  0.00  0.00    +0.000 N 
ATOM     12  C   UNL     1      -0.098  11.422  20.471  0.00  0.00    +0.000 C 
ATOM     13  C   UNL     1      -0.877  12.662  20.987  0.00  0.00    +0.000 C 
ATOM     14  C   UNL     1      -2.363  13.009  20.715  0.00  0.00    +0.000 C 
ATOM     15  H   UNL     1       1.572   9.680  19.901  0.00  0.00    +0.000 HD
ENDROOT
BRANCH  11  16
ATOM     16  C   UNL     1       1.744   7.619  19.917  0.00  0.00    +0.000 A 
ATOM     17  C   UNL     1       1.688   6.490  20.748  0.00  0.00    +0.000 A 
ATOM     18  C   UNL     1       2.261   5.266  20.368  0.00  0.00    +0.000 A 
ATOM     19  C   UNL     1       2.176   4.073  21.274  0.00  0.00    +0.000 C 
ATOM     20  C   UNL     1       2.911   5.171  19.140  0.00  0.00    +0.000 A 
ATOM     21  C   UNL     1       2.967   6.277  18.293  0.00  0.00    +0.000 A 
ATOM     22  C   UNL     1       2.387   7.505  18.663  0.00  0.00    +0.000 A 
ATOM     23  C   UNL     1       2.479   8.645  17.685  0.00  0.00    +0.000 C 
ENDBRANCH  11  16
BRANCH  13  24
ATOM     24  C   UNL     1      -0.227  13.656  20.025  0.00  0.00    +0.000 C 
ATOM     25  O   UNL     1      -0.728  13.731  18.886  0.00  0.00    +0.000 OA
ATOM     26  N   UNL     1       0.883  14.385  20.274  0.00  0.00    +0.000 N 
ATOM     27  C   UNL     1       1.686  14.454  21.463  0.00  0.00    +0.000 C 
ATOM     28  C   UNL     1       2.289  15.845  21.379  0.00  0.00    +0.000 C 
ATOM     29  C   UNL     1       2.430  16.133  19.886  0.00  0.00    +0.000 C 
ATOM     30  C   UNL     1       1.444  15.202  19.209  0.00  0.00    +0.000 C 
ENDBRANCH  13  24
TORSDOF 2
ENDMDL
MODEL 9
REMARK VINA RESULT:      -7.1      2.938      8.939
REMARK  Name = 
REMARK  5 active torsions:
REMARK  status: ('A' for Active; 'I' for Inactive)
REMARK    1  A    between atoms: C_1  and  C_2
REMARK    2  A    between atoms: N_11  and  C_12
REMARK    3  A    between atoms: C_14  and  C_15
REMARK    4  A    between atoms: C_18  and  C_19
REMARK    5  A    between atoms: C_21  and  C_22
REMARK                            x       y       z     vdW  Elec       q    Type
REMARK                         _______ _______ _______ _____ _____    ______ ____
ROOT
ATOM      1  C   UNL     1      -2.973  12.585  20.230  0.00  0.00    +0.000 C 
ATOM      2  C   UNL     1      -2.226  11.878  21.337  0.00  0.00    +0.000 C 
ATOM      3  O   UNL     1      -2.629  11.926  22.503  0.00  0.00    +0.000 OA
ATOM      4  N   UNL     1      -1.068  11.219  20.972  0.00  0.00    +0.000 N 
ATOM      5  C   UNL     1      -0.184  10.731  21.995  0.00  0.00    +0.000 C 
ATOM      6  C   UNL     1       1.090  10.311  21.272  0.00  0.00    +0.000 C 
ATOM      7  C   UNL     1       1.081   8.767  21.212  0.00  0.00    +0.000 C 
ATOM      8  N   UNL     1       1.732   8.439  19.975  0.00  0.00    +0.000 N 
ATOM      9  C   UNL     1       2.208   7.161  19.735  0.00  0.00    +0.000 C 
ATOM     10  O   UNL     1       1.954   6.245  20.514  0.00  0.00    +0.000 OA
ATOM     11  N   UNL     1       2.998   7.052  18.607  0.00  0.00    +0.000 N 
ATOM     12  C   UNL     1       1.761   9.585  19.108  0.00  0.00    +0.000 C 
ATOM     13  C   UNL     1       1.016  10.765  19.791  0.00  0.00    +0.000 C 
ATOM     14  C   UNL     1      -0.481  11.135  19.638  0.00  0.00    +0.000 C 
ATOM     15  H   UNL     1       3.391   7.915  18.272  0.00  0.00    +0.000 HD
ENDROOT
BRANCH  11  16
ATOM     16  C   UNL     1       3.555   5.863  18.067  0.00  0.00    +0.000 A 
ATOM     17  C   UNL     1       4.941   5.704  17.917  0.00  0.00    +0.000 A 
ATOM     18  C   UNL     1       5.495   4.527  17.387  0.00  0.00    +0.000 A 
ATOM     19  C   UNL     1       6.982   4.383  17.247  0.00  0.00    +0.000 C 
ATOM     20  C   UNL     1       4.647   3.496  16.989  0.00  0.00    +0.000 A 
ATOM     21  C   UNL     1       3.268   3.628  17.141  0.00  0.00    +0.000 A 
ATOM     22  C   UNL     1       2.706   4.801  17.681  0.00  0.00    +0.000 A 
ATOM     23  C   UNL     1       1.209   4.857  17.825  0.00  0.00    +0.000 C 
ENDBRANCH  11  16
BRANCH  13  24
ATOM     24  C   UNL     1       1.617  11.854  18.903  0.00  0.00    +0.000 C 
ATOM     25  O   UNL     1       2.110  11.475  17.822  0.00  0.00    +0.000 OA
ATOM     26  N   UNL     1       1.735  13.160  19.226  0.00  0.00    +0.000 N 
ATOM     27  C   UNL     1       1.311  13.853  20.410  0.00  0.00    +0.000 C 
ATOM     28  C   UNL     1       1.092  15.269  19.908  0.00  0.00    +0.000 C 
ATOM     29  C   UNL     1       2.097  15.454  18.773  0.00  0.00    +0.000 C 
ATOM     30  C   UNL     1       2.438  14.051  18.314  0.00  0.00    +0.000 C 
ENDBRANCH  13  24
TORSDOF 2
ENDMDL
