MODEL 1
REMARK VINA RESULT:      -6.2      0.000      0.000
REMARK  Name = 
REMARK  6 active torsions:
REMARK  status: ('A' for Active; 'I' for Inactive)
REMARK    1  A    between atoms: C_1  and  C_2
REMARK    2  A    between atoms: C_2  and  O_3
REMARK    3  A    between atoms: O_3  and  C_4
REMARK    4  A    between atoms: C_12  and  C_13
REMARK    5  A    between atoms: C_15  and  C_16
REMARK    6  A    between atoms: C_16  and  N_17
REMARK                            x       y       z     vdW  Elec       q    Type
REMARK                         _______ _______ _______ _____ _____    ______ ____
ROOT
ATOM      1  C   UNL     1       2.576   5.828  19.716  0.00  0.00    +0.000 A 
ATOM      2  C   UNL     1       1.387   5.194  20.188  0.00  0.00    +0.000 A 
ATOM      3  C   UNL     1       1.192   3.817  20.055  0.00  0.00    +0.000 A 
ATOM      4  C   UNL     1       2.178   3.075  19.432  0.00  0.00    +0.000 A 
ATOM      5  O   UNL     1       2.163   1.787  19.199  0.00  0.00    +0.000 OA
ATOM      6  C   UNL     1       3.279   1.483  18.560  0.00  0.00    +0.000 A 
ATOM      7  C   UNL     1       4.045   2.623  18.374  0.00  0.00    +0.000 A 
ATOM      8  C   UNL     1       3.319   3.653  18.947  0.00  0.00    +0.000 A 
ATOM      9  C   UNL     1       3.575   5.033  19.070  0.00  0.00    +0.000 A 
ENDROOT
BRANCH   9  10
ATOM     10  C   UNL     1       4.820   5.637  18.449  0.00  0.00    +0.000 C 
ATOM     11  C   UNL     1       4.515   6.060  16.997  0.00  0.00    +0.000 C 
ATOM     12  C   UNL     1       5.523   4.969  17.270  0.00  0.00    +0.000 C 
BRANCH  12  13
ATOM     13  C   UNL     1       6.997   5.383  17.075  0.00  0.00    +0.000 C 
BRANCH  13  14
ATOM     14  N   UNL     1       7.900   4.243  17.220  0.00  0.00    +0.000 NA
ATOM     15  H   UNL     1       8.815   4.450  16.754  0.00  0.00    +0.000 HD
ATOM     16  H   UNL     1       7.482   3.390  16.784  0.00  0.00    +0.000 HD
ENDBRANCH  13  14
ENDBRANCH  12  13
ENDBRANCH   9  10
BRANCH   1  17
ATOM     17  O   UNL     1       2.749   7.176  19.825  0.00  0.00    +0.000 OA
BRANCH  17  19
ATOM     18  C   UNL     1       1.987   8.441  17.852  0.00  0.00    +0.000 C 
ATOM     19  C   UNL     1       1.887   8.165  19.357  0.00  0.00    +0.000 C 
ENDBRANCH  17  19
ENDBRANCH   1  17
TORSDOF 5
ENDMDL
MODEL 2
REMARK VINA RESULT:      -6.2      2.512      4.256
REMARK  Name = 
REMARK  6 active torsions:
REMARK  status: ('A' for Active; 'I' for Inactive)
REMARK    1  A    between atoms: C_1  and  C_2
REMARK    2  A    between atoms: C_2  and  O_3
REMARK    3  A    between atoms: O_3  and  C_4
REMARK    4  A    between atoms: C_12  and  C_13
REMARK    5  A    between atoms: C_15  and  C_16
REMARK    6  A    between atoms: C_16  and  N_17
REMARK                            x       y       z     vdW  Elec       q    Type
REMARK                         _______ _______ _______ _____ _____    ______ ____
ROOT
ATOM      1  C   UNL     1       3.003   6.377  18.644  0.00  0.00    +0.000 A 
ATOM      2  C   UNL     1       3.616   7.370  17.823  0.00  0.00    +0.000 A 
ATOM      3  C   UNL     1       4.489   7.026  16.789  0.00  0.00    +0.000 A 
ATOM      4  C   UNL     1       4.766   5.686  16.587  0.00  0.00    +0.000 A 
ATOM      5  O   UNL     1       5.570   5.176  15.688  0.00  0.00    +0.000 OA
ATOM      6  C   UNL     1       5.573   3.865  15.852  0.00  0.00    +0.000 A 
ATOM      7  C   UNL     1       4.735   3.515  16.900  0.00  0.00    +0.000 A 
ATOM      8  C   UNL     1       4.215   4.709  17.370  0.00  0.00    +0.000 A 
ATOM      9  C   UNL     1       3.314   4.999  18.414  0.00  0.00    +0.000 A 
ENDROOT
BRANCH   9  10
ATOM     10  C   UNL     1       2.789   3.886  19.301  0.00  0.00    +0.000 C 
ATOM     11  C   UNL     1       1.521   3.279  18.664  0.00  0.00    +0.000 C 
ATOM     12  C   UNL     1       1.431   3.995  19.990  0.00  0.00    +0.000 C 
BRANCH  12  13
ATOM     13  C   UNL     1       1.250   3.073  21.215  0.00  0.00    +0.000 C 
BRANCH  13  14
ATOM     14  N   UNL     1       2.505   2.890  21.941  0.00  0.00    +0.000 NA
ATOM     15  H   UNL     1       3.250   3.498  21.528  0.00  0.00    +0.000 HD
ATOM     16  H   UNL     1       2.813   1.893  21.889  0.00  0.00    +0.000 HD
ENDBRANCH  13  14
ENDBRANCH  12  13
ENDBRANCH   9  10
BRANCH   1  17
ATOM     17  O   UNL     1       2.172   6.722  19.669  0.00  0.00    +0.000 OA
BRANCH  17  19
ATOM     18  C   UNL     1       1.014   8.103  21.349  0.00  0.00    +0.000 C 
ATOM     19  C   UNL     1       1.784   8.010  20.026  0.00  0.00    +0.000 C 
ENDBRANCH  17  19
ENDBRANCH   1  17
TORSDOF 5
ENDMDL
MODEL 3
REMARK VINA RESULT:      -6.2      1.454      4.038
REMARK  Name = 
REMARK  6 active torsions:
REMARK  status: ('A' for Active; 'I' for Inactive)
REMARK    1  A    between atoms: C_1  and  C_2
REMARK    2  A    between atoms: C_2  and  O_3
REMARK    3  A    between atoms: O_3  and  C_4
REMARK    4  A    between atoms: C_12  and  C_13
REMARK    5  A    between atoms: C_15  and  C_16
REMARK    6  A    between atoms: C_16  and  N_17
REMARK                            x       y       z     vdW  Elec       q    Type
REMARK                         _______ _______ _______ _____ _____    ______ ____
ROOT
ATOM      1  C   UNL     1       3.832   4.771  19.423  0.00  0.00    +0.000 A 
ATOM      2  C   UNL     1       2.765   4.954  20.354  0.00  0.00    +0.000 A 
ATOM      3  C   UNL     1       1.942   6.081  20.309  0.00  0.00    +0.000 A 
ATOM      4  C   UNL     1       2.197   7.038  19.344  0.00  0.00    +0.000 A 
ATOM      5  O   UNL     1       1.552   8.163  19.162  0.00  0.00    +0.000 OA
ATOM      6  C   UNL     1       2.130   8.797  18.158  0.00  0.00    +0.000 A 
ATOM      7  C   UNL     1       3.192   8.051  17.672  0.00  0.00    +0.000 A 
ATOM      8  C   UNL     1       3.225   6.907  18.451  0.00  0.00    +0.000 A 
ATOM      9  C   UNL     1       4.073   5.782  18.440  0.00  0.00    +0.000 A 
ENDROOT
BRANCH   9  10
ATOM     10  C   UNL     1       5.245   5.719  17.478  0.00  0.00    +0.000 C 
ATOM     11  C   UNL     1       4.773   5.124  16.135  0.00  0.00    +0.000 C 
ATOM     12  C   UNL     1       5.787   4.384  16.974  0.00  0.00    +0.000 C 
BRANCH  12  13
ATOM     13  C   UNL     1       7.233   4.431  16.438  0.00  0.00    +0.000 C 
BRANCH  13  14
ATOM     14  N   UNL     1       7.391   5.454  15.405  0.00  0.00    +0.000 NA
ATOM     15  H   UNL     1       7.268   6.406  15.823  0.00  0.00    +0.000 HD
ATOM     16  H   UNL     1       6.683   5.320  14.650  0.00  0.00    +0.000 HD
ENDBRANCH  13  14
ENDBRANCH  12  13
ENDBRANCH   9  10
BRANCH   1  17
ATOM     17  O   UNL     1       4.648   3.680  19.489  0.00  0.00    +0.000 OA
BRANCH  17  19
ATOM     18  C   UNL     1       3.476   1.768  18.468  0.00  0.00    +0.000 C 
ATOM     19  C   UNL     1       4.252   2.356  19.653  0.00  0.00    +0.000 C 
ENDBRANCH  17  19
ENDBRANCH   1  17
TORSDOF 5
ENDMDL
MODEL 4
REMARK VINA RESULT:      -6.1      1.187      1.242
REMARK  Name = 
REMARK  6 active torsions:
REMARK  status: ('A' for Active; 'I' for Inactive)
REMARK    1  A    between atoms: C_1  and  C_2
REMARK    2  A    between atoms: C_2  and  O_3
REMARK    3  A    between atoms: O_3  and  C_4
REMARK    4  A    between atoms: C_12  and  C_13
REMARK    5  A    between atoms: C_15  and  C_16
REMARK    6  A    between atoms: C_16  and  N_17
REMARK                            x       y       z     vdW  Elec       q    Type
REMARK                         _______ _______ _______ _____ _____    ______ ____
ROOT
ATOM      1  C   UNL     1       2.998   6.415  19.178  0.00  0.00    +0.000 A 
ATOM      2  C   UNL     1       1.885   6.122  20.022  0.00  0.00    +0.000 A 
ATOM      3  C   UNL     1       1.758   4.887  20.661  0.00  0.00    +0.000 A 
ATOM      4  C   UNL     1       2.736   3.934  20.441  0.00  0.00    +0.000 A 
ATOM      5  O   UNL     1       2.777   2.721  20.931  0.00  0.00    +0.000 OA
ATOM      6  C   UNL     1       3.857   2.132  20.452  0.00  0.00    +0.000 A 
ATOM      7  C   UNL     1       4.542   3.002  19.618  0.00  0.00    +0.000 A 
ATOM      8  C   UNL     1       3.804   4.172  19.619  0.00  0.00    +0.000 A 
ATOM      9  C   UNL     1       3.990   5.406  18.966  0.00  0.00    +0.000 A 
ENDROOT
BRANCH   9  10
ATOM     10  C   UNL     1       5.151   5.595  18.007  0.00  0.00    +0.000 C 
ATOM     11  C   UNL     1       4.650   5.427  16.557  0.00  0.00    +0.000 C 
ATOM     12  C   UNL     1       5.649   4.450  17.129  0.00  0.00    +0.000 C 
BRANCH  12  13
ATOM     13  C   UNL     1       7.091   4.614  16.605  0.00  0.00    +0.000 C 
BRANCH  13  14
ATOM     14  N   UNL     1       8.076   4.168  17.589  0.00  0.00    +0.000 NA
ATOM     15  H   UNL     1       7.605   3.974  18.504  0.00  0.00    +0.000 HD
ATOM     16  H   UNL     1       8.806   4.901  17.732  0.00  0.00    +0.000 HD
ENDBRANCH  13  14
ENDBRANCH  12  13
ENDBRANCH   9  10
BRANCH   1  17
ATOM     17  O   UNL     1       3.103   7.615  18.537  0.00  0.00    +0.000 OA
BRANCH  17  19
ATOM     18  C   UNL     1       1.888   9.679  17.958  0.00  0.00    +0.000 C 
ATOM     19  C   UNL     1       2.156   8.192  17.696  0.00  0.00    +0.000 C 
ENDBRANCH  17  19
ENDBRANCH   1  17
TORSDOF 5
ENDMDL
MODEL 5
REMARK VINA RESULT:      -6.1      1.423      4.045
REMARK  Name = 
REMARK  6 active torsions:
REMARK  status: ('A' for Active; 'I' for Inactive)
REMARK    1  A    between atoms: C_1  and  C_2
REMARK    2  A    between atoms: C_2  and  O_3
REMARK    3  A    between atoms: O_3  and  C_4
REMARK    4  A    between atoms: C_12  and  C_13
REMARK    5  A    between atoms: C_15  and  C_16
REMARK    6  A    between atoms: C_16  and  N_17
REMARK                            x       y       z     vdW  Elec       q    Type
REMARK                         _______ _______ _______ _____ _____    ______ ____
ROOT
ATOM      1  C   UNL     1       2.830   4.657  19.547  0.00  0.00    +0.000 A 
ATOM      2  C   UNL     1       2.073   5.241  20.607  0.00  0.00    +0.000 A 
ATOM      3  C   UNL     1       1.668   6.577  20.566  0.00  0.00    +0.000 A 
ATOM      4  C   UNL     1       2.036   7.338  19.471  0.00  0.00    +0.000 A 
ATOM      5  O   UNL     1       1.770   8.603  19.267  0.00  0.00    +0.000 OA
ATOM      6  C   UNL     1       2.325   8.949  18.120  0.00  0.00    +0.000 A 
ATOM      7  C   UNL     1       2.977   7.861  17.560  0.00  0.00    +0.000 A 
ATOM      8  C   UNL     1       2.781   6.818  18.448  0.00  0.00    +0.000 A 
ATOM      9  C   UNL     1       3.200   5.472  18.430  0.00  0.00    +0.000 A 
ENDROOT
BRANCH   9  10
ATOM     10  C   UNL     1       4.086   4.963  17.309  0.00  0.00    +0.000 C 
ATOM     11  C   UNL     1       5.527   4.788  17.835  0.00  0.00    +0.000 C 
ATOM     12  C   UNL     1       5.233   5.807  16.760  0.00  0.00    +0.000 C 
BRANCH  12  13
ATOM     13  C   UNL     1       5.708   5.414  15.345  0.00  0.00    +0.000 C 
BRANCH  13  14
ATOM     14  N   UNL     1       7.166   5.426  15.244  0.00  0.00    +0.000 NA
ATOM     15  H   UNL     1       7.497   6.373  14.945  0.00  0.00    +0.000 HD
ATOM     16  H   UNL     1       7.488   4.719  14.545  0.00  0.00    +0.000 HD
ENDBRANCH  13  14
ENDBRANCH  12  13
ENDBRANCH   9  10
BRANCH   1  17
ATOM     17  O   UNL     1       3.244   3.359  19.605  0.00  0.00    +0.000 OA
BRANCH  17  19
ATOM     18  C   UNL     1       1.196   2.377  18.650  0.00  0.00    +0.000 C 
ATOM     19  C   UNL     1       2.438   2.226  19.537  0.00  0.00    +0.000 C 
ENDBRANCH  17  19
ENDBRANCH   1  17
TORSDOF 5
ENDMDL
MODEL 6
REMARK VINA RESULT:      -6.1      2.467      4.212
REMARK  Name = 
REMARK  6 active torsions:
REMARK  status: ('A' for Active; 'I' for Inactive)
REMARK    1  A    between atoms: C_1  and  C_2
REMARK    2  A    between atoms: C_2  and  O_3
REMARK    3  A    between atoms: O_3  and  C_4
REMARK    4  A    between atoms: C_12  and  C_13
REMARK    5  A    between atoms: C_15  and  C_16
REMARK    6  A    between atoms: C_16  and  N_17
REMARK                            x       y       z     vdW  Elec       q    Type
REMARK                         _______ _______ _______ _____ _____    ______ ____
ROOT
ATOM      1  C   UNL     1       3.676   3.772  17.293  0.00  0.00    +0.000 A 
ATOM      2  C   UNL     1       3.948   2.415  17.642  0.00  0.00    +0.000 A 
ATOM      3  C   UNL     1       3.311   1.796  18.719  0.00  0.00    +0.000 A 
ATOM      4  C   UNL     1       2.412   2.540  19.462  0.00  0.00    +0.000 A 
ATOM      5  O   UNL     1       1.740   2.141  20.511  0.00  0.00    +0.000 OA
ATOM      6  C   UNL     1       1.020   3.163  20.938  0.00  0.00    +0.000 A 
ATOM      7  C   UNL     1       1.238   4.268  20.129  0.00  0.00    +0.000 A 
ATOM      8  C   UNL     1       2.145   3.849  19.171  0.00  0.00    +0.000 A 
ATOM      9  C   UNL     1       2.746   4.517  18.085  0.00  0.00    +0.000 A 
ENDROOT
BRANCH   9  10
ATOM     10  C   UNL     1       2.472   5.991  17.849  0.00  0.00    +0.000 C 
ATOM     11  C   UNL     1       3.798   6.777  17.931  0.00  0.00    +0.000 C 
ATOM     12  C   UNL     1       2.707   7.027  18.945  0.00  0.00    +0.000 C 
BRANCH  12  13
ATOM     13  C   UNL     1       1.938   8.352  18.760  0.00  0.00    +0.000 C 
BRANCH  13  14
ATOM     14  N   UNL     1       2.193   8.943  17.447  0.00  0.00    +0.000 NA
ATOM     15  H   UNL     1       2.121   8.209  16.704  0.00  0.00    +0.000 HD
ATOM     16  H   UNL     1       3.148   9.364  17.417  0.00  0.00    +0.000 HD
ENDBRANCH  13  14
ENDBRANCH  12  13
ENDBRANCH   9  10
BRANCH   1  17
ATOM     17  O   UNL     1       4.321   4.378  16.256  0.00  0.00    +0.000 OA
BRANCH  17  19
ATOM     18  C   UNL     1       5.984   3.984  14.480  0.00  0.00    +0.000 C 
ATOM     19  C   UNL     1       5.677   4.284  15.952  0.00  0.00    +0.000 C 
ENDBRANCH  17  19
ENDBRANCH   1  17
TORSDOF 5
ENDMDL
MODEL 7
REMARK VINA RESULT:      -6.1      2.822      4.544
REMARK  Name = 
REMARK  6 active torsions:
REMARK  status: ('A' for Active; 'I' for Inactive)
REMARK    1  A    between atoms: C_1  and  C_2
REMARK    2  A    between atoms: C_2  and  O_3
REMARK    3  A    between atoms: O_3  and  C_4
REMARK    4  A    between atoms: C_12  and  C_13
REMARK    5  A    between atoms: C_15  and  C_16
REMARK    6  A    between atoms: C_16  and  N_17
REMARK                            x       y       z     vdW  Elec       q    Type
REMARK                         _______ _______ _______ _____ _____    ______ ____
ROOT
ATOM      1  C   UNL     1       3.564   6.145  17.938  0.00  0.00    +0.000 A 
ATOM      2  C   UNL     1       4.149   7.249  17.249  0.00  0.00    +0.000 A 
ATOM      3  C   UNL     1       5.041   7.062  16.192  0.00  0.00    +0.000 A 
ATOM      4  C   UNL     1       5.366   5.766  15.833  0.00  0.00    +0.000 A 
ATOM      5  O   UNL     1       6.193   5.394  14.890  0.00  0.00    +0.000 OA
ATOM      6  C   UNL     1       6.241   4.075  14.895  0.00  0.00    +0.000 A 
ATOM      7  C   UNL     1       5.408   3.573  15.884  0.00  0.00    +0.000 A 
ATOM      8  C   UNL     1       4.843   4.684  16.487  0.00  0.00    +0.000 A 
ATOM      9  C   UNL     1       3.924   4.816  17.547  0.00  0.00    +0.000 A 
ENDROOT
BRANCH   9  10
ATOM     10  C   UNL     1       3.430   3.588  18.288  0.00  0.00    +0.000 C 
ATOM     11  C   UNL     1       2.378   2.858  17.426  0.00  0.00    +0.000 C 
ATOM     12  C   UNL     1       1.980   3.468  18.748  0.00  0.00    +0.000 C 
BRANCH  12  13
ATOM     13  C   UNL     1       1.742   2.453  19.886  0.00  0.00    +0.000 C 
BRANCH  13  14
ATOM     14  N   UNL     1       0.911   3.019  20.947  0.00  0.00    +0.000 NA
ATOM     15  H   UNL     1       1.516   3.450  21.685  0.00  0.00    +0.000 HD
ATOM     16  H   UNL     1       0.322   2.275  21.384  0.00  0.00    +0.000 HD
ENDBRANCH  13  14
ENDBRANCH  12  13
ENDBRANCH   9  10
BRANCH   1  17
ATOM     17  O   UNL     1       2.712   6.336  18.986  0.00  0.00    +0.000 OA
BRANCH  17  19
ATOM     18  C   UNL     1       1.464   7.507  20.759  0.00  0.00    +0.000 C 
ATOM     19  C   UNL     1       2.143   7.542  19.385  0.00  0.00    +0.000 C 
ENDBRANCH  17  19
ENDBRANCH   1  17
TORSDOF 5
ENDMDL
MODEL 8
REMARK VINA RESULT:      -6.0      1.032      1.083
REMARK  Name = 
REMARK  6 active torsions:
REMARK  status: ('A' for Active; 'I' for Inactive)
REMARK    1  A    between atoms: C_1  and  C_2
REMARK    2  A    between atoms: C_2  and  O_3
REMARK    3  A    between atoms: O_3  and  C_4
REMARK    4  A    between atoms: C_12  and  C_13
REMARK    5  A    between atoms: C_15  and  C_16
REMARK    6  A    between atoms: C_16  and  N_17
REMARK                            x       y       z     vdW  Elec       q    Type
REMARK                         _______ _______ _______ _____ _____    ______ ____
ROOT
ATOM      1  C   UNL     1       2.274   5.811  19.915  0.00  0.00    +0.000 A 
ATOM      2  C   UNL     1       1.187   4.987  20.335  0.00  0.00    +0.000 A 
ATOM      3  C   UNL     1       1.158   3.619  20.058  0.00  0.00    +0.000 A 
ATOM      4  C   UNL     1       2.208   3.075  19.342  0.00  0.00    +0.000 A 
ATOM      5  O   UNL     1       2.344   1.827  18.971  0.00  0.00    +0.000 OA
ATOM      6  C   UNL     1       3.468   1.733  18.284  0.00  0.00    +0.000 A 
ATOM      7  C   UNL     1       4.083   2.973  18.209  0.00  0.00    +0.000 A 
ATOM      8  C   UNL     1       3.254   3.838  18.902  0.00  0.00    +0.000 A 
ATOM      9  C   UNL     1       3.343   5.219  19.170  0.00  0.00    +0.000 A 
ENDROOT
BRANCH   9  10
ATOM     10  C   UNL     1       4.486   6.036  18.597  0.00  0.00    +0.000 C 
ATOM     11  C   UNL     1       3.986   6.826  17.370  0.00  0.00    +0.000 C 
ATOM     12  C   UNL     1       5.040   5.757  17.202  0.00  0.00    +0.000 C 
BRANCH  12  13
ATOM     13  C   UNL     1       6.468   6.286  16.953  0.00  0.00    +0.000 C 
BRANCH  13  14
ATOM     14  N   UNL     1       7.097   5.620  15.814  0.00  0.00    +0.000 NA
ATOM     15  H   UNL     1       6.695   5.984  14.919  0.00  0.00    +0.000 HD
ATOM     16  H   UNL     1       6.940   4.589  15.863  0.00  0.00    +0.000 HD
ENDBRANCH  13  14
ENDBRANCH  12  13
ENDBRANCH   9  10
BRANCH   1  17
ATOM     17  O   UNL     1       2.284   7.151  20.166  0.00  0.00    +0.000 OA
BRANCH  17  19
ATOM     18  C   UNL     1       0.922   9.194  20.377  0.00  0.00    +0.000 C 
ATOM     19  C   UNL     1       1.383   7.854  20.962  0.00  0.00    +0.000 C 
ENDBRANCH  17  19
ENDBRANCH   1  17
TORSDOF 5
ENDMDL
MODEL 9
REMARK VINA RESULT:      -6.0      1.535      1.573
REMARK  Name = 
REMARK  6 active torsions:
REMARK  status: ('A' for Active; 'I' for Inactive)
REMARK    1  A    between atoms: C_1  and  C_2
REMARK    2  A    between atoms: C_2  and  O_3
REMARK    3  A    between atoms: O_3  and  C_4
REMARK    4  A    between atoms: C_12  and  C_13
REMARK    5  A    between atoms: C_15  and  C_16
REMARK    6  A    between atoms: C_16  and  N_17
REMARK                            x       y       z     vdW  Elec       q    Type
REMARK                         _______ _______ _______ _____ _____    ______ ____
ROOT
ATOM      1  C   UNL     1       2.678   5.808  18.145  0.00  0.00    +0.000 A 
ATOM      2  C   UNL     1       1.514   5.019  17.900  0.00  0.00    +0.000 A 
ATOM      3  C   UNL     1       1.487   3.650  18.178  0.00  0.00    +0.000 A 
ATOM      4  C   UNL     1       2.634   3.064  18.683  0.00  0.00    +0.000 A 
ATOM      5  O   UNL     1       2.805   1.802  18.982  0.00  0.00    +0.000 OA
ATOM      6  C   UNL     1       4.048   1.655  19.404  0.00  0.00    +0.000 A 
ATOM      7  C   UNL     1       4.706   2.875  19.377  0.00  0.00    +0.000 A 
ATOM      8  C   UNL     1       3.775   3.785  18.907  0.00  0.00    +0.000 A 
ATOM      9  C   UNL     1       3.850   5.171  18.662  0.00  0.00    +0.000 A 
ENDROOT
BRANCH   9  10
ATOM     10  C   UNL     1       5.160   5.910  18.856  0.00  0.00    +0.000 C 
ATOM     11  C   UNL     1       5.738   6.299  17.479  0.00  0.00    +0.000 C 
ATOM     12  C   UNL     1       6.482   5.326  18.363  0.00  0.00    +0.000 C 
BRANCH  12  13
ATOM     13  C   UNL     1       7.740   5.901  19.046  0.00  0.00    +0.000 C 
BRANCH  13  14
ATOM     14  N   UNL     1       7.908   5.372  20.398  0.00  0.00    +0.000 NA
ATOM     15  H   UNL     1       7.539   4.394  20.448  0.00  0.00    +0.000 HD
ATOM     16  H   UNL     1       7.394   5.965  21.087  0.00  0.00    +0.000 HD
ENDBRANCH  13  14
ENDBRANCH  12  13
ENDBRANCH   9  10
BRANCH   1  17
ATOM     17  O   UNL     1       2.705   7.139  17.847  0.00  0.00    +0.000 OA
BRANCH  17  19
ATOM     18  C   UNL     1       1.924   9.476  17.837  0.00  0.00    +0.000 C 
ATOM     19  C   UNL     1       2.162   8.171  18.607  0.00  0.00    +0.000 C 
ENDBRANCH  17  19
ENDBRANCH   1  17
TORSDOF 5
ENDMDL
