MODEL 1
REMARK VINA RESULT:      -6.5      0.000      0.000
REMARK  Name = 
REMARK  15 active torsions:
REMARK  status: ('A' for Active; 'I' for Inactive)
REMARK    1  A    between atoms: C_1  and  C_2
REMARK    2  A    between atoms: C_2  and  C_3
REMARK    3  A    between atoms: C_3  and  C_4
REMARK    4  A    between atoms: C_4  and  C_5
REMARK    5  A    between atoms: C_5  and  C_6
REMARK    6  A    between atoms: C_5  and  C_10
REMARK    7  A    between atoms: C_6  and  C_7
REMARK    8  A    between atoms: C_7  and  C_8
REMARK    9  A    between atoms: C_8  and  C_9
REMARK   10  A    between atoms: C_10  and  C_11
REMARK   11  A    between atoms: C_11  and  N_12
REMARK   12  A    between atoms: C_13  and  C_15
REMARK   13  A    between atoms: C_17  and  C_18
REMARK   14  A    between atoms: C_26  and  O_27
REMARK   15  A    between atoms: O_27  and  C_28
REMARK                            x       y       z     vdW  Elec       q    Type
REMARK                         _______ _______ _______ _____ _____    ______ ____
ROOT
ATOM      1  N   UNL     1       0.199   9.462  19.989  0.00  0.00    +0.000 N 
ATOM      2  C   UNL     1       0.141   9.965  18.699  0.00  0.00    +0.000 C 
ATOM      3  O   UNL     1       1.095   9.958  17.933  0.00  0.00    +0.000 OA
ATOM      4  H   UNL     1      -0.603   9.516  20.601  0.00  0.00    +0.000 HD
ENDROOT
BRANCH   2   5
ATOM      5  C   UNL     1      -1.146  10.586  18.301  0.00  0.00    +0.000 A 
ATOM      6  C   UNL     1      -1.592  10.283  17.007  0.00  0.00    +0.000 A 
ATOM      7  C   UNL     1      -2.853  10.690  16.565  0.00  0.00    +0.000 A 
ATOM      8  C   UNL     1      -3.720  11.405  17.414  0.00  0.00    +0.000 A 
ATOM      9  C   UNL     1      -5.019  11.798  17.013  0.00  0.00    +0.000 A 
ATOM     10  C   UNL     1      -5.879  12.479  17.869  0.00  0.00    +0.000 A 
ATOM     11  C   UNL     1      -5.458  12.795  19.150  0.00  0.00    +0.000 A 
ATOM     12  C   UNL     1      -4.179  12.420  19.572  0.00  0.00    +0.000 A 
ATOM     13  C   UNL     1      -3.282  11.719  18.734  0.00  0.00    +0.000 A 
ATOM     14  C   UNL     1      -1.980  11.313  19.169  0.00  0.00    +0.000 A 
BRANCH   7  15
ATOM     15  C   UNL     1      -3.233  10.320  15.230  0.00  0.00    +0.000 C 
ATOM     16  N   UNL     1      -3.527  10.038  14.143  0.00  0.00    +0.000 NA
ENDBRANCH   7  15
BRANCH  14  17
ATOM     17  O   UNL     1      -1.698  11.590  20.488  0.00  0.00    +0.000 OA
ATOM     18  C   UNL     1      -0.914  12.748  20.766  0.00  0.00    +0.000 C 
ENDBRANCH  14  17
ENDBRANCH   2   5
BRANCH   1  19
ATOM     19  C   UNL     1       1.421   8.893  20.521  0.00  0.00    +0.000 C 
BRANCH  19  20
ATOM     20  C   UNL     1       1.230   7.475  21.070  0.00  0.00    +0.000 C 
BRANCH  20  21
ATOM     21  C   UNL     1       2.081   6.367  20.396  0.00  0.00    +0.000 C 
BRANCH  21  22
ATOM     22  C   UNL     1       1.365   4.999  20.532  0.00  0.00    +0.000 C 
BRANCH  22  23
ATOM     23  C   UNL     1       2.074   3.908  21.338  0.00  0.00    +0.000 C 
BRANCH  23  25
ATOM     24  C   UNL     1       1.696   2.277  19.473  0.00  0.00    +0.000 C 
ATOM     25  C   UNL     1       2.703   2.810  20.482  0.00  0.00    +0.000 C 
ENDBRANCH  23  25
ENDBRANCH  22  23
ENDBRANCH  21  22
BRANCH  21  26
ATOM     26  C   UNL     1       2.353   6.714  18.909  0.00  0.00    +0.000 C 
BRANCH  26  27
ATOM     27  C   UNL     1       2.523   5.526  17.950  0.00  0.00    +0.000 C 
BRANCH  27  28
ATOM     28  C   UNL     1       3.981   5.154  17.672  0.00  0.00    +0.000 C 
ATOM     29  C   UNL     1       4.069   3.845  16.900  0.00  0.00    +0.000 C 
ENDBRANCH  27  28
ENDBRANCH  26  27
ENDBRANCH  21  26
ENDBRANCH  20  21
ENDBRANCH  19  20
ENDBRANCH   1  19
TORSDOF 12
ENDMDL
MODEL 2
REMARK VINA RESULT:      -6.4      5.270      9.033
REMARK  Name = 
REMARK  15 active torsions:
REMARK  status: ('A' for Active; 'I' for Inactive)
REMARK    1  A    between atoms: C_1  and  C_2
REMARK    2  A    between atoms: C_2  and  C_3
REMARK    3  A    between atoms: C_3  and  C_4
REMARK    4  A    between atoms: C_4  and  C_5
REMARK    5  A    between atoms: C_5  and  C_6
REMARK    6  A    between atoms: C_5  and  C_10
REMARK    7  A    between atoms: C_6  and  C_7
REMARK    8  A    between atoms: C_7  and  C_8
REMARK    9  A    between atoms: C_8  and  C_9
REMARK   10  A    between atoms: C_10  and  C_11
REMARK   11  A    between atoms: C_11  and  N_12
REMARK   12  A    between atoms: C_13  and  C_15
REMARK   13  A    between atoms: C_17  and  C_18
REMARK   14  A    between atoms: C_26  and  O_27
REMARK   15  A    between atoms: O_27  and  C_28
REMARK                            x       y       z     vdW  Elec       q    Type
REMARK                         _______ _______ _______ _____ _____    ______ ____
ROOT
ATOM      1  N   UNL     1       6.068   4.463  16.032  0.00  0.00    +0.000 N 
ATOM      2  C   UNL     1       5.853   5.782  16.394  0.00  0.00    +0.000 C 
ATOM      3  O   UNL     1       6.474   6.720  15.912  0.00  0.00    +0.000 OA
ATOM      4  H   UNL     1       5.556   3.714  16.478  0.00  0.00    +0.000 HD
ENDROOT
BRANCH   2   5
ATOM      5  C   UNL     1       4.855   6.007  17.469  0.00  0.00    +0.000 A 
ATOM      6  C   UNL     1       4.127   7.201  17.382  0.00  0.00    +0.000 A 
ATOM      7  C   UNL     1       3.063   7.464  18.249  0.00  0.00    +0.000 A 
ATOM      8  C   UNL     1       2.681   6.525  19.228  0.00  0.00    +0.000 A 
ATOM      9  C   UNL     1       1.585   6.741  20.095  0.00  0.00    +0.000 A 
ATOM     10  C   UNL     1       1.198   5.795  21.040  0.00  0.00    +0.000 A 
ATOM     11  C   UNL     1       1.906   4.609  21.149  0.00  0.00    +0.000 A 
ATOM     12  C   UNL     1       2.995   4.372  20.305  0.00  0.00    +0.000 A 
ATOM     13  C   UNL     1       3.410   5.304  19.327  0.00  0.00    +0.000 A 
ATOM     14  C   UNL     1       4.511   5.056  18.446  0.00  0.00    +0.000 A 
BRANCH   7  15
ATOM     15  C   UNL     1       2.364   8.707  18.075  0.00  0.00    +0.000 C 
ATOM     16  N   UNL     1       1.791   9.703  17.915  0.00  0.00    +0.000 NA
ENDBRANCH   7  15
BRANCH  14  17
ATOM     17  O   UNL     1       5.083   3.809  18.571  0.00  0.00    +0.000 OA
ATOM     18  C   UNL     1       4.304   2.684  18.174  0.00  0.00    +0.000 C 
ENDBRANCH  14  17
ENDBRANCH   2   5
BRANCH   1  19
ATOM     19  C   UNL     1       7.066   4.107  15.044  0.00  0.00    +0.000 C 
BRANCH  19  20
ATOM     20  C   UNL     1       6.623   4.412  13.608  0.00  0.00    +0.000 C 
BRANCH  20  21
ATOM     21  C   UNL     1       6.109   3.201  12.787  0.00  0.00    +0.000 C 
BRANCH  21  22
ATOM     22  C   UNL     1       4.632   3.434  12.376  0.00  0.00    +0.000 C 
BRANCH  22  23
ATOM     23  C   UNL     1       4.371   4.050  10.999  0.00  0.00    +0.000 C 
BRANCH  23  25
ATOM     24  C   UNL     1       2.612   4.451   9.259  0.00  0.00    +0.000 C 
ATOM     25  C   UNL     1       3.168   3.457  10.269  0.00  0.00    +0.000 C 
ENDBRANCH  23  25
ENDBRANCH  22  23
ENDBRANCH  21  22
BRANCH  21  26
ATOM     26  C   UNL     1       7.007   2.960  11.546  0.00  0.00    +0.000 C 
BRANCH  26  27
ATOM     27  C   UNL     1       7.291   1.494  11.182  0.00  0.00    +0.000 C 
BRANCH  27  28
ATOM     28  C   UNL     1       6.043   0.691  10.811  0.00  0.00    +0.000 C 
ATOM     29  C   UNL     1       6.102  -0.709  11.406  0.00  0.00    +0.000 C 
ENDBRANCH  27  28
ENDBRANCH  26  27
ENDBRANCH  21  26
ENDBRANCH  20  21
ENDBRANCH  19  20
ENDBRANCH   1  19
TORSDOF 12
ENDMDL
MODEL 3
REMARK VINA RESULT:      -6.3      6.409     10.061
REMARK  Name = 
REMARK  15 active torsions:
REMARK  status: ('A' for Active; 'I' for Inactive)
REMARK    1  A    between atoms: C_1  and  C_2
REMARK    2  A    between atoms: C_2  and  C_3
REMARK    3  A    between atoms: C_3  and  C_4
REMARK    4  A    between atoms: C_4  and  C_5
REMARK    5  A    between atoms: C_5  and  C_6
REMARK    6  A    between atoms: C_5  and  C_10
REMARK    7  A    between atoms: C_6  and  C_7
REMARK    8  A    between atoms: C_7  and  C_8
REMARK    9  A    between atoms: C_8  and  C_9
REMARK   10  A    between atoms: C_10  and  C_11
REMARK   11  A    between atoms: C_11  and  N_12
REMARK   12  A    between atoms: C_13  and  C_15
REMARK   13  A    between atoms: C_17  and  C_18
REMARK   14  A    between atoms: C_26  and  O_27
REMARK   15  A    between atoms: O_27  and  C_28
REMARK                            x       y       z     vdW  Elec       q    Type
REMARK                         _______ _______ _______ _____ _____    ______ ____
ROOT
ATOM      1  N   UNL     1       7.269   8.413  17.976  0.00  0.00    +0.000 N 
ATOM      2  C   UNL     1       7.013   7.258  17.255  0.00  0.00    +0.000 C 
ATOM      3  O   UNL     1       7.768   6.824  16.394  0.00  0.00    +0.000 OA
ATOM      4  H   UNL     1       6.604   8.755  18.656  0.00  0.00    +0.000 HD
ENDROOT
BRANCH   2   5
ATOM      5  C   UNL     1       5.719   6.589  17.535  0.00  0.00    +0.000 A 
ATOM      6  C   UNL     1       4.636   7.442  17.787  0.00  0.00    +0.000 A 
ATOM      7  C   UNL     1       3.339   6.940  17.924  0.00  0.00    +0.000 A 
ATOM      8  C   UNL     1       3.081   5.561  17.796  0.00  0.00    +0.000 A 
ATOM      9  C   UNL     1       1.776   5.025  17.890  0.00  0.00    +0.000 A 
ATOM     10  C   UNL     1       1.527   3.665  17.735  0.00  0.00    +0.000 A 
ATOM     11  C   UNL     1       2.582   2.801  17.490  0.00  0.00    +0.000 A 
ATOM     12  C   UNL     1       3.882   3.305  17.395  0.00  0.00    +0.000 A 
ATOM     13  C   UNL     1       4.172   4.682  17.538  0.00  0.00    +0.000 A 
ATOM     14  C   UNL     1       5.499   5.205  17.419  0.00  0.00    +0.000 A 
BRANCH   7  15
ATOM     15  C   UNL     1       2.289   7.891  18.164  0.00  0.00    +0.000 C 
ATOM     16  N   UNL     1       1.425   8.641  18.357  0.00  0.00    +0.000 NA
ENDBRANCH   7  15
BRANCH  14  17
ATOM     17  O   UNL     1       6.459   4.277  17.079  0.00  0.00    +0.000 OA
ATOM     18  C   UNL     1       6.611   3.961  15.698  0.00  0.00    +0.000 C 
ENDBRANCH  14  17
ENDBRANCH   2   5
BRANCH   1  19
ATOM     19  C   UNL     1       8.466   9.196  17.745  0.00  0.00    +0.000 C 
BRANCH  19  20
ATOM     20  C   UNL     1       9.116   9.691  19.041  0.00  0.00    +0.000 C 
BRANCH  20  21
ATOM     21  C   UNL     1       9.380  11.217  19.127  0.00  0.00    +0.000 C 
BRANCH  21  22
ATOM     22  C   UNL     1      10.197  11.537  20.405  0.00  0.00    +0.000 C 
BRANCH  22  23
ATOM     23  C   UNL     1      10.097  12.957  20.969  0.00  0.00    +0.000 C 
BRANCH  23  25
ATOM     24  C   UNL     1       7.832  13.519  21.885  0.00  0.00    +0.000 C 
ATOM     25  C   UNL     1       9.244  13.067  22.231  0.00  0.00    +0.000 C 
ENDBRANCH  23  25
ENDBRANCH  22  23
ENDBRANCH  21  22
BRANCH  21  26
ATOM     26  C   UNL     1      10.108  11.719  17.853  0.00  0.00    +0.000 C 
BRANCH  26  27
ATOM     27  C   UNL     1      11.643  11.752  17.911  0.00  0.00    +0.000 C 
BRANCH  27  28
ATOM     28  C   UNL     1      12.246  13.139  17.682  0.00  0.00    +0.000 C 
ATOM     29  C   UNL     1      11.241  14.063  17.010  0.00  0.00    +0.000 C 
ENDBRANCH  27  28
ENDBRANCH  26  27
ENDBRANCH  21  26
ENDBRANCH  20  21
ENDBRANCH  19  20
ENDBRANCH   1  19
TORSDOF 12
ENDMDL
MODEL 4
REMARK VINA RESULT:      -6.2      2.241      9.104
REMARK  Name = 
REMARK  15 active torsions:
REMARK  status: ('A' for Active; 'I' for Inactive)
REMARK    1  A    between atoms: C_1  and  C_2
REMARK    2  A    between atoms: C_2  and  C_3
REMARK    3  A    between atoms: C_3  and  C_4
REMARK    4  A    between atoms: C_4  and  C_5
REMARK    5  A    between atoms: C_5  and  C_6
REMARK    6  A    between atoms: C_5  and  C_10
REMARK    7  A    between atoms: C_6  and  C_7
REMARK    8  A    between atoms: C_7  and  C_8
REMARK    9  A    between atoms: C_8  and  C_9
REMARK   10  A    between atoms: C_10  and  C_11
REMARK   11  A    between atoms: C_11  and  N_12
REMARK   12  A    between atoms: C_13  and  C_15
REMARK   13  A    between atoms: C_17  and  C_18
REMARK   14  A    between atoms: C_26  and  O_27
REMARK   15  A    between atoms: O_27  and  C_28
REMARK                            x       y       z     vdW  Elec       q    Type
REMARK                         _______ _______ _______ _____ _____    ______ ____
ROOT
ATOM      1  N   UNL     1       1.782   8.514  18.770  0.00  0.00    +0.000 N 
ATOM      2  C   UNL     1       1.908   7.742  19.913  0.00  0.00    +0.000 C 
ATOM      3  O   UNL     1       1.732   8.181  21.042  0.00  0.00    +0.000 OA
ATOM      4  H   UNL     1       1.967   8.120  17.857  0.00  0.00    +0.000 HD
ENDROOT
BRANCH   2   5
ATOM      5  C   UNL     1       2.340   6.338  19.706  0.00  0.00    +0.000 A 
ATOM      6  C   UNL     1       1.923   5.423  20.682  0.00  0.00    +0.000 A 
ATOM      7  C   UNL     1       2.144   4.052  20.529  0.00  0.00    +0.000 A 
ATOM      8  C   UNL     1       2.780   3.548  19.377  0.00  0.00    +0.000 A 
ATOM      9  C   UNL     1       2.985   2.164  19.171  0.00  0.00    +0.000 A 
ATOM     10  C   UNL     1       3.589   1.673  18.018  0.00  0.00    +0.000 A 
ATOM     11  C   UNL     1       4.015   2.558  17.041  0.00  0.00    +0.000 A 
ATOM     12  C   UNL     1       3.828   3.932  17.221  0.00  0.00    +0.000 A 
ATOM     13  C   UNL     1       3.209   4.466  18.374  0.00  0.00    +0.000 A 
ATOM     14  C   UNL     1       2.994   5.870  18.552  0.00  0.00    +0.000 A 
BRANCH   7  15
ATOM     15  C   UNL     1       1.666   3.188  21.572  0.00  0.00    +0.000 C 
ATOM     16  N   UNL     1       1.270   2.508  22.424  0.00  0.00    +0.000 NA
ENDBRANCH   7  15
BRANCH  14  17
ATOM     17  O   UNL     1       3.366   6.652  17.482  0.00  0.00    +0.000 OA
ATOM     18  C   UNL     1       4.714   7.111  17.437  0.00  0.00    +0.000 C 
ENDBRANCH  14  17
ENDBRANCH   2   5
BRANCH   1  19
ATOM     19  C   UNL     1       1.433   9.918  18.844  0.00  0.00    +0.000 C 
BRANCH  19  20
ATOM     20  C   UNL     1       0.120  10.247  18.125  0.00  0.00    +0.000 C 
BRANCH  20  21
ATOM     21  C   UNL     1      -1.168  10.140  18.983  0.00  0.00    +0.000 C 
BRANCH  21  22
ATOM     22  C   UNL     1      -1.204  11.292  20.021  0.00  0.00    +0.000 C 
BRANCH  22  23
ATOM     23  C   UNL     1      -1.708  12.656  19.544  0.00  0.00    +0.000 C 
BRANCH  23  25
ATOM     24  C   UNL     1      -0.054  14.353  18.729  0.00  0.00    +0.000 C 
ATOM     25  C   UNL     1      -0.810  13.826  19.940  0.00  0.00    +0.000 C 
ENDBRANCH  23  25
ENDBRANCH  22  23
ENDBRANCH  21  22
BRANCH  21  26
ATOM     26  C   UNL     1      -2.429  10.155  18.082  0.00  0.00    +0.000 C 
BRANCH  26  27
ATOM     27  C   UNL     1      -2.196   9.948  16.577  0.00  0.00    +0.000 C 
BRANCH  27  28
ATOM     28  C   UNL     1      -3.075  10.825  15.683  0.00  0.00    +0.000 C 
ATOM     29  C   UNL     1      -4.243  11.403  16.470  0.00  0.00    +0.000 C 
ENDBRANCH  27  28
ENDBRANCH  26  27
ENDBRANCH  21  26
ENDBRANCH  20  21
ENDBRANCH  19  20
ENDBRANCH   1  19
TORSDOF 12
ENDMDL
MODEL 5
REMARK VINA RESULT:      -6.2      6.189     10.095
REMARK  Name = 
REMARK  15 active torsions:
REMARK  status: ('A' for Active; 'I' for Inactive)
REMARK    1  A    between atoms: C_1  and  C_2
REMARK    2  A    between atoms: C_2  and  C_3
REMARK    3  A    between atoms: C_3  and  C_4
REMARK    4  A    between atoms: C_4  and  C_5
REMARK    5  A    between atoms: C_5  and  C_6
REMARK    6  A    between atoms: C_5  and  C_10
REMARK    7  A    between atoms: C_6  and  C_7
REMARK    8  A    between atoms: C_7  and  C_8
REMARK    9  A    between atoms: C_8  and  C_9
REMARK   10  A    between atoms: C_10  and  C_11
REMARK   11  A    between atoms: C_11  and  N_12
REMARK   12  A    between atoms: C_13  and  C_15
REMARK   13  A    between atoms: C_17  and  C_18
REMARK   14  A    between atoms: C_26  and  O_27
REMARK   15  A    between atoms: O_27  and  C_28
REMARK                            x       y       z     vdW  Elec       q    Type
REMARK                         _______ _______ _______ _____ _____    ______ ____
ROOT
ATOM      1  N   UNL     1       7.375   8.559  18.050  0.00  0.00    +0.000 N 
ATOM      2  C   UNL     1       7.110   7.462  17.248  0.00  0.00    +0.000 C 
ATOM      3  O   UNL     1       7.836   7.114  16.326  0.00  0.00    +0.000 OA
ATOM      4  H   UNL     1       6.732   8.832  18.781  0.00  0.00    +0.000 HD
ENDROOT
BRANCH   2   5
ATOM      5  C   UNL     1       5.840   6.746  17.522  0.00  0.00    +0.000 A 
ATOM      6  C   UNL     1       4.715   7.559  17.716  0.00  0.00    +0.000 A 
ATOM      7  C   UNL     1       3.438   7.005  17.841  0.00  0.00    +0.000 A 
ATOM      8  C   UNL     1       3.243   5.612  17.761  0.00  0.00    +0.000 A 
ATOM      9  C   UNL     1       1.961   5.022  17.844  0.00  0.00    +0.000 A 
ATOM     10  C   UNL     1       1.776   3.647  17.735  0.00  0.00    +0.000 A 
ATOM     11  C   UNL     1       2.874   2.823  17.549  0.00  0.00    +0.000 A 
ATOM     12  C   UNL     1       4.153   3.380  17.465  0.00  0.00    +0.000 A 
ATOM     13  C   UNL     1       4.378   4.773  17.562  0.00  0.00    +0.000 A 
ATOM     14  C   UNL     1       5.683   5.350  17.454  0.00  0.00    +0.000 A 
BRANCH   7  15
ATOM     15  C   UNL     1       2.341   7.916  18.020  0.00  0.00    +0.000 C 
ATOM     16  N   UNL     1       1.459   8.651  18.187  0.00  0.00    +0.000 NA
ENDBRANCH   7  15
BRANCH  14  17
ATOM     17  O   UNL     1       6.691   4.454  17.173  0.00  0.00    +0.000 OA
ATOM     18  C   UNL     1       7.821   4.440  18.042  0.00  0.00    +0.000 C 
ENDBRANCH  14  17
ENDBRANCH   2   5
BRANCH   1  19
ATOM     19  C   UNL     1       8.548   9.382  17.837  0.00  0.00    +0.000 C 
BRANCH  19  20
ATOM     20  C   UNL     1       9.113   9.967  19.137  0.00  0.00    +0.000 C 
BRANCH  20  21
ATOM     21  C   UNL     1      10.291  10.962  18.976  0.00  0.00    +0.000 C 
BRANCH  21  22
ATOM     22  C   UNL     1      10.047  11.870  17.743  0.00  0.00    +0.000 C 
BRANCH  22  23
ATOM     23  C   UNL     1      10.157  13.384  17.948  0.00  0.00    +0.000 C 
BRANCH  23  25
ATOM     24  C   UNL     1       7.707  13.256  17.436  0.00  0.00    +0.000 C 
ATOM     25  C   UNL     1       8.812  14.097  18.061  0.00  0.00    +0.000 C 
ENDBRANCH  23  25
ENDBRANCH  22  23
ENDBRANCH  21  22
BRANCH  21  26
ATOM     26  C   UNL     1      10.478  11.803  20.266  0.00  0.00    +0.000 C 
BRANCH  26  27
ATOM     27  C   UNL     1       9.360  11.701  21.315  0.00  0.00    +0.000 C 
BRANCH  27  28
ATOM     28  C   UNL     1       8.592  13.005  21.536  0.00  0.00    +0.000 C 
ATOM     29  C   UNL     1       9.525  14.111  22.009  0.00  0.00    +0.000 C 
ENDBRANCH  27  28
ENDBRANCH  26  27
ENDBRANCH  21  26
ENDBRANCH  20  21
ENDBRANCH  19  20
ENDBRANCH   1  19
TORSDOF 12
ENDMDL
MODEL 6
REMARK VINA RESULT:      -6.2      1.869      3.702
REMARK  Name = 
REMARK  15 active torsions:
REMARK  status: ('A' for Active; 'I' for Inactive)
REMARK    1  A    between atoms: C_1  and  C_2
REMARK    2  A    between atoms: C_2  and  C_3
REMARK    3  A    between atoms: C_3  and  C_4
REMARK    4  A    between atoms: C_4  and  C_5
REMARK    5  A    between atoms: C_5  and  C_6
REMARK    6  A    between atoms: C_5  and  C_10
REMARK    7  A    between atoms: C_6  and  C_7
REMARK    8  A    between atoms: C_7  and  C_8
REMARK    9  A    between atoms: C_8  and  C_9
REMARK   10  A    between atoms: C_10  and  C_11
REMARK   11  A    between atoms: C_11  and  N_12
REMARK   12  A    between atoms: C_13  and  C_15
REMARK   13  A    between atoms: C_17  and  C_18
REMARK   14  A    between atoms: C_26  and  O_27
REMARK   15  A    between atoms: O_27  and  C_28
REMARK                            x       y       z     vdW  Elec       q    Type
REMARK                         _______ _______ _______ _____ _____    ______ ____
ROOT
ATOM      1  N   UNL     1       1.672   8.138  19.294  0.00  0.00    +0.000 N 
ATOM      2  C   UNL     1       1.447   9.317  18.603  0.00  0.00    +0.000 C 
ATOM      3  O   UNL     1       2.070   9.637  17.600  0.00  0.00    +0.000 OA
ATOM      4  H   UNL     1       1.157   7.927  20.138  0.00  0.00    +0.000 HD
ENDROOT
BRANCH   2   5
ATOM      5  C   UNL     1       0.433  10.230  19.187  0.00  0.00    +0.000 A 
ATOM      6  C   UNL     1      -0.670  10.515  18.371  0.00  0.00    +0.000 A 
ATOM      7  C   UNL     1      -1.758  11.245  18.857  0.00  0.00    +0.000 A 
ATOM      8  C   UNL     1      -1.784  11.702  20.189  0.00  0.00    +0.000 A 
ATOM      9  C   UNL     1      -2.885  12.409  20.725  0.00  0.00    +0.000 A 
ATOM     10  C   UNL     1      -2.914  12.832  22.050  0.00  0.00    +0.000 A 
ATOM     11  C   UNL     1      -1.833  12.567  22.874  0.00  0.00    +0.000 A 
ATOM     12  C   UNL     1      -0.730  11.872  22.370  0.00  0.00    +0.000 A 
ATOM     13  C   UNL     1      -0.670  11.418  21.032  0.00  0.00    +0.000 A 
ATOM     14  C   UNL     1       0.447  10.687  20.517  0.00  0.00    +0.000 A 
BRANCH   7  15
ATOM     15  C   UNL     1      -2.852  11.474  17.954  0.00  0.00    +0.000 C 
ATOM     16  N   UNL     1      -3.741  11.638  17.227  0.00  0.00    +0.000 NA
ENDBRANCH   7  15
BRANCH  14  17
ATOM     17  O   UNL     1       1.423  10.393  21.444  0.00  0.00    +0.000 OA
ATOM     18  C   UNL     1       1.216   9.259  22.282  0.00  0.00    +0.000 C 
ENDBRANCH  14  17
ENDBRANCH   2   5
BRANCH   1  19
ATOM     19  C   UNL     1       2.685   7.196  18.865  0.00  0.00    +0.000 C 
BRANCH  19  20
ATOM     20  C   UNL     1       2.212   6.287  17.724  0.00  0.00    +0.000 C 
BRANCH  20  21
ATOM     21  C   UNL     1       2.628   4.796  17.829  0.00  0.00    +0.000 C 
BRANCH  21  22
ATOM     22  C   UNL     1       3.880   4.663  18.733  0.00  0.00    +0.000 C 
BRANCH  22  23
ATOM     23  C   UNL     1       5.204   4.297  18.056  0.00  0.00    +0.000 C 
BRANCH  23  25
ATOM     24  C   UNL     1       5.551   5.250  15.765  0.00  0.00    +0.000 C 
ATOM     25  C   UNL     1       5.085   4.037  16.556  0.00  0.00    +0.000 C 
ENDBRANCH  23  25
ENDBRANCH  22  23
ENDBRANCH  21  22
BRANCH  21  26
ATOM     26  C   UNL     1       1.453   3.937  18.365  0.00  0.00    +0.000 C 
BRANCH  26  27
ATOM     27  C   UNL     1       1.175   4.025  19.874  0.00  0.00    +0.000 C 
BRANCH  27  28
ATOM     28  C   UNL     1       1.317   2.693  20.612  0.00  0.00    +0.000 C 
ATOM     29  C   UNL     1       2.283   2.820  21.781  0.00  0.00    +0.000 C 
ENDBRANCH  27  28
ENDBRANCH  26  27
ENDBRANCH  21  26
ENDBRANCH  20  21
ENDBRANCH  19  20
ENDBRANCH   1  19
TORSDOF 12
ENDMDL
MODEL 7
REMARK VINA RESULT:      -6.2      1.307      2.694
REMARK  Name = 
REMARK  15 active torsions:
REMARK  status: ('A' for Active; 'I' for Inactive)
REMARK    1  A    between atoms: C_1  and  C_2
REMARK    2  A    between atoms: C_2  and  C_3
REMARK    3  A    between atoms: C_3  and  C_4
REMARK    4  A    between atoms: C_4  and  C_5
REMARK    5  A    between atoms: C_5  and  C_6
REMARK    6  A    between atoms: C_5  and  C_10
REMARK    7  A    between atoms: C_6  and  C_7
REMARK    8  A    between atoms: C_7  and  C_8
REMARK    9  A    between atoms: C_8  and  C_9
REMARK   10  A    between atoms: C_10  and  C_11
REMARK   11  A    between atoms: C_11  and  N_12
REMARK   12  A    between atoms: C_13  and  C_15
REMARK   13  A    between atoms: C_17  and  C_18
REMARK   14  A    between atoms: C_26  and  O_27
REMARK   15  A    between atoms: O_27  and  C_28
REMARK                            x       y       z     vdW  Elec       q    Type
REMARK                         _______ _______ _______ _____ _____    ______ ____
ROOT
ATOM      1  N   UNL     1       1.158   9.506  17.673  0.00  0.00    +0.000 N 
ATOM      2  C   UNL     1       0.418  10.017  18.727  0.00  0.00    +0.000 C 
ATOM      3  O   UNL     1       0.778   9.949  19.895  0.00  0.00    +0.000 OA
ATOM      4  H   UNL     1       0.809   9.554  16.725  0.00  0.00    +0.000 HD
ENDROOT
BRANCH   2   5
ATOM      5  C   UNL     1      -0.895  10.610  18.373  0.00  0.00    +0.000 A 
ATOM      6  C   UNL     1      -1.373  10.306  17.091  0.00  0.00    +0.000 A 
ATOM      7  C   UNL     1      -2.657  10.685  16.691  0.00  0.00    +0.000 A 
ATOM      8  C   UNL     1      -3.516  11.370  17.573  0.00  0.00    +0.000 A 
ATOM      9  C   UNL     1      -4.835  11.734  17.214  0.00  0.00    +0.000 A 
ATOM     10  C   UNL     1      -5.685  12.386  18.102  0.00  0.00    +0.000 A 
ATOM     11  C   UNL     1      -5.233  12.701  19.372  0.00  0.00    +0.000 A 
ATOM     12  C   UNL     1      -3.933  12.356  19.752  0.00  0.00    +0.000 A 
ATOM     13  C   UNL     1      -3.045  11.684  18.881  0.00  0.00    +0.000 A 
ATOM     14  C   UNL     1      -1.720  11.308  19.273  0.00  0.00    +0.000 A 
BRANCH   7  15
ATOM     15  C   UNL     1      -3.068  10.316  15.364  0.00  0.00    +0.000 C 
ATOM     16  N   UNL     1      -3.378  10.018  14.286  0.00  0.00    +0.000 NA
ENDBRANCH   7  15
BRANCH  14  17
ATOM     17  O   UNL     1      -1.406  11.581  20.585  0.00  0.00    +0.000 OA
ATOM     18  C   UNL     1      -0.699  12.788  20.856  0.00  0.00    +0.000 C 
ENDBRANCH  14  17
ENDBRANCH   2   5
BRANCH   1  19
ATOM     19  C   UNL     1       2.425   8.840  17.896  0.00  0.00    +0.000 C 
BRANCH  19  20
ATOM     20  C   UNL     1       2.279   7.516  18.654  0.00  0.00    +0.000 C 
BRANCH  20  21
ATOM     21  C   UNL     1       2.832   6.258  17.934  0.00  0.00    +0.000 C 
BRANCH  21  22
ATOM     22  C   UNL     1       4.351   6.426  17.676  0.00  0.00    +0.000 C 
BRANCH  22  23
ATOM     23  C   UNL     1       5.312   5.672  18.599  0.00  0.00    +0.000 C 
BRANCH  23  25
ATOM     24  C   UNL     1       7.223   6.839  17.474  0.00  0.00    +0.000 C 
ATOM     25  C   UNL     1       6.723   5.516  18.037  0.00  0.00    +0.000 C 
ENDBRANCH  23  25
ENDBRANCH  22  23
ENDBRANCH  21  22
BRANCH  21  26
ATOM     26  C   UNL     1       2.539   4.980  18.761  0.00  0.00    +0.000 C 
BRANCH  26  27
ATOM     27  C   UNL     1       1.836   5.187  20.112  0.00  0.00    +0.000 C 
BRANCH  27  28
ATOM     28  C   UNL     1       1.248   3.908  20.711  0.00  0.00    +0.000 C 
ATOM     29  C   UNL     1       0.804   2.949  19.615  0.00  0.00    +0.000 C 
ENDBRANCH  27  28
ENDBRANCH  26  27
ENDBRANCH  21  26
ENDBRANCH  20  21
ENDBRANCH  19  20
ENDBRANCH   1  19
TORSDOF 12
ENDMDL
MODEL 8
REMARK VINA RESULT:      -6.2      1.813      3.120
REMARK  Name = 
REMARK  15 active torsions:
REMARK  status: ('A' for Active; 'I' for Inactive)
REMARK    1  A    between atoms: C_1  and  C_2
REMARK    2  A    between atoms: C_2  and  C_3
REMARK    3  A    between atoms: C_3  and  C_4
REMARK    4  A    between atoms: C_4  and  C_5
REMARK    5  A    between atoms: C_5  and  C_6
REMARK    6  A    between atoms: C_5  and  C_10
REMARK    7  A    between atoms: C_6  and  C_7
REMARK    8  A    between atoms: C_7  and  C_8
REMARK    9  A    between atoms: C_8  and  C_9
REMARK   10  A    between atoms: C_10  and  C_11
REMARK   11  A    between atoms: C_11  and  N_12
REMARK   12  A    between atoms: C_13  and  C_15
REMARK   13  A    between atoms: C_17  and  C_18
REMARK   14  A    between atoms: C_26  and  O_27
REMARK   15  A    between atoms: O_27  and  C_28
REMARK                            x       y       z     vdW  Elec       q    Type
REMARK                         _______ _______ _______ _____ _____    ______ ____
ROOT
ATOM      1  N   UNL     1       1.815   7.576  19.294  0.00  0.00    +0.000 N 
ATOM      2  C   UNL     1       1.758   8.706  18.495  0.00  0.00    +0.000 C 
ATOM      3  O   UNL     1       2.526   8.909  17.564  0.00  0.00    +0.000 OA
ATOM      4  H   UNL     1       1.182   7.462  20.074  0.00  0.00    +0.000 HD
ENDROOT
BRANCH   2   5
ATOM      5  C   UNL     1       0.738   9.717  18.869  0.00  0.00    +0.000 A 
ATOM      6  C   UNL     1      -0.231   9.991  17.895  0.00  0.00    +0.000 A 
ATOM      7  C   UNL     1      -1.323  10.816  18.175  0.00  0.00    +0.000 A 
ATOM      8  C   UNL     1      -1.490  11.383  19.454  0.00  0.00    +0.000 A 
ATOM      9  C   UNL     1      -2.604  12.190  19.784  0.00  0.00    +0.000 A 
ATOM     10  C   UNL     1      -2.774  12.723  21.058  0.00  0.00    +0.000 A 
ATOM     11  C   UNL     1      -1.827  12.470  22.036  0.00  0.00    +0.000 A 
ATOM     12  C   UNL     1      -0.715  11.677  21.736  0.00  0.00    +0.000 A 
ATOM     13  C   UNL     1      -0.514  11.111  20.456  0.00  0.00    +0.000 A 
ATOM     14  C   UNL     1       0.611  10.281  20.151  0.00  0.00    +0.000 A 
BRANCH   7  15
ATOM     15  C   UNL     1      -2.275  11.028  17.120  0.00  0.00    +0.000 C 
ATOM     16  N   UNL     1      -3.058  11.184  16.279  0.00  0.00    +0.000 NA
ENDBRANCH   7  15
BRANCH  14  17
ATOM     17  O   UNL     1       1.440  10.013  21.218  0.00  0.00    +0.000 OA
ATOM     18  C   UNL     1       1.034   8.995  22.129  0.00  0.00    +0.000 C 
ENDBRANCH  14  17
ENDBRANCH   2   5
BRANCH   1  19
ATOM     19  C   UNL     1       2.812   6.548  19.075  0.00  0.00    +0.000 C 
BRANCH  19  20
ATOM     20  C   UNL     1       2.395   5.527  18.010  0.00  0.00    +0.000 C 
BRANCH  20  21
ATOM     21  C   UNL     1       3.157   4.177  18.031  0.00  0.00    +0.000 C 
BRANCH  21  22
ATOM     22  C   UNL     1       2.151   3.003  17.917  0.00  0.00    +0.000 C 
BRANCH  22  23
ATOM     23  C   UNL     1       1.963   2.112  19.148  0.00  0.00    +0.000 C 
BRANCH  23  25
ATOM     24  C   UNL     1       1.609   3.265  21.345  0.00  0.00    +0.000 C 
ATOM     25  C   UNL     1       2.638   2.644  20.410  0.00  0.00    +0.000 C 
ENDBRANCH  23  25
ENDBRANCH  22  23
ENDBRANCH  21  22
BRANCH  21  26
ATOM     26  C   UNL     1       4.212   4.126  16.895  0.00  0.00    +0.000 C 
BRANCH  26  27
ATOM     27  C   UNL     1       4.910   5.451  16.551  0.00  0.00    +0.000 C 
BRANCH  27  28
ATOM     28  C   UNL     1       5.568   5.469  15.170  0.00  0.00    +0.000 C 
ATOM     29  C   UNL     1       6.737   4.497  15.113  0.00  0.00    +0.000 C 
ENDBRANCH  27  28
ENDBRANCH  26  27
ENDBRANCH  21  26
ENDBRANCH  20  21
ENDBRANCH  19  20
ENDBRANCH   1  19
TORSDOF 12
ENDMDL
MODEL 9
REMARK VINA RESULT:      -6.1      3.424      4.377
REMARK  Name = 
REMARK  15 active torsions:
REMARK  status: ('A' for Active; 'I' for Inactive)
REMARK    1  A    between atoms: C_1  and  C_2
REMARK    2  A    between atoms: C_2  and  C_3
REMARK    3  A    between atoms: C_3  and  C_4
REMARK    4  A    between atoms: C_4  and  C_5
REMARK    5  A    between atoms: C_5  and  C_6
REMARK    6  A    between atoms: C_5  and  C_10
REMARK    7  A    between atoms: C_6  and  C_7
REMARK    8  A    between atoms: C_7  and  C_8
REMARK    9  A    between atoms: C_8  and  C_9
REMARK   10  A    between atoms: C_10  and  C_11
REMARK   11  A    between atoms: C_11  and  N_12
REMARK   12  A    between atoms: C_13  and  C_15
REMARK   13  A    between atoms: C_17  and  C_18
REMARK   14  A    between atoms: C_26  and  O_27
REMARK   15  A    between atoms: O_27  and  C_28
REMARK                            x       y       z     vdW  Elec       q    Type
REMARK                         _______ _______ _______ _____ _____    ______ ____
ROOT
ATOM      1  N   UNL     1       0.588   9.164  21.174  0.00  0.00    +0.000 N 
ATOM      2  C   UNL     1       0.389   9.940  22.304  0.00  0.00    +0.000 C 
ATOM      3  O   UNL     1       0.855   9.660  23.401  0.00  0.00    +0.000 OA
ATOM      4  H   UNL     1       0.159   9.413  20.294  0.00  0.00    +0.000 HD
ENDROOT
BRANCH   2   5
ATOM      5  C   UNL     1      -0.490  11.123  22.135  0.00  0.00    +0.000 A 
ATOM      6  C   UNL     1      -1.619  11.164  22.963  0.00  0.00    +0.000 A 
ATOM      7  C   UNL     1      -2.447  12.289  23.001  0.00  0.00    +0.000 A 
ATOM      8  C   UNL     1      -2.160  13.423  22.216  0.00  0.00    +0.000 A 
ATOM      9  C   UNL     1      -2.953  14.593  22.258  0.00  0.00    +0.000 A 
ATOM     10  C   UNL     1      -2.645  15.718  21.501  0.00  0.00    +0.000 A 
ATOM     11  C   UNL     1      -1.537  15.700  20.670  0.00  0.00    +0.000 A 
ATOM     12  C   UNL     1      -0.737  14.555  20.607  0.00  0.00    +0.000 A 
ATOM     13  C   UNL     1      -1.013  13.397  21.370  0.00  0.00    +0.000 A 
ATOM     14  C   UNL     1      -0.183  12.231  21.326  0.00  0.00    +0.000 A 
BRANCH   7  15
ATOM     15  C   UNL     1      -3.573  12.248  23.892  0.00  0.00    +0.000 C 
ATOM     16  N   UNL     1      -4.485  12.192  24.608  0.00  0.00    +0.000 NA
ENDBRANCH   7  15
BRANCH  14  17
ATOM     17  O   UNL     1       0.944  12.352  20.545  0.00  0.00    +0.000 OA
ATOM     18  C   UNL     1       0.859  11.913  19.192  0.00  0.00    +0.000 C 
ENDBRANCH  14  17
ENDBRANCH   2   5
BRANCH   1  19
ATOM     19  C   UNL     1       1.370   7.945  21.226  0.00  0.00    +0.000 C 
BRANCH  19  20
ATOM     20  C   UNL     1       2.023   7.596  19.884  0.00  0.00    +0.000 C 
BRANCH  20  21
ATOM     21  C   UNL     1       2.442   6.114  19.699  0.00  0.00    +0.000 C 
BRANCH  21  22
ATOM     22  C   UNL     1       1.480   5.194  20.494  0.00  0.00    +0.000 C 
BRANCH  22  23
ATOM     23  C   UNL     1       2.095   4.009  21.244  0.00  0.00    +0.000 C 
BRANCH  23  25
ATOM     24  C   UNL     1       1.095   2.539  19.478  0.00  0.00    +0.000 C 
ATOM     25  C   UNL     1       1.415   2.672  20.960  0.00  0.00    +0.000 C 
ENDBRANCH  23  25
ENDBRANCH  22  23
ENDBRANCH  21  22
BRANCH  21  26
ATOM     26  C   UNL     1       2.469   5.736  18.196  0.00  0.00    +0.000 C 
BRANCH  26  27
ATOM     27  C   UNL     1       3.586   4.777  17.752  0.00  0.00    +0.000 C 
BRANCH  27  28
ATOM     28  C   UNL     1       4.757   4.690  18.732  0.00  0.00    +0.000 C 
ATOM     29  C   UNL     1       6.082   4.601  17.988  0.00  0.00    +0.000 C 
ENDBRANCH  27  28
ENDBRANCH  26  27
ENDBRANCH  21  26
ENDBRANCH  20  21
ENDBRANCH  19  20
ENDBRANCH   1  19
TORSDOF 12
ENDMDL
