MODEL 1
REMARK VINA RESULT:      -6.8      0.000      0.000
REMARK  Name = 
REMARK  3 active torsions:
REMARK  status: ('A' for Active; 'I' for Inactive)
REMARK    1  A    between atoms: C_2  and  C_3
REMARK    2  A    between atoms: C_2  and  C_4
REMARK    3  A    between atoms: C_4  and  C_5
REMARK                            x       y       z     vdW  Elec       q    Type
REMARK                         _______ _______ _______ _____ _____    ______ ____
ROOT
ATOM      1  C   UNL     1       4.297   4.629  18.392  0.00  0.00    +0.000 C 
ATOM      2  C   UNL     1       5.477   5.076  19.295  0.00  0.00    +0.000 C 
ATOM      3  C   UNL     1       2.975   5.394  18.782  0.00  0.00    +0.000 C 
ATOM      4  C   UNL     1       1.800   4.943  17.878  0.00  0.00    +0.000 C 
ATOM      5  C   UNL     1       1.537   3.441  18.050  0.00  0.00    +0.000 C 
ATOM      6  C   UNL     1       1.149   3.167  19.510  0.00  0.00    +0.000 C 
ATOM      7  C   UNL     1       2.294   3.603  20.440  0.00  0.00    +0.000 C 
ATOM      8  C   UNL     1       2.557   5.103  20.244  0.00  0.00    +0.000 C 
ATOM      9  C   UNL     1       3.555   2.807  20.079  0.00  0.00    +0.000 C 
ATOM     10  C   UNL     1       3.981   3.098  18.620  0.00  0.00    +0.000 C 
ATOM     11  C   UNL     1       2.811   2.654  17.709  0.00  0.00    +0.000 C 
ENDROOT
BRANCH   1  13
ATOM     12  C   UNL     1       5.242   4.017  16.090  0.00  0.00    +0.000 C 
ATOM     13  C   UNL     1       4.777   4.949  16.942  0.00  0.00    +0.000 C 
ATOM     14  C   UNL     1       4.804   6.394  16.494  0.00  0.00    +0.000 C 
ENDBRANCH   1  13
TORSDOF 1
ENDMDL
MODEL 2
REMARK VINA RESULT:      -6.8      1.076      3.939
REMARK  Name = 
REMARK  3 active torsions:
REMARK  status: ('A' for Active; 'I' for Inactive)
REMARK    1  A    between atoms: C_2  and  C_3
REMARK    2  A    between atoms: C_2  and  C_4
REMARK    3  A    between atoms: C_4  and  C_5
REMARK                            x       y       z     vdW  Elec       q    Type
REMARK                         _______ _______ _______ _____ _____    ______ ____
ROOT
ATOM      1  C   UNL     1       2.254   4.404  19.657  0.00  0.00    +0.000 C 
ATOM      2  C   UNL     1       1.798   5.526  20.628  0.00  0.00    +0.000 C 
ATOM      3  C   UNL     1       3.808   4.168  19.768  0.00  0.00    +0.000 C 
ATOM      4  C   UNL     1       4.258   3.048  18.797  0.00  0.00    +0.000 C 
ATOM      5  C   UNL     1       3.949   3.441  17.345  0.00  0.00    +0.000 C 
ATOM      6  C   UNL     1       4.728   4.716  16.998  0.00  0.00    +0.000 C 
ATOM      7  C   UNL     1       4.307   5.854  17.943  0.00  0.00    +0.000 C 
ATOM      8  C   UNL     1       4.607   5.440  19.391  0.00  0.00    +0.000 C 
ATOM      9  C   UNL     1       2.802   6.103  17.779  0.00  0.00    +0.000 C 
ATOM     10  C   UNL     1       1.998   4.837  18.160  0.00  0.00    +0.000 C 
ATOM     11  C   UNL     1       2.444   3.710  17.197  0.00  0.00    +0.000 C 
ENDROOT
BRANCH   1  13
ATOM     12  C   UNL     1       0.550   2.528  19.277  0.00  0.00    +0.000 C 
ATOM     13  C   UNL     1       1.420   3.157  20.088  0.00  0.00    +0.000 C 
ATOM     14  C   UNL     1       1.526   2.678  21.520  0.00  0.00    +0.000 C 
ENDBRANCH   1  13
TORSDOF 1
ENDMDL
MODEL 3
REMARK VINA RESULT:      -6.7      1.369      2.643
REMARK  Name = 
REMARK  3 active torsions:
REMARK  status: ('A' for Active; 'I' for Inactive)
REMARK    1  A    between atoms: C_2  and  C_3
REMARK    2  A    between atoms: C_2  and  C_4
REMARK    3  A    between atoms: C_4  and  C_5
REMARK                            x       y       z     vdW  Elec       q    Type
REMARK                         _______ _______ _______ _____ _____    ______ ____
ROOT
ATOM      1  C   UNL     1       3.268   5.150  19.182  0.00  0.00    +0.000 C 
ATOM      2  C   UNL     1       4.797   5.371  19.330  0.00  0.00    +0.000 C 
ATOM      3  C   UNL     1       2.726   4.210  20.325  0.00  0.00    +0.000 C 
ATOM      4  C   UNL     1       1.200   3.992  20.172  0.00  0.00    +0.000 C 
ATOM      5  C   UNL     1       0.886   3.320  18.828  0.00  0.00    +0.000 C 
ATOM      6  C   UNL     1       1.571   1.948  18.786  0.00  0.00    +0.000 C 
ATOM      7  C   UNL     1       3.091   2.123  18.935  0.00  0.00    +0.000 C 
ATOM      8  C   UNL     1       3.389   2.811  20.275  0.00  0.00    +0.000 C 
ATOM      9  C   UNL     1       3.605   2.996  17.782  0.00  0.00    +0.000 C 
ATOM     10  C   UNL     1       2.951   4.397  17.830  0.00  0.00    +0.000 C 
ATOM     11  C   UNL     1       1.424   4.190  17.682  0.00  0.00    +0.000 C 
ENDROOT
BRANCH   1  13
ATOM     12  C   UNL     1       1.970   7.059  20.296  0.00  0.00    +0.000 C 
ATOM     13  C   UNL     1       2.662   6.587  19.242  0.00  0.00    +0.000 C 
ATOM     14  C   UNL     1       2.782   7.473  18.021  0.00  0.00    +0.000 C 
ENDBRANCH   1  13
TORSDOF 1
ENDMDL
MODEL 4
REMARK VINA RESULT:      -6.7      1.008      2.093
REMARK  Name = 
REMARK  3 active torsions:
REMARK  status: ('A' for Active; 'I' for Inactive)
REMARK    1  A    between atoms: C_2  and  C_3
REMARK    2  A    between atoms: C_2  and  C_4
REMARK    3  A    between atoms: C_4  and  C_5
REMARK                            x       y       z     vdW  Elec       q    Type
REMARK                         _______ _______ _______ _____ _____    ______ ____
ROOT
ATOM      1  C   UNL     1       3.927   4.724  18.004  0.00  0.00    +0.000 C 
ATOM      2  C   UNL     1       3.668   6.237  17.772  0.00  0.00    +0.000 C 
ATOM      3  C   UNL     1       2.788   3.855  17.349  0.00  0.00    +0.000 C 
ATOM      4  C   UNL     1       3.052   2.347  17.584  0.00  0.00    +0.000 C 
ATOM      5  C   UNL     1       3.071   2.033  19.087  0.00  0.00    +0.000 C 
ATOM      6  C   UNL     1       1.700   2.377  19.684  0.00  0.00    +0.000 C 
ATOM      7  C   UNL     1       1.402   3.870  19.470  0.00  0.00    +0.000 C 
ATOM      8  C   UNL     1       1.403   4.172  17.964  0.00  0.00    +0.000 C 
ATOM      9  C   UNL     1       2.493   4.698  20.162  0.00  0.00    +0.000 C 
ATOM     10  C   UNL     1       3.879   4.390  19.547  0.00  0.00    +0.000 C 
ATOM     11  C   UNL     1       4.151   2.883  19.774  0.00  0.00    +0.000 C 
ENDROOT
BRANCH   1  13
ATOM     12  C   UNL     1       6.488   4.624  18.027  0.00  0.00    +0.000 C 
ATOM     13  C   UNL     1       5.328   4.470  17.363  0.00  0.00    +0.000 C 
ATOM     14  C   UNL     1       5.394   4.115  15.893  0.00  0.00    +0.000 C 
ENDBRANCH   1  13
TORSDOF 1
ENDMDL
MODEL 5
REMARK VINA RESULT:      -6.6      0.418      1.015
REMARK  Name = 
REMARK  3 active torsions:
REMARK  status: ('A' for Active; 'I' for Inactive)
REMARK    1  A    between atoms: C_2  and  C_3
REMARK    2  A    between atoms: C_2  and  C_4
REMARK    3  A    between atoms: C_4  and  C_5
REMARK                            x       y       z     vdW  Elec       q    Type
REMARK                         _______ _______ _______ _____ _____    ______ ____
ROOT
ATOM      1  C   UNL     1       4.452   4.755  18.236  0.00  0.00    +0.000 C 
ATOM      2  C   UNL     1       5.722   4.882  19.119  0.00  0.00    +0.000 C 
ATOM      3  C   UNL     1       3.274   5.620  18.826  0.00  0.00    +0.000 C 
ATOM      4  C   UNL     1       2.009   5.491  17.941  0.00  0.00    +0.000 C 
ATOM      5  C   UNL     1       1.536   4.031  17.892  0.00  0.00    +0.000 C 
ATOM      6  C   UNL     1       1.174   3.578  19.313  0.00  0.00    +0.000 C 
ATOM      7  C   UNL     1       2.408   3.692  20.223  0.00  0.00    +0.000 C 
ATOM      8  C   UNL     1       2.880   5.154  20.249  0.00  0.00    +0.000 C 
ATOM      9  C   UNL     1       3.524   2.801  19.661  0.00  0.00    +0.000 C 
ATOM     10  C   UNL     1       3.926   3.267  18.241  0.00  0.00    +0.000 C 
ATOM     11  C   UNL     1       2.667   3.144  17.350  0.00  0.00    +0.000 C 
ENDROOT
BRANCH   1  13
ATOM     12  C   UNL     1       4.875   6.528  16.434  0.00  0.00    +0.000 C 
ATOM     13  C   UNL     1       4.913   5.241  16.826  0.00  0.00    +0.000 C 
ATOM     14  C   UNL     1       5.344   4.204  15.812  0.00  0.00    +0.000 C 
ENDBRANCH   1  13
TORSDOF 1
ENDMDL
MODEL 6
REMARK VINA RESULT:      -6.6      1.087      3.882
REMARK  Name = 
REMARK  3 active torsions:
REMARK  status: ('A' for Active; 'I' for Inactive)
REMARK    1  A    between atoms: C_2  and  C_3
REMARK    2  A    between atoms: C_2  and  C_4
REMARK    3  A    between atoms: C_4  and  C_5
REMARK                            x       y       z     vdW  Elec       q    Type
REMARK                         _______ _______ _______ _____ _____    ______ ____
ROOT
ATOM      1  C   UNL     1       3.027   3.447  19.262  0.00  0.00    +0.000 C 
ATOM      2  C   UNL     1       4.008   2.253  19.408  0.00  0.00    +0.000 C 
ATOM      3  C   UNL     1       2.826   3.822  17.745  0.00  0.00    +0.000 C 
ATOM      4  C   UNL     1       1.846   5.014  17.605  0.00  0.00    +0.000 C 
ATOM      5  C   UNL     1       2.403   6.252  18.321  0.00  0.00    +0.000 C 
ATOM      6  C   UNL     1       3.734   6.649  17.668  0.00  0.00    +0.000 C 
ATOM      7  C   UNL     1       4.735   5.488  17.787  0.00  0.00    +0.000 C 
ATOM      8  C   UNL     1       4.157   4.252  17.081  0.00  0.00    +0.000 C 
ATOM      9  C   UNL     1       4.957   5.175  19.273  0.00  0.00    +0.000 C 
ATOM     10  C   UNL     1       3.631   4.739  19.940  0.00  0.00    +0.000 C 
ATOM     11  C   UNL     1       2.644   5.923  19.802  0.00  0.00    +0.000 C 
ENDROOT
BRANCH   1  13
ATOM     12  C   UNL     1       1.512   2.971  21.274  0.00  0.00    +0.000 C 
ATOM     13  C   UNL     1       1.713   2.952  19.943  0.00  0.00    +0.000 C 
ATOM     14  C   UNL     1       0.637   2.337  19.073  0.00  0.00    +0.000 C 
ENDBRANCH   1  13
TORSDOF 1
ENDMDL
MODEL 7
REMARK VINA RESULT:      -6.5      1.087      2.352
REMARK  Name = 
REMARK  3 active torsions:
REMARK  status: ('A' for Active; 'I' for Inactive)
REMARK    1  A    between atoms: C_2  and  C_3
REMARK    2  A    between atoms: C_2  and  C_4
REMARK    3  A    between atoms: C_4  and  C_5
REMARK                            x       y       z     vdW  Elec       q    Type
REMARK                         _______ _______ _______ _____ _____    ______ ____
ROOT
ATOM      1  C   UNL     1       3.593   3.149  18.329  0.00  0.00    +0.000 C 
ATOM      2  C   UNL     1       3.880   1.648  18.059  0.00  0.00    +0.000 C 
ATOM      3  C   UNL     1       3.628   3.455  19.875  0.00  0.00    +0.000 C 
ATOM      4  C   UNL     1       3.341   4.954  20.139  0.00  0.00    +0.000 C 
ATOM      5  C   UNL     1       1.946   5.332  19.621  0.00  0.00    +0.000 C 
ATOM      6  C   UNL     1       0.895   4.505  20.372  0.00  0.00    +0.000 C 
ATOM      7  C   UNL     1       1.147   3.007  20.133  0.00  0.00    +0.000 C 
ATOM      8  C   UNL     1       2.551   2.647  20.641  0.00  0.00    +0.000 C 
ATOM      9  C   UNL     1       1.055   2.722  18.628  0.00  0.00    +0.000 C 
ATOM     10  C   UNL     1       2.133   3.522  17.858  0.00  0.00    +0.000 C 
ATOM     11  C   UNL     1       1.856   5.023  18.119  0.00  0.00    +0.000 C 
ENDROOT
BRANCH   1  13
ATOM     12  C   UNL     1       4.700   4.048  16.199  0.00  0.00    +0.000 C 
ATOM     13  C   UNL     1       4.707   3.903  17.538  0.00  0.00    +0.000 C 
ATOM     14  C   UNL     1       5.905   4.428  18.300  0.00  0.00    +0.000 C 
ENDBRANCH   1  13
TORSDOF 1
ENDMDL
MODEL 8
REMARK VINA RESULT:      -6.4      0.951      2.611
REMARK  Name = 
REMARK  3 active torsions:
REMARK  status: ('A' for Active; 'I' for Inactive)
REMARK    1  A    between atoms: C_2  and  C_3
REMARK    2  A    between atoms: C_2  and  C_4
REMARK    3  A    between atoms: C_4  and  C_5
REMARK                            x       y       z     vdW  Elec       q    Type
REMARK                         _______ _______ _______ _____ _____    ______ ____
ROOT
ATOM      1  C   UNL     1       3.891   4.417  18.017  0.00  0.00    +0.000 C 
ATOM      2  C   UNL     1       4.228   3.737  16.663  0.00  0.00    +0.000 C 
ATOM      3  C   UNL     1       3.740   3.343  19.160  0.00  0.00    +0.000 C 
ATOM      4  C   UNL     1       3.404   4.027  20.508  0.00  0.00    +0.000 C 
ATOM      5  C   UNL     1       2.075   4.788  20.406  0.00  0.00    +0.000 C 
ATOM      6  C   UNL     1       0.954   3.792  20.084  0.00  0.00    +0.000 C 
ATOM      7  C   UNL     1       1.253   3.091  18.748  0.00  0.00    +0.000 C 
ATOM      8  C   UNL     1       2.592   2.348  18.860  0.00  0.00    +0.000 C 
ATOM      9  C   UNL     1       1.342   4.150  17.641  0.00  0.00    +0.000 C 
ATOM     10  C   UNL     1       2.492   5.143  17.933  0.00  0.00    +0.000 C 
ATOM     11  C   UNL     1       2.166   5.830  19.282  0.00  0.00    +0.000 C 
ENDROOT
BRANCH   1  13
ATOM     12  C   UNL     1       6.006   5.220  19.222  0.00  0.00    +0.000 C 
ATOM     13  C   UNL     1       5.080   5.399  18.262  0.00  0.00    +0.000 C 
ATOM     14  C   UNL     1       5.153   6.665  17.435  0.00  0.00    +0.000 C 
ENDBRANCH   1  13
TORSDOF 1
ENDMDL
MODEL 9
REMARK VINA RESULT:      -6.2      1.253      2.368
REMARK  Name = 
REMARK  3 active torsions:
REMARK  status: ('A' for Active; 'I' for Inactive)
REMARK    1  A    between atoms: C_2  and  C_3
REMARK    2  A    between atoms: C_2  and  C_4
REMARK    3  A    between atoms: C_4  and  C_5
REMARK                            x       y       z     vdW  Elec       q    Type
REMARK                         _______ _______ _______ _____ _____    ______ ____
ROOT
ATOM      1  C   UNL     1       2.630   5.239  19.123  0.00  0.00    +0.000 C 
ATOM      2  C   UNL     1       1.870   5.920  20.293  0.00  0.00    +0.000 C 
ATOM      3  C   UNL     1       1.661   4.319  18.287  0.00  0.00    +0.000 C 
ATOM      4  C   UNL     1       2.425   3.643  17.122  0.00  0.00    +0.000 C 
ATOM      5  C   UNL     1       3.555   2.757  17.664  0.00  0.00    +0.000 C 
ATOM      6  C   UNL     1       2.946   1.654  18.541  0.00  0.00    +0.000 C 
ATOM      7  C   UNL     1       2.178   2.289  19.712  0.00  0.00    +0.000 C 
ATOM      8  C   UNL     1       1.062   3.184  19.154  0.00  0.00    +0.000 C 
ATOM      9  C   UNL     1       3.152   3.135  20.543  0.00  0.00    +0.000 C 
ATOM     10  C   UNL     1       3.748   4.275  19.683  0.00  0.00    +0.000 C 
ATOM     11  C   UNL     1       4.511   3.608  18.513  0.00  0.00    +0.000 C 
ENDROOT
BRANCH   1  13
ATOM     12  C   UNL     1       4.464   6.469  17.822  0.00  0.00    +0.000 C 
ATOM     13  C   UNL     1       3.203   6.429  18.291  0.00  0.00    +0.000 C 
ATOM     14  C   UNL     1       2.327   7.643  18.070  0.00  0.00    +0.000 C 
ENDBRANCH   1  13
TORSDOF 1
ENDMDL
