MODEL 1
REMARK VINA RESULT:      -6.8      0.000      0.000
REMARK  Name = 
REMARK  4 active torsions:
REMARK  status: ('A' for Active; 'I' for Inactive)
REMARK    1  A    between atoms: N_18  and  C_19
REMARK    2  A    between atoms: C_19  and  C_20
REMARK    3  A    between atoms: C_20  and  C_21
REMARK    4  A    between atoms: C_21  and  N_22
REMARK                            x       y       z     vdW  Elec       q    Type
REMARK                         _______ _______ _______ _____ _____    ______ ____
ROOT
ATOM      1 CL   UNL     1       6.660   3.943  13.335  0.00  0.00    +0.000 Cl
ATOM      2  C   UNL     1       5.863   4.572  14.722  0.00  0.00    +0.000 A 
ATOM      3  C   UNL     1       5.974   5.901  15.068  0.00  0.00    +0.000 A 
ATOM      4  C   UNL     1       5.411   6.365  16.282  0.00  0.00    +0.000 A 
ATOM      5 CL   UNL     1       6.228   7.778  16.906  0.00  0.00    +0.000 Cl
ATOM      6  C   UNL     1       4.507   5.593  17.063  0.00  0.00    +0.000 A 
ATOM      7  C   UNL     1       4.518   4.224  16.707  0.00  0.00    +0.000 A 
ATOM      8  C   UNL     1       5.201   3.724  15.576  0.00  0.00    +0.000 A 
ATOM      9  S   UNL     1       3.777   2.931  17.636  0.00  0.00    +0.000 S 
ATOM     10  C   UNL     1       3.054   3.792  18.990  0.00  0.00    +0.000 A 
ATOM     11  C   UNL     1       2.470   2.910  19.908  0.00  0.00    +0.000 A 
ATOM     12  C   UNL     1       1.757   3.382  20.987  0.00  0.00    +0.000 A 
ATOM     13 CL   UNL     1       1.010   2.280  22.075  0.00  0.00    +0.000 Cl
ATOM     14  C   UNL     1       1.660   4.740  21.187  0.00  0.00    +0.000 A 
ATOM     15  C   UNL     1       2.310   5.644  20.322  0.00  0.00    +0.000 A 
ATOM     16 CL   UNL     1       2.202   7.269  20.949  0.00  0.00    +0.000 Cl
ATOM     17  C   UNL     1       3.029   5.213  19.145  0.00  0.00    +0.000 A 
ATOM     18  N   UNL     1       3.667   6.069  18.137  0.00  0.00    +0.000 N 
ENDROOT
BRANCH  18  19
ATOM     19  C   UNL     1       3.269   7.521  18.200  0.00  0.00    +0.000 C 
BRANCH  19  20
ATOM     20  C   UNL     1       2.025   8.048  17.477  0.00  0.00    +0.000 C 
BRANCH  20  21
ATOM     21  C   UNL     1       1.694   9.504  17.900  0.00  0.00    +0.000 C 
BRANCH  21  22
ATOM     22  N   UNL     1       0.543   9.648  18.812  0.00  0.00    +0.000 NA
ATOM     23  C   UNL     1      -0.660  10.193  18.170  0.00  0.00    +0.000 C 
ATOM     24  C   UNL     1      -0.725  11.649  18.595  0.00  0.00    +0.000 C 
ATOM     25  C   UNL     1      -0.195  11.607  20.009  0.00  0.00    +0.000 C 
ATOM     26  C   UNL     1       0.833  10.482  19.993  0.00  0.00    +0.000 C 
ENDBRANCH  21  22
ENDBRANCH  20  21
ENDBRANCH  19  20
ENDBRANCH  18  19
TORSDOF 4
ENDMDL
MODEL 2
REMARK VINA RESULT:      -6.5      2.409      6.725
REMARK  Name = 
REMARK  4 active torsions:
REMARK  status: ('A' for Active; 'I' for Inactive)
REMARK    1  A    between atoms: N_18  and  C_19
REMARK    2  A    between atoms: C_19  and  C_20
REMARK    3  A    between atoms: C_20  and  C_21
REMARK    4  A    between atoms: C_21  and  N_22
REMARK                            x       y       z     vdW  Elec       q    Type
REMARK                         _______ _______ _______ _____ _____    ______ ____
ROOT
ATOM      1 CL   UNL     1      -0.551  11.530  18.511  0.00  0.00    +0.000 Cl
ATOM      2  C   UNL     1       0.412  10.153  18.869  0.00  0.00    +0.000 A 
ATOM      3  C   UNL     1       0.359   9.545  20.105  0.00  0.00    +0.000 A 
ATOM      4  C   UNL     1       1.251   8.490  20.414  0.00  0.00    +0.000 A 
ATOM      5 CL   UNL     1       1.563   8.354  22.128  0.00  0.00    +0.000 Cl
ATOM      6  C   UNL     1       2.047   7.835  19.434  0.00  0.00    +0.000 A 
ATOM      7  C   UNL     1       2.126   8.565  18.226  0.00  0.00    +0.000 A 
ATOM      8  C   UNL     1       1.343   9.712  17.961  0.00  0.00    +0.000 A 
ATOM      9  S   UNL     1       3.246   8.234  16.914  0.00  0.00    +0.000 S 
ATOM     10  C   UNL     1       4.122   6.825  17.500  0.00  0.00    +0.000 A 
ATOM     11  C   UNL     1       5.139   6.445  16.615  0.00  0.00    +0.000 A 
ATOM     12  C   UNL     1       5.876   5.302  16.831  0.00  0.00    +0.000 A 
ATOM     13 CL   UNL     1       7.086   4.832  15.704  0.00  0.00    +0.000 Cl
ATOM     14  C   UNL     1       5.638   4.553  17.960  0.00  0.00    +0.000 A 
ATOM     15  C   UNL     1       4.678   4.962  18.908  0.00  0.00    +0.000 A 
ATOM     16 CL   UNL     1       4.758   3.952  20.329  0.00  0.00    +0.000 Cl
ATOM     17  C   UNL     1       3.838   6.121  18.712  0.00  0.00    +0.000 A 
ATOM     18  N   UNL     1       2.755   6.586  19.588  0.00  0.00    +0.000 N 
ENDROOT
BRANCH  18  19
ATOM     19  C   UNL     1       2.305   5.583  20.620  0.00  0.00    +0.000 C 
BRANCH  19  20
ATOM     20  C   UNL     1       0.960   4.859  20.508  0.00  0.00    +0.000 C 
BRANCH  20  21
ATOM     21  C   UNL     1       1.148   3.322  20.409  0.00  0.00    +0.000 C 
BRANCH  21  22
ATOM     22  N   UNL     1       0.975   2.753  19.058  0.00  0.00    +0.000 NA
ATOM     23  C   UNL     1       1.743   1.522  18.829  0.00  0.00    +0.000 C 
ATOM     24  C   UNL     1       2.946   1.940  18.001  0.00  0.00    +0.000 C 
ATOM     25  C   UNL     1       2.379   3.026  17.117  0.00  0.00    +0.000 C 
ATOM     26  C   UNL     1       1.316   3.697  17.977  0.00  0.00    +0.000 C 
ENDBRANCH  21  22
ENDBRANCH  20  21
ENDBRANCH  19  20
ENDBRANCH  18  19
TORSDOF 4
ENDMDL
MODEL 3
REMARK VINA RESULT:      -6.2      5.248      8.369
REMARK  Name = 
REMARK  4 active torsions:
REMARK  status: ('A' for Active; 'I' for Inactive)
REMARK    1  A    between atoms: N_18  and  C_19
REMARK    2  A    between atoms: C_19  and  C_20
REMARK    3  A    between atoms: C_20  and  C_21
REMARK    4  A    between atoms: C_21  and  N_22
REMARK                            x       y       z     vdW  Elec       q    Type
REMARK                         _______ _______ _______ _____ _____    ______ ____
ROOT
ATOM      1 CL   UNL     1       1.680   6.545  20.721  0.00  0.00    +0.000 Cl
ATOM      2  C   UNL     1       1.127   8.165  20.576  0.00  0.00    +0.000 A 
ATOM      3  C   UNL     1       1.442   8.933  19.476  0.00  0.00    +0.000 A 
ATOM      4  C   UNL     1       1.078  10.301  19.440  0.00  0.00    +0.000 A 
ATOM      5 CL   UNL     1       2.130  11.250  18.418  0.00  0.00    +0.000 Cl
ATOM      6  C   UNL     1       0.175  10.889  20.370  0.00  0.00    +0.000 A 
ATOM      7  C   UNL     1      -0.025  10.081  21.513  0.00  0.00    +0.000 A 
ATOM      8  C   UNL     1       0.461   8.758  21.622  0.00  0.00    +0.000 A 
ATOM      9  S   UNL     1      -0.816  10.599  22.993  0.00  0.00    +0.000 S 
ATOM     10  C   UNL     1      -1.272  12.259  22.626  0.00  0.00    +0.000 A 
ATOM     11  C   UNL     1      -1.857  12.889  23.732  0.00  0.00    +0.000 A 
ATOM     12  C   UNL     1      -2.382  14.157  23.629  0.00  0.00    +0.000 A 
ATOM     13 CL   UNL     1      -3.137  14.890  24.988  0.00  0.00    +0.000 Cl
ATOM     14  C   UNL     1      -2.284  14.830  22.433  0.00  0.00    +0.000 A 
ATOM     15  C   UNL     1      -1.625  14.248  21.331  0.00  0.00    +0.000 A 
ATOM     16 CL   UNL     1      -1.458  15.411  20.040  0.00  0.00    +0.000 Cl
ATOM     17  C   UNL     1      -1.100  12.902  21.361  0.00  0.00    +0.000 A 
ATOM     18  N   UNL     1      -0.474  12.173  20.251  0.00  0.00    +0.000 N 
ENDROOT
BRANCH  18  19
ATOM     19  C   UNL     1      -0.677  12.796  18.893  0.00  0.00    +0.000 C 
BRANCH  19  20
ATOM     20  C   UNL     1      -1.638  12.192  17.864  0.00  0.00    +0.000 C 
BRANCH  20  21
ATOM     21  C   UNL     1      -2.970  11.746  18.523  0.00  0.00    +0.000 C 
BRANCH  21  22
ATOM     22  N   UNL     1      -3.782  10.804  17.726  0.00  0.00    +0.000 NA
ATOM     23  C   UNL     1      -3.075   9.569  17.365  0.00  0.00    +0.000 C 
ATOM     24  C   UNL     1      -2.673   9.739  15.911  0.00  0.00    +0.000 C 
ATOM     25  C   UNL     1      -3.835  10.513  15.333  0.00  0.00    +0.000 C 
ATOM     26  C   UNL     1      -4.309  11.394  16.482  0.00  0.00    +0.000 C 
ENDBRANCH  21  22
ENDBRANCH  20  21
ENDBRANCH  19  20
ENDBRANCH  18  19
TORSDOF 4
ENDMDL
MODEL 4
REMARK VINA RESULT:      -6.1      7.129     10.353
REMARK  Name = 
REMARK  4 active torsions:
REMARK  status: ('A' for Active; 'I' for Inactive)
REMARK    1  A    between atoms: N_18  and  C_19
REMARK    2  A    between atoms: C_19  and  C_20
REMARK    3  A    between atoms: C_20  and  C_21
REMARK    4  A    between atoms: C_21  and  N_22
REMARK                            x       y       z     vdW  Elec       q    Type
REMARK                         _______ _______ _______ _____ _____    ______ ____
ROOT
ATOM      1 CL   UNL     1      -3.235  14.595  25.089  0.00  0.00    +0.000 Cl
ATOM      2  C   UNL     1      -2.219  14.008  23.834  0.00  0.00    +0.000 A 
ATOM      3  C   UNL     1      -2.215  12.676  23.482  0.00  0.00    +0.000 A 
ATOM      4  C   UNL     1      -1.281  12.198  22.531  0.00  0.00    +0.000 A 
ATOM      5 CL   UNL     1      -0.912  10.503  22.744  0.00  0.00    +0.000 Cl
ATOM      6  C   UNL     1      -0.495  13.058  21.715  0.00  0.00    +0.000 A 
ATOM      7  C   UNL     1      -0.476  14.389  22.193  0.00  0.00    +0.000 A 
ATOM      8  C   UNL     1      -1.303  14.845  23.245  0.00  0.00    +0.000 A 
ATOM      9  S   UNL     1       0.612  15.649  21.637  0.00  0.00    +0.000 S 
ATOM     10  C   UNL     1       1.550  14.829  20.393  0.00  0.00    +0.000 A 
ATOM     11  C   UNL     1       2.550  15.659  19.871  0.00  0.00    +0.000 A 
ATOM     12  C   UNL     1       3.328  15.249  18.812  0.00  0.00    +0.000 A 
ATOM     13 CL   UNL     1       4.518  16.304  18.158  0.00  0.00    +0.000 Cl
ATOM     14  C   UNL     1       3.150  13.987  18.295  0.00  0.00    +0.000 A 
ATOM     15  C   UNL     1       2.206  13.104  18.860  0.00  0.00    +0.000 A 
ATOM     16 CL   UNL     1       2.362  11.516  18.153  0.00  0.00    +0.000 Cl
ATOM     17  C   UNL     1       1.325  13.494  19.936  0.00  0.00    +0.000 A 
ATOM     18  N   UNL     1       0.256  12.687  20.538  0.00  0.00    +0.000 N 
ENDROOT
BRANCH  18  19
ATOM     19  C   UNL     1      -0.131  11.462  19.749  0.00  0.00    +0.000 C 
BRANCH  19  20
ATOM     20  C   UNL     1      -1.262  11.492  18.716  0.00  0.00    +0.000 C 
BRANCH  20  21
ATOM     21  C   UNL     1      -1.369  10.147  17.950  0.00  0.00    +0.000 C 
BRANCH  21  22
ATOM     22  N   UNL     1      -2.701   9.849  17.386  0.00  0.00    +0.000 NA
ATOM     23  C   UNL     1      -2.708   9.700  15.926  0.00  0.00    +0.000 C 
ATOM     24  C   UNL     1      -3.276  11.001  15.386  0.00  0.00    +0.000 C 
ATOM     25  C   UNL     1      -4.306  11.371  16.427  0.00  0.00    +0.000 C 
ATOM     26  C   UNL     1      -3.722  10.853  17.736  0.00  0.00    +0.000 C 
ENDBRANCH  21  22
ENDBRANCH  20  21
ENDBRANCH  19  20
ENDBRANCH  18  19
TORSDOF 4
ENDMDL
MODEL 5
REMARK VINA RESULT:      -6.1      7.329      9.597
REMARK  Name = 
REMARK  4 active torsions:
REMARK  status: ('A' for Active; 'I' for Inactive)
REMARK    1  A    between atoms: N_18  and  C_19
REMARK    2  A    between atoms: C_19  and  C_20
REMARK    3  A    between atoms: C_20  and  C_21
REMARK    4  A    between atoms: C_21  and  N_22
REMARK                            x       y       z     vdW  Elec       q    Type
REMARK                         _______ _______ _______ _____ _____    ______ ____
ROOT
ATOM      1 CL   UNL     1      -3.099   9.687  15.168  0.00  0.00    +0.000 Cl
ATOM      2  C   UNL     1      -2.764  10.408  16.691  0.00  0.00    +0.000 A 
ATOM      3  C   UNL     1      -1.520  10.300  17.274  0.00  0.00    +0.000 A 
ATOM      4  C   UNL     1      -1.307  10.797  18.583  0.00  0.00    +0.000 A 
ATOM      5 CL   UNL     1      -0.012   9.968  19.414  0.00  0.00    +0.000 Cl
ATOM      6  C   UNL     1      -2.237  11.637  19.256  0.00  0.00    +0.000 A 
ATOM      7  C   UNL     1      -3.514  11.623  18.649  0.00  0.00    +0.000 A 
ATOM      8  C   UNL     1      -3.775  11.002  17.407  0.00  0.00    +0.000 A 
ATOM      9  S   UNL     1      -4.979  12.283  19.358  0.00  0.00    +0.000 S 
ATOM     10  C   UNL     1      -4.407  12.937  20.888  0.00  0.00    +0.000 A 
ATOM     11  C   UNL     1      -5.461  13.447  21.657  0.00  0.00    +0.000 A 
ATOM     12  C   UNL     1      -5.220  14.102  22.844  0.00  0.00    +0.000 A 
ATOM     13 CL   UNL     1      -6.527  14.761  23.745  0.00  0.00    +0.000 Cl
ATOM     14  C   UNL     1      -3.927  14.210  23.301  0.00  0.00    +0.000 A 
ATOM     15  C   UNL     1      -2.859  13.631  22.585  0.00  0.00    +0.000 A 
ATOM     16 CL   UNL     1      -1.383  13.730  23.512  0.00  0.00    +0.000 Cl
ATOM     17  C   UNL     1      -3.042  12.978  21.310  0.00  0.00    +0.000 A 
ATOM     18  N   UNL     1      -1.994  12.418  20.446  0.00  0.00    +0.000 N 
ENDROOT
BRANCH  18  19
ATOM     19  C   UNL     1      -0.591  12.838  20.803  0.00  0.00    +0.000 C 
BRANCH  19  20
ATOM     20  C   UNL     1       0.124  13.973  20.063  0.00  0.00    +0.000 C 
BRANCH  20  21
ATOM     21  C   UNL     1       1.367  13.456  19.293  0.00  0.00    +0.000 C 
BRANCH  21  22
ATOM     22  N   UNL     1       2.566  14.313  19.386  0.00  0.00    +0.000 NA
ATOM     23  C   UNL     1       2.266  15.748  19.469  0.00  0.00    +0.000 C 
ATOM     24  C   UNL     1       2.540  16.302  18.082  0.00  0.00    +0.000 C 
ATOM     25  C   UNL     1       3.723  15.483  17.624  0.00  0.00    +0.000 C 
ATOM     26  C   UNL     1       3.511  14.120  18.271  0.00  0.00    +0.000 C 
ENDBRANCH  21  22
ENDBRANCH  20  21
ENDBRANCH  19  20
ENDBRANCH  18  19
TORSDOF 4
ENDMDL
MODEL 6
REMARK VINA RESULT:      -6.0      7.536      9.707
REMARK  Name = 
REMARK  4 active torsions:
REMARK  status: ('A' for Active; 'I' for Inactive)
REMARK    1  A    between atoms: N_18  and  C_19
REMARK    2  A    between atoms: C_19  and  C_20
REMARK    3  A    between atoms: C_20  and  C_21
REMARK    4  A    between atoms: C_21  and  N_22
REMARK                            x       y       z     vdW  Elec       q    Type
REMARK                         _______ _______ _______ _____ _____    ______ ____
ROOT
ATOM      1 CL   UNL     1      -3.611  10.077  14.622  0.00  0.00    +0.000 Cl
ATOM      2  C   UNL     1      -3.180  10.630  16.191  0.00  0.00    +0.000 A 
ATOM      3  C   UNL     1      -1.911  10.439  16.693  0.00  0.00    +0.000 A 
ATOM      4  C   UNL     1      -1.619  10.793  18.032  0.00  0.00    +0.000 A 
ATOM      5 CL   UNL     1      -0.304   9.860  18.703  0.00  0.00    +0.000 Cl
ATOM      6  C   UNL     1      -2.493  11.576  18.836  0.00  0.00    +0.000 A 
ATOM      7  C   UNL     1      -3.800  11.649  18.301  0.00  0.00    +0.000 A 
ATOM      8  C   UNL     1      -4.139  11.164  17.017  0.00  0.00    +0.000 A 
ATOM      9  S   UNL     1      -5.211  12.257  19.152  0.00  0.00    +0.000 S 
ATOM     10  C   UNL     1      -4.545  12.739  20.708  0.00  0.00    +0.000 A 
ATOM     11  C   UNL     1      -5.546  13.186  21.580  0.00  0.00    +0.000 A 
ATOM     12  C   UNL     1      -5.229  13.709  22.814  0.00  0.00    +0.000 A 
ATOM     13 CL   UNL     1      -6.471  14.294  23.847  0.00  0.00    +0.000 Cl
ATOM     14  C   UNL     1      -3.912  13.746  23.209  0.00  0.00    +0.000 A 
ATOM     15  C   UNL     1      -2.895  13.224  22.382  0.00  0.00    +0.000 A 
ATOM     16 CL   UNL     1      -1.372  13.200  23.233  0.00  0.00    +0.000 Cl
ATOM     17  C   UNL     1      -3.159  12.711  21.057  0.00  0.00    +0.000 A 
ATOM     18  N   UNL     1      -2.172  12.225  20.086  0.00  0.00    +0.000 N 
ENDROOT
BRANCH  18  19
ATOM     19  C   UNL     1      -0.742  12.580  20.408  0.00  0.00    +0.000 C 
BRANCH  19  20
ATOM     20  C   UNL     1       0.009  13.673  19.642  0.00  0.00    +0.000 C 
BRANCH  20  21
ATOM     21  C   UNL     1      -0.886  14.916  19.399  0.00  0.00    +0.000 C 
BRANCH  21  22
ATOM     22  N   UNL     1      -0.207  16.219  19.542  0.00  0.00    +0.000 NA
ATOM     23  C   UNL     1      -1.079  17.375  19.297  0.00  0.00    +0.000 C 
ATOM     24  C   UNL     1      -0.728  17.861  17.902  0.00  0.00    +0.000 C 
ATOM     25  C   UNL     1       0.760  17.611  17.827  0.00  0.00    +0.000 C 
ATOM     26  C   UNL     1       0.975  16.361  18.672  0.00  0.00    +0.000 C 
ENDBRANCH  21  22
ENDBRANCH  20  21
ENDBRANCH  19  20
ENDBRANCH  18  19
TORSDOF 4
ENDMDL
MODEL 7
REMARK VINA RESULT:      -5.9      7.864      9.800
REMARK  Name = 
REMARK  4 active torsions:
REMARK  status: ('A' for Active; 'I' for Inactive)
REMARK    1  A    between atoms: N_18  and  C_19
REMARK    2  A    between atoms: C_19  and  C_20
REMARK    3  A    between atoms: C_20  and  C_21
REMARK    4  A    between atoms: C_21  and  N_22
REMARK                            x       y       z     vdW  Elec       q    Type
REMARK                         _______ _______ _______ _____ _____    ______ ____
ROOT
ATOM      1 CL   UNL     1      -3.813  10.180  14.173  0.00  0.00    +0.000 Cl
ATOM      2  C   UNL     1      -3.492  10.702  15.778  0.00  0.00    +0.000 A 
ATOM      3  C   UNL     1      -2.226  10.624  16.315  0.00  0.00    +0.000 A 
ATOM      4  C   UNL     1      -2.014  10.945  17.678  0.00  0.00    +0.000 A 
ATOM      5 CL   UNL     1      -0.627  10.126  18.355  0.00  0.00    +0.000 Cl
ATOM      6  C   UNL     1      -2.991  11.593  18.484  0.00  0.00    +0.000 A 
ATOM      7  C   UNL     1      -4.282  11.552  17.906  0.00  0.00    +0.000 A 
ATOM      8  C   UNL     1      -4.528  11.093  16.592  0.00  0.00    +0.000 A 
ATOM      9  S   UNL     1      -5.775  11.968  18.732  0.00  0.00    +0.000 S 
ATOM     10  C   UNL     1      -5.212  12.445  20.330  0.00  0.00    +0.000 A 
ATOM     11  C   UNL     1      -6.281  12.743  21.184  0.00  0.00    +0.000 A 
ATOM     12  C   UNL     1      -6.059  13.240  22.450  0.00  0.00    +0.000 A 
ATOM     13 CL   UNL     1      -7.388  13.642  23.463  0.00  0.00    +0.000 Cl
ATOM     14  C   UNL     1      -4.766  13.397  22.892  0.00  0.00    +0.000 A 
ATOM     15  C   UNL     1      -3.675  13.025  22.080  0.00  0.00    +0.000 A 
ATOM     16 CL   UNL     1      -2.185  13.122  22.982  0.00  0.00    +0.000 Cl
ATOM     17  C   UNL     1      -3.843  12.548  20.726  0.00  0.00    +0.000 A 
ATOM     18  N   UNL     1      -2.779  12.214  19.770  0.00  0.00    +0.000 N 
ENDROOT
BRANCH  18  19
ATOM     19  C   UNL     1      -1.407  12.703  20.157  0.00  0.00    +0.000 C 
BRANCH  19  20
ATOM     20  C   UNL     1      -0.769  13.927  19.492  0.00  0.00    +0.000 C 
BRANCH  20  21
ATOM     21  C   UNL     1       0.758  13.990  19.760  0.00  0.00    +0.000 C 
BRANCH  21  22
ATOM     22  N   UNL     1       1.442  15.182  19.221  0.00  0.00    +0.000 NA
ATOM     23  C   UNL     1       2.319  15.852  20.190  0.00  0.00    +0.000 C 
ATOM     24  C   UNL     1       1.549  17.072  20.663  0.00  0.00    +0.000 C 
ATOM     25  C   UNL     1       0.808  17.501  19.418  0.00  0.00    +0.000 C 
ATOM     26  C   UNL     1       0.515  16.197  18.686  0.00  0.00    +0.000 C 
ENDBRANCH  21  22
ENDBRANCH  20  21
ENDBRANCH  19  20
ENDBRANCH  18  19
TORSDOF 4
ENDMDL
MODEL 8
REMARK VINA RESULT:      -5.9      7.805      9.819
REMARK  Name = 
REMARK  4 active torsions:
REMARK  status: ('A' for Active; 'I' for Inactive)
REMARK    1  A    between atoms: N_18  and  C_19
REMARK    2  A    between atoms: C_19  and  C_20
REMARK    3  A    between atoms: C_20  and  C_21
REMARK    4  A    between atoms: C_21  and  N_22
REMARK                            x       y       z     vdW  Elec       q    Type
REMARK                         _______ _______ _______ _____ _____    ______ ____
ROOT
ATOM      1 CL   UNL     1      -4.038  10.124  14.333  0.00  0.00    +0.000 Cl
ATOM      2  C   UNL     1      -3.559  10.683  15.886  0.00  0.00    +0.000 A 
ATOM      3  C   UNL     1      -2.251  10.586  16.309  0.00  0.00    +0.000 A 
ATOM      4  C   UNL     1      -1.909  10.940  17.636  0.00  0.00    +0.000 A 
ATOM      5 CL   UNL     1      -0.486  10.103  18.209  0.00  0.00    +0.000 Cl
ATOM      6  C   UNL     1      -2.792  11.636  18.507  0.00  0.00    +0.000 A 
ATOM      7  C   UNL     1      -4.130  11.613  18.050  0.00  0.00    +0.000 A 
ATOM      8  C   UNL     1      -4.506  11.125  16.778  0.00  0.00    +0.000 A 
ATOM      9  S   UNL     1      -5.531  12.093  18.994  0.00  0.00    +0.000 S 
ATOM     10  C   UNL     1      -4.814  12.599  20.519  0.00  0.00    +0.000 A 
ATOM     11  C   UNL     1      -5.793  12.950  21.457  0.00  0.00    +0.000 A 
ATOM     12  C   UNL     1      -5.445  13.476  22.681  0.00  0.00    +0.000 A 
ATOM     13 CL   UNL     1      -6.666  13.943  23.798  0.00  0.00    +0.000 Cl
ATOM     14  C   UNL     1      -4.113  13.611  23.000  0.00  0.00    +0.000 A 
ATOM     15  C   UNL     1      -3.110  13.187  22.104  0.00  0.00    +0.000 A 
ATOM     16 CL   UNL     1      -1.542  13.269  22.865  0.00  0.00    +0.000 Cl
ATOM     17  C   UNL     1      -3.412  12.676  20.787  0.00  0.00    +0.000 A 
ATOM     18  N   UNL     1      -2.448  12.288  19.749  0.00  0.00    +0.000 N 
ENDROOT
BRANCH  18  19
ATOM     19  C   UNL     1      -1.035  12.750  19.995  0.00  0.00    +0.000 C 
BRANCH  19  20
ATOM     20  C   UNL     1      -0.456  13.983  19.295  0.00  0.00    +0.000 C 
BRANCH  20  21
ATOM     21  C   UNL     1       0.280  14.913  20.295  0.00  0.00    +0.000 C 
BRANCH  21  22
ATOM     22  N   UNL     1      -0.295  16.265  20.437  0.00  0.00    +0.000 NA
ATOM     23  C   UNL     1       0.087  16.946  21.681  0.00  0.00    +0.000 C 
ATOM     24  C   UNL     1      -1.122  16.834  22.594  0.00  0.00    +0.000 C 
ATOM     25  C   UNL     1      -2.279  16.943  21.629  0.00  0.00    +0.000 C 
ATOM     26  C   UNL     1      -1.767  16.287  20.352  0.00  0.00    +0.000 C 
ENDBRANCH  21  22
ENDBRANCH  20  21
ENDBRANCH  19  20
ENDBRANCH  18  19
TORSDOF 4
ENDMDL
MODEL 9
REMARK VINA RESULT:      -5.9      5.553      8.698
REMARK  Name = 
REMARK  4 active torsions:
REMARK  status: ('A' for Active; 'I' for Inactive)
REMARK    1  A    between atoms: N_18  and  C_19
REMARK    2  A    between atoms: C_19  and  C_20
REMARK    3  A    between atoms: C_20  and  C_21
REMARK    4  A    between atoms: C_21  and  N_22
REMARK                            x       y       z     vdW  Elec       q    Type
REMARK                         _______ _______ _______ _____ _____    ______ ____
ROOT
ATOM      1 CL   UNL     1       2.410   8.541  17.759  0.00  0.00    +0.000 Cl
ATOM      2  C   UNL     1       1.157   9.425  18.535  0.00  0.00    +0.000 A 
ATOM      3  C   UNL     1       1.226   9.735  19.875  0.00  0.00    +0.000 A 
ATOM      4  C   UNL     1       0.126  10.355  20.516  0.00  0.00    +0.000 A 
ATOM      5 CL   UNL     1       0.063  10.011  22.228  0.00  0.00    +0.000 Cl
ATOM      6  C   UNL     1      -0.971  10.916  19.805  0.00  0.00    +0.000 A 
ATOM      7  C   UNL     1      -1.024  10.479  18.461  0.00  0.00    +0.000 A 
ATOM      8  C   UNL     1       0.006   9.729  17.849  0.00  0.00    +0.000 A 
ATOM      9  S   UNL     1      -2.385  10.708  17.374  0.00  0.00    +0.000 S 
ATOM     10  C   UNL     1      -3.528  11.601  18.371  0.00  0.00    +0.000 A 
ATOM     11  C   UNL     1      -4.738  11.816  17.698  0.00  0.00    +0.000 A 
ATOM     12  C   UNL     1      -5.732  12.588  18.258  0.00  0.00    +0.000 A 
ATOM     13 CL   UNL     1      -7.189  12.877  17.394  0.00  0.00    +0.000 Cl
ATOM     14  C   UNL     1      -5.547  13.111  19.517  0.00  0.00    +0.000 A 
ATOM     15  C   UNL     1      -4.372  12.836  20.247  0.00  0.00    +0.000 A 
ATOM     16 CL   UNL     1      -4.517  13.436  21.880  0.00  0.00    +0.000 Cl
ATOM     17  C   UNL     1      -3.273  12.079  19.693  0.00  0.00    +0.000 A 
ATOM     18  N   UNL     1      -1.978  11.808  20.330  0.00  0.00    +0.000 N 
ENDROOT
BRANCH  18  19
ATOM     19  C   UNL     1      -1.682  12.654  21.542  0.00  0.00    +0.000 C 
BRANCH  19  20
ATOM     20  C   UNL     1      -1.078  14.057  21.418  0.00  0.00    +0.000 C 
BRANCH  20  21
ATOM     21  C   UNL     1       0.443  13.998  21.119  0.00  0.00    +0.000 C 
BRANCH  21  22
ATOM     22  N   UNL     1       0.849  14.544  19.809  0.00  0.00    +0.000 NA
ATOM     23  C   UNL     1       1.681  15.751  19.900  0.00  0.00    +0.000 C 
ATOM     24  C   UNL     1       0.753  16.910  19.583  0.00  0.00    +0.000 C 
ATOM     25  C   UNL     1      -0.168  16.324  18.539  0.00  0.00    +0.000 C 
ATOM     26  C   UNL     1      -0.291  14.856  18.927  0.00  0.00    +0.000 C 
ENDBRANCH  21  22
ENDBRANCH  20  21
ENDBRANCH  19  20
ENDBRANCH  18  19
TORSDOF 4
ENDMDL
