MODEL 1
REMARK VINA RESULT:      -8.4      0.000      0.000
REMARK  Name = 
REMARK  4 active torsions:
REMARK  status: ('A' for Active; 'I' for Inactive)
REMARK    1  A    between atoms: C_4  and  C_5
REMARK    2  A    between atoms: C_9  and  O_10
REMARK    3  A    between atoms: C_16  and  C_17
REMARK    4  A    between atoms: C_21  and  O_22
REMARK                            x       y       z     vdW  Elec       q    Type
REMARK                         _______ _______ _______ _____ _____    ______ ____
ROOT
ATOM      1  O   UNL     1       1.655   7.583  21.421  0.00  0.00    +0.000 OA
ATOM      2  C   UNL     1       1.800   7.611  20.197  0.00  0.00    +0.000 C 
ATOM      3  C   UNL     1       2.322   6.421  19.443  0.00  0.00    +0.000 C 
ATOM      4  C   UNL     1       2.240   5.227  20.067  0.00  0.00    +0.000 C 
ATOM      5  C   UNL     1       2.875   6.614  18.057  0.00  0.00    +0.000 C 
ATOM      6  C   UNL     1       3.156   8.070  17.724  0.00  0.00    +0.000 C 
ATOM      7  C   UNL     1       1.904   8.895  17.957  0.00  0.00    +0.000 C 
ATOM      8  C   UNL     1       1.457   8.830  19.390  0.00  0.00    +0.000 C 
ATOM      9  C   UNL     1       0.769   9.807  20.013  0.00  0.00    +0.000 C 
ENDROOT
BRANCH   4  10
ATOM     10  C   UNL     1       2.677   3.957  19.476  0.00  0.00    +0.000 A 
ATOM     11  C   UNL     1       1.974   3.398  18.401  0.00  0.00    +0.000 A 
ATOM     12  C   UNL     1       2.345   2.155  17.881  0.00  0.00    +0.000 A 
ATOM     13  C   UNL     1       3.437   1.473  18.416  0.00  0.00    +0.000 A 
ATOM     14  C   UNL     1       4.153   2.046  19.464  0.00  0.00    +0.000 A 
ATOM     15  C   UNL     1       3.781   3.278  19.999  0.00  0.00    +0.000 A 
BRANCH  14  16
ATOM     16  O   UNL     1       5.232   1.414  20.008  0.00  0.00    +0.000 OA
ATOM     17  H   UNL     1       5.001   1.125  20.907  0.00  0.00    +0.000 HD
ENDBRANCH  14  16
ENDBRANCH   4  10
BRANCH   9  18
ATOM     18  C   UNL     1       0.289  11.023  19.345  0.00  0.00    +0.000 A 
ATOM     19  C   UNL     1       1.045  12.204  19.403  0.00  0.00    +0.000 A 
ATOM     20  C   UNL     1       0.566  13.381  18.821  0.00  0.00    +0.000 A 
ATOM     21  C   UNL     1      -0.666  13.384  18.168  0.00  0.00    +0.000 A 
ATOM     22  C   UNL     1      -1.403  12.206  18.097  0.00  0.00    +0.000 A 
ATOM     23  C   UNL     1      -0.938  11.029  18.677  0.00  0.00    +0.000 A 
BRANCH  22  24
ATOM     24  O   UNL     1      -2.611  12.168  17.464  0.00  0.00    +0.000 OA
ATOM     25  H   UNL     1      -2.933  13.078  17.358  0.00  0.00    +0.000 HD
ENDBRANCH  22  24
ENDBRANCH   9  18
TORSDOF 4
ENDMDL
MODEL 2
REMARK VINA RESULT:      -8.1      1.027      1.437
REMARK  Name = 
REMARK  4 active torsions:
REMARK  status: ('A' for Active; 'I' for Inactive)
REMARK    1  A    between atoms: C_4  and  C_5
REMARK    2  A    between atoms: C_9  and  O_10
REMARK    3  A    between atoms: C_16  and  C_17
REMARK    4  A    between atoms: C_21  and  O_22
REMARK                            x       y       z     vdW  Elec       q    Type
REMARK                         _______ _______ _______ _____ _____    ______ ____
ROOT
ATOM      1  O   UNL     1       1.612   7.661  21.493  0.00  0.00    +0.000 OA
ATOM      2  C   UNL     1       1.748   7.699  20.268  0.00  0.00    +0.000 C 
ATOM      3  C   UNL     1       2.249   6.510  19.499  0.00  0.00    +0.000 C 
ATOM      4  C   UNL     1       2.155   5.311  20.112  0.00  0.00    +0.000 C 
ATOM      5  C   UNL     1       2.794   6.708  18.111  0.00  0.00    +0.000 C 
ATOM      6  C   UNL     1       3.092   8.164  17.789  0.00  0.00    +0.000 C 
ATOM      7  C   UNL     1       1.853   9.003  18.040  0.00  0.00    +0.000 C 
ATOM      8  C   UNL     1       1.415   8.930  19.476  0.00  0.00    +0.000 C 
ATOM      9  C   UNL     1       0.745   9.911  20.112  0.00  0.00    +0.000 C 
ENDROOT
BRANCH   4  10
ATOM     10  C   UNL     1       2.571   4.041  19.506  0.00  0.00    +0.000 A 
ATOM     11  C   UNL     1       1.816   3.468  18.475  0.00  0.00    +0.000 A 
ATOM     12  C   UNL     1       2.169   2.225  17.943  0.00  0.00    +0.000 A 
ATOM     13  C   UNL     1       3.295   1.557  18.422  0.00  0.00    +0.000 A 
ATOM     14  C   UNL     1       4.062   2.143  19.426  0.00  0.00    +0.000 A 
ATOM     15  C   UNL     1       3.709   3.376  19.972  0.00  0.00    +0.000 A 
BRANCH  14  16
ATOM     16  O   UNL     1       5.175   1.524  19.913  0.00  0.00    +0.000 OA
ATOM     17  H   UNL     1       5.959   2.011  19.608  0.00  0.00    +0.000 HD
ENDBRANCH  14  16
ENDBRANCH   4  10
BRANCH   9  18
ATOM     18  C   UNL     1       0.277  11.139  19.460  0.00  0.00    +0.000 A 
ATOM     19  C   UNL     1      -0.963  11.161  18.804  0.00  0.00    +0.000 A 
ATOM     20  C   UNL     1      -1.388  12.309  18.129  0.00  0.00    +0.000 A 
ATOM     21  C   UNL     1      -0.581  13.446  18.113  0.00  0.00    +0.000 A 
ATOM     22  C   UNL     1       0.640  13.425  18.780  0.00  0.00    +0.000 A 
ATOM     23  C   UNL     1       1.075  12.286  19.452  0.00  0.00    +0.000 A 
BRANCH  22  24
ATOM     24  O   UNL     1       1.456  14.518  18.789  0.00  0.00    +0.000 OA
ATOM     25  H   UNL     1       1.981  14.505  19.606  0.00  0.00    +0.000 HD
ENDBRANCH  22  24
ENDBRANCH   9  18
TORSDOF 4
ENDMDL
MODEL 3
REMARK VINA RESULT:      -8.0      2.860      8.268
REMARK  Name = 
REMARK  4 active torsions:
REMARK  status: ('A' for Active; 'I' for Inactive)
REMARK    1  A    between atoms: C_4  and  C_5
REMARK    2  A    between atoms: C_9  and  O_10
REMARK    3  A    between atoms: C_16  and  C_17
REMARK    4  A    between atoms: C_21  and  O_22
REMARK                            x       y       z     vdW  Elec       q    Type
REMARK                         _______ _______ _______ _____ _____    ______ ____
ROOT
ATOM      1  O   UNL     1       1.882   5.772  20.751  0.00  0.00    +0.000 OA
ATOM      2  C   UNL     1       2.161   6.714  20.007  0.00  0.00    +0.000 C 
ATOM      3  C   UNL     1       1.553   8.074  20.202  0.00  0.00    +0.000 C 
ATOM      4  C   UNL     1       1.030   8.332  21.419  0.00  0.00    +0.000 C 
ATOM      5  C   UNL     1       1.576   9.060  19.066  0.00  0.00    +0.000 C 
ATOM      6  C   UNL     1       1.915   8.422  17.729  0.00  0.00    +0.000 C 
ATOM      7  C   UNL     1       3.220   7.657  17.846  0.00  0.00    +0.000 C 
ATOM      8  C   UNL     1       3.129   6.560  18.869  0.00  0.00    +0.000 C 
ATOM      9  C   UNL     1       3.858   5.427  18.829  0.00  0.00    +0.000 C 
ENDROOT
BRANCH   4  10
ATOM     10  C   UNL     1       0.417   9.610  21.798  0.00  0.00    +0.000 A 
ATOM     11  C   UNL     1      -0.572   9.654  22.789  0.00  0.00    +0.000 A 
ATOM     12  C   UNL     1      -1.208  10.857  23.104  0.00  0.00    +0.000 A 
ATOM     13  C   UNL     1      -0.843  12.031  22.446  0.00  0.00    +0.000 A 
ATOM     14  C   UNL     1       0.162  11.990  21.483  0.00  0.00    +0.000 A 
ATOM     15  C   UNL     1       0.792  10.792  21.153  0.00  0.00    +0.000 A 
BRANCH  14  16
ATOM     16  O   UNL     1       0.553  13.119  20.825  0.00  0.00    +0.000 OA
ATOM     17  H   UNL     1       1.475  13.007  20.538  0.00  0.00    +0.000 HD
ENDBRANCH  14  16
ENDBRANCH   4  10
BRANCH   9  18
ATOM     18  C   UNL     1       4.900   5.160  17.830  0.00  0.00    +0.000 A 
ATOM     19  C   UNL     1       4.609   5.265  16.462  0.00  0.00    +0.000 A 
ATOM     20  C   UNL     1       5.579   4.953  15.505  0.00  0.00    +0.000 A 
ATOM     21  C   UNL     1       6.849   4.544  15.909  0.00  0.00    +0.000 A 
ATOM     22  C   UNL     1       7.139   4.459  17.267  0.00  0.00    +0.000 A 
ATOM     23  C   UNL     1       6.178   4.762  18.229  0.00  0.00    +0.000 A 
BRANCH  22  24
ATOM     24  O   UNL     1       8.370   4.065  17.702  0.00  0.00    +0.000 OA
ATOM     25  H   UNL     1       8.350   3.108  17.863  0.00  0.00    +0.000 HD
ENDBRANCH  22  24
ENDBRANCH   9  18
TORSDOF 4
ENDMDL
MODEL 4
REMARK VINA RESULT:      -7.9      1.483      8.781
REMARK  Name = 
REMARK  4 active torsions:
REMARK  status: ('A' for Active; 'I' for Inactive)
REMARK    1  A    between atoms: C_4  and  C_5
REMARK    2  A    between atoms: C_9  and  O_10
REMARK    3  A    between atoms: C_16  and  C_17
REMARK    4  A    between atoms: C_21  and  O_22
REMARK                            x       y       z     vdW  Elec       q    Type
REMARK                         _______ _______ _______ _____ _____    ______ ____
ROOT
ATOM      1  O   UNL     1       2.766   8.794  17.324  0.00  0.00    +0.000 OA
ATOM      2  C   UNL     1       2.156   8.385  18.314  0.00  0.00    +0.000 C 
ATOM      3  C   UNL     1       1.260   9.289  19.112  0.00  0.00    +0.000 C 
ATOM      4  C   UNL     1       0.835  10.413  18.497  0.00  0.00    +0.000 C 
ATOM      5  C   UNL     1       0.876   8.896  20.512  0.00  0.00    +0.000 C 
ATOM      6  C   UNL     1       1.737   7.777  21.075  0.00  0.00    +0.000 C 
ATOM      7  C   UNL     1       1.718   6.594  20.125  0.00  0.00    +0.000 C 
ATOM      8  C   UNL     1       2.265   6.960  18.774  0.00  0.00    +0.000 C 
ATOM      9  C   UNL     1       2.864   6.087  17.940  0.00  0.00    +0.000 C 
ENDROOT
BRANCH   4  10
ATOM     10  C   UNL     1      -0.061  11.400  19.111  0.00  0.00    +0.000 A 
ATOM     11  C   UNL     1       0.435  12.324  20.040  0.00  0.00    +0.000 A 
ATOM     12  C   UNL     1      -0.427  13.218  20.680  0.00  0.00    +0.000 A 
ATOM     13  C   UNL     1      -1.788  13.212  20.377  0.00  0.00    +0.000 A 
ATOM     14  C   UNL     1      -2.273  12.313  19.430  0.00  0.00    +0.000 A 
ATOM     15  C   UNL     1      -1.423  11.408  18.798  0.00  0.00    +0.000 A 
BRANCH  14  16
ATOM     16  O   UNL     1      -3.596  12.283  19.102  0.00  0.00    +0.000 OA
ATOM     17  H   UNL     1      -3.693  11.828  18.248  0.00  0.00    +0.000 HD
ENDBRANCH  14  16
ENDBRANCH   4  10
BRANCH   9  18
ATOM     18  C   UNL     1       2.980   4.648  18.205  0.00  0.00    +0.000 A 
ATOM     19  C   UNL     1       1.976   3.769  17.772  0.00  0.00    +0.000 A 
ATOM     20  C   UNL     1       2.049   2.406  18.074  0.00  0.00    +0.000 A 
ATOM     21  C   UNL     1       3.131   1.911  18.802  0.00  0.00    +0.000 A 
ATOM     22  C   UNL     1       4.133   2.784  19.214  0.00  0.00    +0.000 A 
ATOM     23  C   UNL     1       4.067   4.145  18.923  0.00  0.00    +0.000 A 
BRANCH  22  24
ATOM     24  O   UNL     1       5.208   2.338  19.926  0.00  0.00    +0.000 OA
ATOM     25  H   UNL     1       5.369   2.954  20.659  0.00  0.00    +0.000 HD
ENDBRANCH  22  24
ENDBRANCH   9  18
TORSDOF 4
ENDMDL
MODEL 5
REMARK VINA RESULT:      -7.9      5.356      9.148
REMARK  Name = 
REMARK  4 active torsions:
REMARK  status: ('A' for Active; 'I' for Inactive)
REMARK    1  A    between atoms: C_4  and  C_5
REMARK    2  A    between atoms: C_9  and  O_10
REMARK    3  A    between atoms: C_16  and  C_17
REMARK    4  A    between atoms: C_21  and  O_22
REMARK                            x       y       z     vdW  Elec       q    Type
REMARK                         _______ _______ _______ _____ _____    ______ ____
ROOT
ATOM      1  O   UNL     1       6.027   7.523  16.150  0.00  0.00    +0.000 OA
ATOM      2  C   UNL     1       6.413   7.119  17.249  0.00  0.00    +0.000 C 
ATOM      3  C   UNL     1       7.535   7.797  17.983  0.00  0.00    +0.000 C 
ATOM      4  C   UNL     1       7.823   9.063  17.611  0.00  0.00    +0.000 C 
ATOM      5  C   UNL     1       8.247   7.058  19.083  0.00  0.00    +0.000 C 
ATOM      6  C   UNL     1       7.962   5.565  19.080  0.00  0.00    +0.000 C 
ATOM      7  C   UNL     1       6.462   5.334  19.117  0.00  0.00    +0.000 C 
ATOM      8  C   UNL     1       5.780   5.935  17.921  0.00  0.00    +0.000 C 
ATOM      9  C   UNL     1       4.629   5.471  17.396  0.00  0.00    +0.000 C 
ENDROOT
BRANCH   4  10
ATOM     10  C   UNL     1       8.867   9.886  18.229  0.00  0.00    +0.000 A 
ATOM     11  C   UNL     1       8.968   9.970  19.624  0.00  0.00    +0.000 A 
ATOM     12  C   UNL     1       9.916  10.808  20.217  0.00  0.00    +0.000 A 
ATOM     13  C   UNL     1      10.787  11.549  19.420  0.00  0.00    +0.000 A 
ATOM     14  C   UNL     1      10.706  11.439  18.034  0.00  0.00    +0.000 A 
ATOM     15  C   UNL     1       9.753  10.618  17.433  0.00  0.00    +0.000 A 
BRANCH  14  16
ATOM     16  O   UNL     1      11.546  12.141  17.221  0.00  0.00    +0.000 OA
ATOM     17  H   UNL     1      11.474  13.085  17.442  0.00  0.00    +0.000 HD
ENDBRANCH  14  16
ENDBRANCH   4  10
BRANCH   9  18
ATOM     18  C   UNL     1       3.846   4.375  17.979  0.00  0.00    +0.000 A 
ATOM     19  C   UNL     1       2.700   4.653  18.739  0.00  0.00    +0.000 A 
ATOM     20  C   UNL     1       1.985   3.618  19.348  0.00  0.00    +0.000 A 
ATOM     21  C   UNL     1       2.404   2.297  19.193  0.00  0.00    +0.000 A 
ATOM     22  C   UNL     1       3.530   2.024  18.423  0.00  0.00    +0.000 A 
ATOM     23  C   UNL     1       4.253   3.048  17.816  0.00  0.00    +0.000 A 
BRANCH  22  24
ATOM     24  O   UNL     1       3.970   0.745  18.246  0.00  0.00    +0.000 OA
ATOM     25  H   UNL     1       4.516   0.498  19.010  0.00  0.00    +0.000 HD
ENDBRANCH  22  24
ENDBRANCH   9  18
TORSDOF 4
ENDMDL
MODEL 6
REMARK VINA RESULT:      -7.9      3.044      4.232
REMARK  Name = 
REMARK  4 active torsions:
REMARK  status: ('A' for Active; 'I' for Inactive)
REMARK    1  A    between atoms: C_4  and  C_5
REMARK    2  A    between atoms: C_9  and  O_10
REMARK    3  A    between atoms: C_16  and  C_17
REMARK    4  A    between atoms: C_21  and  O_22
REMARK                            x       y       z     vdW  Elec       q    Type
REMARK                         _______ _______ _______ _____ _____    ______ ____
ROOT
ATOM      1  O   UNL     1       2.086   8.934  17.123  0.00  0.00    +0.000 OA
ATOM      2  C   UNL     1       2.300   8.272  18.141  0.00  0.00    +0.000 C 
ATOM      3  C   UNL     1       3.312   7.162  18.155  0.00  0.00    +0.000 C 
ATOM      4  C   UNL     1       4.243   7.182  17.177  0.00  0.00    +0.000 C 
ATOM      5  C   UNL     1       3.253   6.126  19.243  0.00  0.00    +0.000 C 
ATOM      6  C   UNL     1       1.940   6.139  20.009  0.00  0.00    +0.000 C 
ATOM      7  C   UNL     1       1.675   7.537  20.538  0.00  0.00    +0.000 C 
ATOM      8  C   UNL     1       1.568   8.540  19.424  0.00  0.00    +0.000 C 
ATOM      9  C   UNL     1       0.842   9.673  19.495  0.00  0.00    +0.000 C 
ENDROOT
BRANCH   4  10
ATOM     10  C   UNL     1       5.321   6.195  17.046  0.00  0.00    +0.000 A 
ATOM     11  C   UNL     1       6.417   6.225  17.919  0.00  0.00    +0.000 A 
ATOM     12  C   UNL     1       7.479   5.332  17.754  0.00  0.00    +0.000 A 
ATOM     13  C   UNL     1       7.442   4.387  16.730  0.00  0.00    +0.000 A 
ATOM     14  C   UNL     1       6.337   4.339  15.884  0.00  0.00    +0.000 A 
ATOM     15  C   UNL     1       5.280   5.235  16.032  0.00  0.00    +0.000 A 
BRANCH  14  16
ATOM     16  O   UNL     1       6.261   3.422  14.877  0.00  0.00    +0.000 OA
ATOM     17  H   UNL     1       5.821   3.835  14.115  0.00  0.00    +0.000 HD
ENDBRANCH  14  16
ENDBRANCH   4  10
BRANCH   9  18
ATOM     18  C   UNL     1       0.135  10.118  20.702  0.00  0.00    +0.000 A 
ATOM     19  C   UNL     1      -0.773  11.186  20.633  0.00  0.00    +0.000 A 
ATOM     20  C   UNL     1      -1.405  11.654  21.789  0.00  0.00    +0.000 A 
ATOM     21  C   UNL     1      -1.142  11.051  23.019  0.00  0.00    +0.000 A 
ATOM     22  C   UNL     1      -0.255   9.981  23.079  0.00  0.00    +0.000 A 
ATOM     23  C   UNL     1       0.384   9.509  21.934  0.00  0.00    +0.000 A 
BRANCH  22  24
ATOM     24  O   UNL     1       0.026   9.363  24.262  0.00  0.00    +0.000 OA
ATOM     25  H   UNL     1      -0.546   8.583  24.347  0.00  0.00    +0.000 HD
ENDBRANCH  22  24
ENDBRANCH   9  18
TORSDOF 4
ENDMDL
MODEL 7
REMARK VINA RESULT:      -7.8      1.697      8.739
REMARK  Name = 
REMARK  4 active torsions:
REMARK  status: ('A' for Active; 'I' for Inactive)
REMARK    1  A    between atoms: C_4  and  C_5
REMARK    2  A    between atoms: C_9  and  O_10
REMARK    3  A    between atoms: C_16  and  C_17
REMARK    4  A    between atoms: C_21  and  O_22
REMARK                            x       y       z     vdW  Elec       q    Type
REMARK                         _______ _______ _______ _____ _____    ______ ____
ROOT
ATOM      1  O   UNL     1       2.965   8.589  17.242  0.00  0.00    +0.000 OA
ATOM      2  C   UNL     1       2.335   8.178  18.219  0.00  0.00    +0.000 C 
ATOM      3  C   UNL     1       1.423   9.081  18.999  0.00  0.00    +0.000 C 
ATOM      4  C   UNL     1       1.008  10.205  18.376  0.00  0.00    +0.000 C 
ATOM      5  C   UNL     1       1.010   8.686  20.391  0.00  0.00    +0.000 C 
ATOM      6  C   UNL     1       1.861   7.568  20.971  0.00  0.00    +0.000 C 
ATOM      7  C   UNL     1       1.864   6.385  20.019  0.00  0.00    +0.000 C 
ATOM      8  C   UNL     1       2.437   6.753  18.680  0.00  0.00    +0.000 C 
ATOM      9  C   UNL     1       3.055   5.881  17.858  0.00  0.00    +0.000 C 
ENDROOT
BRANCH   4  10
ATOM     10  C   UNL     1       0.098  11.189  18.972  0.00  0.00    +0.000 A 
ATOM     11  C   UNL     1      -1.289  11.015  18.885  0.00  0.00    +0.000 A 
ATOM     12  C   UNL     1      -2.159  11.985  19.389  0.00  0.00    +0.000 A 
ATOM     13  C   UNL     1      -1.648  13.125  20.007  0.00  0.00    +0.000 A 
ATOM     14  C   UNL     1      -0.269  13.281  20.121  0.00  0.00    +0.000 A 
ATOM     15  C   UNL     1       0.606  12.326  19.607  0.00  0.00    +0.000 A 
BRANCH  14  16
ATOM     16  O   UNL     1       0.269  14.379  20.726  0.00  0.00    +0.000 OA
ATOM     17  H   UNL     1       0.098  14.320  21.681  0.00  0.00    +0.000 HD
ENDBRANCH  14  16
ENDBRANCH   4  10
BRANCH   9  18
ATOM     18  C   UNL     1       3.166   4.443  18.125  0.00  0.00    +0.000 A 
ATOM     19  C   UNL     1       2.245   3.547  17.562  0.00  0.00    +0.000 A 
ATOM     20  C   UNL     1       2.309   2.183  17.860  0.00  0.00    +0.000 A 
ATOM     21  C   UNL     1       3.301   1.703  18.716  0.00  0.00    +0.000 A 
ATOM     22  C   UNL     1       4.223   2.593  19.258  0.00  0.00    +0.000 A 
ATOM     23  C   UNL     1       4.165   3.954  18.971  0.00  0.00    +0.000 A 
BRANCH  22  24
ATOM     24  O   UNL     1       5.209   2.162  20.097  0.00  0.00    +0.000 OA
ATOM     25  H   UNL     1       5.417   1.239  19.880  0.00  0.00    +0.000 HD
ENDBRANCH  22  24
ENDBRANCH   9  18
TORSDOF 4
ENDMDL
MODEL 8
REMARK VINA RESULT:      -7.8      3.060      8.076
REMARK  Name = 
REMARK  4 active torsions:
REMARK  status: ('A' for Active; 'I' for Inactive)
REMARK    1  A    between atoms: C_4  and  C_5
REMARK    2  A    between atoms: C_9  and  O_10
REMARK    3  A    between atoms: C_16  and  C_17
REMARK    4  A    between atoms: C_21  and  O_22
REMARK                            x       y       z     vdW  Elec       q    Type
REMARK                         _______ _______ _______ _____ _____    ______ ____
ROOT
ATOM      1  O   UNL     1       1.867   5.486  20.616  0.00  0.00    +0.000 OA
ATOM      2  C   UNL     1       2.209   6.443  19.918  0.00  0.00    +0.000 C 
ATOM      3  C   UNL     1       1.636   7.815  20.134  0.00  0.00    +0.000 C 
ATOM      4  C   UNL     1       1.067   8.049  21.336  0.00  0.00    +0.000 C 
ATOM      5  C   UNL     1       1.741   8.838  19.036  0.00  0.00    +0.000 C 
ATOM      6  C   UNL     1       2.119   8.235  17.693  0.00  0.00    +0.000 C 
ATOM      7  C   UNL     1       3.393   7.424  17.841  0.00  0.00    +0.000 C 
ATOM      8  C   UNL     1       3.221   6.296  18.819  0.00  0.00    +0.000 C 
ATOM      9  C   UNL     1       3.916   5.142  18.771  0.00  0.00    +0.000 C 
ENDROOT
BRANCH   4  10
ATOM     10  C   UNL     1       0.478   9.333  21.733  0.00  0.00    +0.000 A 
ATOM     11  C   UNL     1      -0.436   9.395  22.793  0.00  0.00    +0.000 A 
ATOM     12  C   UNL     1      -1.052  10.603  23.128  0.00  0.00    +0.000 A 
ATOM     13  C   UNL     1      -0.741  11.764  22.421  0.00  0.00    +0.000 A 
ATOM     14  C   UNL     1       0.191  11.705  21.388  0.00  0.00    +0.000 A 
ATOM     15  C   UNL     1       0.799  10.502  21.037  0.00  0.00    +0.000 A 
BRANCH  14  16
ATOM     16  O   UNL     1       0.527  12.821  20.680  0.00  0.00    +0.000 OA
ATOM     17  H   UNL     1      -0.017  13.563  20.993  0.00  0.00    +0.000 HD
ENDBRANCH  14  16
ENDBRANCH   4  10
BRANCH   9  18
ATOM     18  C   UNL     1       4.993   4.874  17.811  0.00  0.00    +0.000 A 
ATOM     19  C   UNL     1       6.333   4.920  18.223  0.00  0.00    +0.000 A 
ATOM     20  C   UNL     1       7.365   4.726  17.301  0.00  0.00    +0.000 A 
ATOM     21  C   UNL     1       7.065   4.473  15.963  0.00  0.00    +0.000 A 
ATOM     22  C   UNL     1       5.734   4.410  15.562  0.00  0.00    +0.000 A 
ATOM     23  C   UNL     1       4.698   4.607  16.471  0.00  0.00    +0.000 A 
BRANCH  22  24
ATOM     24  O   UNL     1       5.400   4.163  14.262  0.00  0.00    +0.000 OA
ATOM     25  H   UNL     1       5.376   3.202  14.127  0.00  0.00    +0.000 HD
ENDBRANCH  22  24
ENDBRANCH   9  18
TORSDOF 4
ENDMDL
MODEL 9
REMARK VINA RESULT:      -7.7      2.017      8.798
REMARK  Name = 
REMARK  4 active torsions:
REMARK  status: ('A' for Active; 'I' for Inactive)
REMARK    1  A    between atoms: C_4  and  C_5
REMARK    2  A    between atoms: C_9  and  O_10
REMARK    3  A    between atoms: C_16  and  C_17
REMARK    4  A    between atoms: C_21  and  O_22
REMARK                            x       y       z     vdW  Elec       q    Type
REMARK                         _______ _______ _______ _____ _____    ______ ____
ROOT
ATOM      1  O   UNL     1       2.178   9.857  17.555  0.00  0.00    +0.000 OA
ATOM      2  C   UNL     1       1.682   9.264  18.516  0.00  0.00    +0.000 C 
ATOM      3  C   UNL     1       0.684   9.932  19.418  0.00  0.00    +0.000 C 
ATOM      4  C   UNL     1       0.057  11.021  18.923  0.00  0.00    +0.000 C 
ATOM      5  C   UNL     1       0.425   9.356  20.783  0.00  0.00    +0.000 C 
ATOM      6  C   UNL     1       1.479   8.349  21.216  0.00  0.00    +0.000 C 
ATOM      7  C   UNL     1       1.615   7.270  20.157  0.00  0.00    +0.000 C 
ATOM      8  C   UNL     1       2.041   7.841  18.835  0.00  0.00    +0.000 C 
ATOM      9  C   UNL     1       2.740   7.159  17.907  0.00  0.00    +0.000 C 
ENDROOT
BRANCH   4  10
ATOM     10  C   UNL     1      -0.963  11.785  19.650  0.00  0.00    +0.000 A 
ATOM     11  C   UNL     1      -0.652  12.393  20.873  0.00  0.00    +0.000 A 
ATOM     12  C   UNL     1      -1.638  13.063  21.603  0.00  0.00    +0.000 A 
ATOM     13  C   UNL     1      -2.936  13.150  21.103  0.00  0.00    +0.000 A 
ATOM     14  C   UNL     1      -3.235  12.572  19.872  0.00  0.00    +0.000 A 
ATOM     15  C   UNL     1      -2.262  11.890  19.144  0.00  0.00    +0.000 A 
BRANCH  14  16
ATOM     16  O   UNL     1      -4.491  12.644  19.346  0.00  0.00    +0.000 OA
ATOM     17  H   UNL     1      -4.516  13.373  18.703  0.00  0.00    +0.000 HD
ENDBRANCH  14  16
ENDBRANCH   4  10
BRANCH   9  18
ATOM     18  C   UNL     1       3.099   5.741  18.031  0.00  0.00    +0.000 A 
ATOM     19  C   UNL     1       2.141   4.747  17.780  0.00  0.00    +0.000 A 
ATOM     20  C   UNL     1       2.458   3.397  17.955  0.00  0.00    +0.000 A 
ATOM     21  C   UNL     1       3.738   3.031  18.372  0.00  0.00    +0.000 A 
ATOM     22  C   UNL     1       4.689   4.019  18.602  0.00  0.00    +0.000 A 
ATOM     23  C   UNL     1       4.383   5.368  18.436  0.00  0.00    +0.000 A 
BRANCH  22  24
ATOM     24  O   UNL     1       5.952   3.701  19.009  0.00  0.00    +0.000 OA
ATOM     25  H   UNL     1       6.371   3.159  18.320  0.00  0.00    +0.000 HD
ENDBRANCH  22  24
ENDBRANCH   9  18
TORSDOF 4
ENDMDL
