MODEL 1
REMARK VINA RESULT:      -9.1      0.000      0.000
REMARK  Name = 
REMARK  2 active torsions:
REMARK  status: ('A' for Active; 'I' for Inactive)
REMARK    1  A    between atoms: C_4  and  C_5
REMARK    2  A    between atoms: C_8  and  C_9
REMARK                            x       y       z     vdW  Elec       q    Type
REMARK                         _______ _______ _______ _____ _____    ______ ____
ROOT
ATOM      1  O   UNL     1       0.515  10.328  17.879  0.00  0.00    +0.000 OA
ATOM      2  C   UNL     1       1.095   9.439  18.495  0.00  0.00    +0.000 A 
ATOM      3  C   UNL     1       2.026   8.534  17.785  0.00  0.00    +0.000 A 
ATOM      4  C   UNL     1       2.665   7.569  18.471  0.00  0.00    +0.000 A 
ATOM      5  N   UNL     1       2.509   7.333  19.818  0.00  0.00    +0.000 NA
ATOM      6  C   UNL     1       1.686   8.117  20.444  0.00  0.00    +0.000 A 
ATOM      7  N   UNL     1       1.356   8.091  21.779  0.00  0.00    +0.000 N 
ATOM      8  C   UNL     1       0.485   9.154  22.024  0.00  0.00    +0.000 A 
ATOM      9  C   UNL     1      -0.121   9.551  23.194  0.00  0.00    +0.000 A 
ATOM     10  C   UNL     1      -0.993  10.645  23.131  0.00  0.00    +0.000 A 
ATOM     11  C   UNL     1      -1.246  11.306  21.911  0.00  0.00    +0.000 A 
ATOM     12  C   UNL     1      -0.632  10.891  20.725  0.00  0.00    +0.000 A 
ATOM     13  C   UNL     1       0.225   9.814  20.807  0.00  0.00    +0.000 A 
ATOM     14  N   UNL     1       0.991   9.155  19.826  0.00  0.00    +0.000 N 
ATOM     15  H   UNL     1       1.795   7.507  22.465  0.00  0.00    +0.000 HD
ENDROOT
BRANCH   4  16
ATOM     16  C   UNL     1       3.569   6.677  17.708  0.00  0.00    +0.000 A 
ATOM     17  C   UNL     1       4.558   7.203  16.867  0.00  0.00    +0.000 A 
ATOM     18  C   UNL     1       5.313   6.356  16.042  0.00  0.00    +0.000 A 
ATOM     19  C   UNL     1       5.096   4.971  16.043  0.00  0.00    +0.000 A 
ATOM     20  C   UNL     1       4.158   4.440  16.942  0.00  0.00    +0.000 A 
ATOM     21  C   UNL     1       3.399   5.287  17.762  0.00  0.00    +0.000 A 
BRANCH  19  22
ATOM     22  C   UNL     1       5.843   4.088  15.071  0.00  0.00    +0.000 C 
ATOM     23  F   UNL     1       7.121   4.511  14.852  0.00  0.00    +0.000 F 
ATOM     24  F   UNL     1       5.947   2.797  15.491  0.00  0.00    +0.000 F 
ATOM     25  F   UNL     1       5.260   4.037  13.842  0.00  0.00    +0.000 F 
ENDBRANCH  19  22
ENDBRANCH   4  16
TORSDOF 2
ENDMDL
MODEL 2
REMARK VINA RESULT:      -9.0      0.421      1.114
REMARK  Name = 
REMARK  2 active torsions:
REMARK  status: ('A' for Active; 'I' for Inactive)
REMARK    1  A    between atoms: C_4  and  C_5
REMARK    2  A    between atoms: C_8  and  C_9
REMARK                            x       y       z     vdW  Elec       q    Type
REMARK                         _______ _______ _______ _____ _____    ______ ____
ROOT
ATOM      1  O   UNL     1       0.526  10.509  17.963  0.00  0.00    +0.000 OA
ATOM      2  C   UNL     1       1.070   9.572  18.540  0.00  0.00    +0.000 A 
ATOM      3  C   UNL     1       1.967   8.664  17.792  0.00  0.00    +0.000 A 
ATOM      4  C   UNL     1       2.567   7.646  18.436  0.00  0.00    +0.000 A 
ATOM      5  N   UNL     1       2.400   7.359  19.771  0.00  0.00    +0.000 NA
ATOM      6  C   UNL     1       1.606   8.146  20.431  0.00  0.00    +0.000 A 
ATOM      7  N   UNL     1       1.274   8.076  21.763  0.00  0.00    +0.000 N 
ATOM      8  C   UNL     1       0.444   9.160  22.054  0.00  0.00    +0.000 A 
ATOM      9  C   UNL     1      -0.148   9.530  23.239  0.00  0.00    +0.000 A 
ATOM     10  C   UNL     1      -0.977  10.658  23.224  0.00  0.00    +0.000 A 
ATOM     11  C   UNL     1      -1.203  11.381  22.033  0.00  0.00    +0.000 A 
ATOM     12  C   UNL     1      -0.604  10.993  20.830  0.00  0.00    +0.000 A 
ATOM     13  C   UNL     1       0.211   9.881  20.866  0.00  0.00    +0.000 A 
ATOM     14  N   UNL     1       0.953   9.236  19.857  0.00  0.00    +0.000 N 
ATOM     15  H   UNL     1       1.688   7.446  22.423  0.00  0.00    +0.000 HD
ENDROOT
BRANCH   4  16
ATOM     16  C   UNL     1       3.437   6.754  17.635  0.00  0.00    +0.000 A 
ATOM     17  C   UNL     1       3.325   5.361  17.732  0.00  0.00    +0.000 A 
ATOM     18  C   UNL     1       4.245   4.527  17.080  0.00  0.00    +0.000 A 
ATOM     19  C   UNL     1       5.291   5.067  16.318  0.00  0.00    +0.000 A 
ATOM     20  C   UNL     1       5.355   6.461  16.160  0.00  0.00    +0.000 A 
ATOM     21  C   UNL     1       4.439   7.294  16.817  0.00  0.00    +0.000 A 
BRANCH  19  22
ATOM     22  C   UNL     1       6.334   4.157  15.713  0.00  0.00    +0.000 C 
ATOM     23  F   UNL     1       7.494   4.139  16.428  0.00  0.00    +0.000 F 
ATOM     24  F   UNL     1       5.929   2.860  15.629  0.00  0.00    +0.000 F 
ATOM     25  F   UNL     1       6.689   4.521  14.450  0.00  0.00    +0.000 F 
ENDBRANCH  19  22
ENDBRANCH   4  16
TORSDOF 2
ENDMDL
MODEL 3
REMARK VINA RESULT:      -8.5      5.636      8.808
REMARK  Name = 
REMARK  2 active torsions:
REMARK  status: ('A' for Active; 'I' for Inactive)
REMARK    1  A    between atoms: C_4  and  C_5
REMARK    2  A    between atoms: C_8  and  C_9
REMARK                            x       y       z     vdW  Elec       q    Type
REMARK                         _______ _______ _______ _____ _____    ______ ____
ROOT
ATOM      1  O   UNL     1       2.487   8.760  17.249  0.00  0.00    +0.000 OA
ATOM      2  C   UNL     1       2.136   8.446  18.382  0.00  0.00    +0.000 A 
ATOM      3  C   UNL     1       1.296   9.367  19.178  0.00  0.00    +0.000 A 
ATOM      4  C   UNL     1       0.908   9.010  20.416  0.00  0.00    +0.000 A 
ATOM      5  N   UNL     1       1.251   7.827  21.031  0.00  0.00    +0.000 NA
ATOM      6  C   UNL     1       1.997   7.019  20.342  0.00  0.00    +0.000 A 
ATOM      7  N   UNL     1       2.473   5.787  20.724  0.00  0.00    +0.000 N 
ATOM      8  C   UNL     1       3.176   5.247  19.646  0.00  0.00    +0.000 A 
ATOM      9  C   UNL     1       3.834   4.045  19.530  0.00  0.00    +0.000 A 
ATOM     10  C   UNL     1       4.499   3.785  18.325  0.00  0.00    +0.000 A 
ATOM     11  C   UNL     1       4.500   4.727  17.275  0.00  0.00    +0.000 A 
ATOM     12  C   UNL     1       3.835   5.951  17.404  0.00  0.00    +0.000 A 
ATOM     13  C   UNL     1       3.185   6.188  18.597  0.00  0.00    +0.000 A 
ATOM     14  N   UNL     1       2.435   7.292  19.047  0.00  0.00    +0.000 N 
ATOM     15  H   UNL     1       2.218   5.313  21.569  0.00  0.00    +0.000 HD
ENDROOT
BRANCH   4  16
ATOM     16  C   UNL     1       0.087   9.979  21.177  0.00  0.00    +0.000 A 
ATOM     17  C   UNL     1      -0.205   9.769  22.531  0.00  0.00    +0.000 A 
ATOM     18  C   UNL     1      -1.098  10.614  23.205  0.00  0.00    +0.000 A 
ATOM     19  C   UNL     1      -1.714  11.685  22.542  0.00  0.00    +0.000 A 
ATOM     20  C   UNL     1      -1.362  11.939  21.206  0.00  0.00    +0.000 A 
ATOM     21  C   UNL     1      -0.474  11.089  20.531  0.00  0.00    +0.000 A 
BRANCH  19  22
ATOM     22  C   UNL     1      -2.754  12.519  23.254  0.00  0.00    +0.000 C 
ATOM     23  F   UNL     1      -2.207  13.546  23.964  0.00  0.00    +0.000 F 
ATOM     24  F   UNL     1      -3.653  13.090  22.407  0.00  0.00    +0.000 F 
ATOM     25  F   UNL     1      -3.486  11.803  24.151  0.00  0.00    +0.000 F 
ENDBRANCH  19  22
ENDBRANCH   4  16
TORSDOF 2
ENDMDL
MODEL 4
REMARK VINA RESULT:      -8.4      1.420      2.353
REMARK  Name = 
REMARK  2 active torsions:
REMARK  status: ('A' for Active; 'I' for Inactive)
REMARK    1  A    between atoms: C_4  and  C_5
REMARK    2  A    between atoms: C_8  and  C_9
REMARK                            x       y       z     vdW  Elec       q    Type
REMARK                         _______ _______ _______ _____ _____    ______ ____
ROOT
ATOM      1  O   UNL     1       1.103   8.038  21.633  0.00  0.00    +0.000 OA
ATOM      2  C   UNL     1       1.401   8.301  20.472  0.00  0.00    +0.000 A 
ATOM      3  C   UNL     1       2.294   7.396  19.715  0.00  0.00    +0.000 A 
ATOM      4  C   UNL     1       2.608   7.687  18.439  0.00  0.00    +0.000 A 
ATOM      5  N   UNL     1       2.167   8.801  17.761  0.00  0.00    +0.000 NA
ATOM      6  C   UNL     1       1.392   9.604  18.423  0.00  0.00    +0.000 A 
ATOM      7  N   UNL     1       0.822  10.775  17.978  0.00  0.00    +0.000 N 
ATOM      8  C   UNL     1       0.016  11.272  19.003  0.00  0.00    +0.000 A 
ATOM      9  C   UNL     1      -0.759  12.409  19.047  0.00  0.00    +0.000 A 
ATOM     10  C   UNL     1      -1.438  12.682  20.241  0.00  0.00    +0.000 A 
ATOM     11  C   UNL     1      -1.320  11.829  21.359  0.00  0.00    +0.000 A 
ATOM     12  C   UNL     1      -0.523  10.680  21.308  0.00  0.00    +0.000 A 
ATOM     13  C   UNL     1       0.135  10.426  20.123  0.00  0.00    +0.000 A 
ATOM     14  N   UNL     1       0.997   9.380  19.741  0.00  0.00    +0.000 N 
ATOM     15  H   UNL     1       0.865  11.108  17.035  0.00  0.00    +0.000 HD
ENDROOT
BRANCH   4  16
ATOM     16  C   UNL     1       3.523   6.760  17.735  0.00  0.00    +0.000 A 
ATOM     17  C   UNL     1       4.570   7.244  16.942  0.00  0.00    +0.000 A 
ATOM     18  C   UNL     1       5.341   6.365  16.167  0.00  0.00    +0.000 A 
ATOM     19  C   UNL     1       5.083   4.987  16.173  0.00  0.00    +0.000 A 
ATOM     20  C   UNL     1       4.083   4.496  17.027  0.00  0.00    +0.000 A 
ATOM     21  C   UNL     1       3.308   5.376  17.796  0.00  0.00    +0.000 A 
BRANCH  19  22
ATOM     22  C   UNL     1       5.852   4.069  15.252  0.00  0.00    +0.000 C 
ATOM     23  F   UNL     1       5.340   4.043  13.988  0.00  0.00    +0.000 F 
ATOM     24  F   UNL     1       7.160   4.423  15.114  0.00  0.00    +0.000 F 
ATOM     25  F   UNL     1       5.855   2.774  15.671  0.00  0.00    +0.000 F 
ENDBRANCH  19  22
ENDBRANCH   4  16
TORSDOF 2
ENDMDL
MODEL 5
REMARK VINA RESULT:      -8.3      1.483      2.502
REMARK  Name = 
REMARK  2 active torsions:
REMARK  status: ('A' for Active; 'I' for Inactive)
REMARK    1  A    between atoms: C_4  and  C_5
REMARK    2  A    between atoms: C_8  and  C_9
REMARK                            x       y       z     vdW  Elec       q    Type
REMARK                         _______ _______ _______ _____ _____    ______ ____
ROOT
ATOM      1  O   UNL     1       1.216   8.071  21.611  0.00  0.00    +0.000 OA
ATOM      2  C   UNL     1       1.437   8.331  20.432  0.00  0.00    +0.000 A 
ATOM      3  C   UNL     1       2.311   7.447  19.630  0.00  0.00    +0.000 A 
ATOM      4  C   UNL     1       2.539   7.736  18.336  0.00  0.00    +0.000 A 
ATOM      5  N   UNL     1       2.023   8.828  17.677  0.00  0.00    +0.000 NA
ATOM      6  C   UNL     1       1.263   9.613  18.377  0.00  0.00    +0.000 A 
ATOM      7  N   UNL     1       0.631  10.761  17.958  0.00  0.00    +0.000 N 
ATOM      8  C   UNL     1      -0.128  11.243  19.025  0.00  0.00    +0.000 A 
ATOM      9  C   UNL     1      -0.935  12.355  19.106  0.00  0.00    +0.000 A 
ATOM     10  C   UNL     1      -1.549  12.619  20.337  0.00  0.00    +0.000 A 
ATOM     11  C   UNL     1      -1.338  11.781  21.452  0.00  0.00    +0.000 A 
ATOM     12  C   UNL     1      -0.509  10.658  21.363  0.00  0.00    +0.000 A 
ATOM     13  C   UNL     1       0.084  10.413  20.143  0.00  0.00    +0.000 A 
ATOM     14  N   UNL     1       0.955   9.390  19.718  0.00  0.00    +0.000 N 
ATOM     15  H   UNL     1       0.607  11.086  17.011  0.00  0.00    +0.000 HD
ENDROOT
BRANCH   4  16
ATOM     16  C   UNL     1       3.439   6.830  17.586  0.00  0.00    +0.000 A 
ATOM     17  C   UNL     1       3.396   5.444  17.784  0.00  0.00    +0.000 A 
ATOM     18  C   UNL     1       4.345   4.609  17.178  0.00  0.00    +0.000 A 
ATOM     19  C   UNL     1       5.353   5.141  16.360  0.00  0.00    +0.000 A 
ATOM     20  C   UNL     1       5.348   6.521  16.102  0.00  0.00    +0.000 A 
ATOM     21  C   UNL     1       4.402   7.356  16.714  0.00  0.00    +0.000 A 
BRANCH  19  22
ATOM     22  C   UNL     1       6.430   4.239  15.803  0.00  0.00    +0.000 C 
ATOM     23  F   UNL     1       7.486   4.095  16.654  0.00  0.00    +0.000 F 
ATOM     24  F   UNL     1       5.989   2.978  15.541  0.00  0.00    +0.000 F 
ATOM     25  F   UNL     1       6.960   4.701  14.637  0.00  0.00    +0.000 F 
ENDBRANCH  19  22
ENDBRANCH   4  16
TORSDOF 2
ENDMDL
MODEL 6
REMARK VINA RESULT:      -8.2      5.601      8.732
REMARK  Name = 
REMARK  2 active torsions:
REMARK  status: ('A' for Active; 'I' for Inactive)
REMARK    1  A    between atoms: C_4  and  C_5
REMARK    2  A    between atoms: C_8  and  C_9
REMARK                            x       y       z     vdW  Elec       q    Type
REMARK                         _______ _______ _______ _____ _____    ______ ____
ROOT
ATOM      1  O   UNL     1       2.569   8.851  17.114  0.00  0.00    +0.000 OA
ATOM      2  C   UNL     1       2.208   8.502  18.234  0.00  0.00    +0.000 A 
ATOM      3  C   UNL     1       1.279   9.353  19.010  0.00  0.00    +0.000 A 
ATOM      4  C   UNL     1       0.882   8.957  20.233  0.00  0.00    +0.000 A 
ATOM      5  N   UNL     1       1.293   7.798  20.851  0.00  0.00    +0.000 NA
ATOM      6  C   UNL     1       2.117   7.053  20.180  0.00  0.00    +0.000 A 
ATOM      7  N   UNL     1       2.672   5.857  20.570  0.00  0.00    +0.000 N 
ATOM      8  C   UNL     1       3.445   5.380  19.510  0.00  0.00    +0.000 A 
ATOM      9  C   UNL     1       4.194   4.230  19.407  0.00  0.00    +0.000 A 
ATOM     10  C   UNL     1       4.912   4.030  18.222  0.00  0.00    +0.000 A 
ATOM     11  C   UNL     1       4.874   4.978  17.178  0.00  0.00    +0.000 A 
ATOM     12  C   UNL     1       4.117   6.149  17.294  0.00  0.00    +0.000 A 
ATOM     13  C   UNL     1       3.415   6.327  18.467  0.00  0.00    +0.000 A 
ATOM     14  N   UNL     1       2.572   7.368  18.901  0.00  0.00    +0.000 N 
ATOM     15  H   UNL     1       2.428   5.359  21.404  0.00  0.00    +0.000 HD
ENDROOT
BRANCH   4  16
ATOM     16  C   UNL     1      -0.032   9.856  20.975  0.00  0.00    +0.000 A 
ATOM     17  C   UNL     1      -0.684  10.914  20.328  0.00  0.00    +0.000 A 
ATOM     18  C   UNL     1      -1.433  11.843  21.065  0.00  0.00    +0.000 A 
ATOM     19  C   UNL     1      -1.548  11.732  22.458  0.00  0.00    +0.000 A 
ATOM     20  C   UNL     1      -0.957  10.628  23.093  0.00  0.00    +0.000 A 
ATOM     21  C   UNL     1      -0.202   9.703  22.357  0.00  0.00    +0.000 A 
BRANCH  19  22
ATOM     22  C   UNL     1      -2.268  12.802  23.245  0.00  0.00    +0.000 C 
ATOM     23  F   UNL     1      -3.212  12.289  24.086  0.00  0.00    +0.000 F 
ATOM     24  F   UNL     1      -1.437  13.542  24.029  0.00  0.00    +0.000 F 
ATOM     25  F   UNL     1      -2.929  13.691  22.454  0.00  0.00    +0.000 F 
ENDBRANCH  19  22
ENDBRANCH   4  16
TORSDOF 2
ENDMDL
MODEL 7
REMARK VINA RESULT:      -8.1      5.519      8.847
REMARK  Name = 
REMARK  2 active torsions:
REMARK  status: ('A' for Active; 'I' for Inactive)
REMARK    1  A    between atoms: C_4  and  C_5
REMARK    2  A    between atoms: C_8  and  C_9
REMARK                            x       y       z     vdW  Elec       q    Type
REMARK                         _______ _______ _______ _____ _____    ______ ____
ROOT
ATOM      1  O   UNL     1       1.775   4.617  20.941  0.00  0.00    +0.000 OA
ATOM      2  C   UNL     1       1.870   5.738  20.451  0.00  0.00    +0.000 A 
ATOM      3  C   UNL     1       1.172   6.881  21.079  0.00  0.00    +0.000 A 
ATOM      4  C   UNL     1       1.290   8.108  20.539  0.00  0.00    +0.000 A 
ATOM      5  N   UNL     1       2.017   8.397  19.407  0.00  0.00    +0.000 NA
ATOM      6  C   UNL     1       2.623   7.396  18.845  0.00  0.00    +0.000 A 
ATOM      7  N   UNL     1       3.405   7.418  17.714  0.00  0.00    +0.000 N 
ATOM      8  C   UNL     1       3.903   6.130  17.514  0.00  0.00    +0.000 A 
ATOM      9  C   UNL     1       4.727   5.642  16.526  0.00  0.00    +0.000 A 
ATOM     10  C   UNL     1       5.031   4.275  16.555  0.00  0.00    +0.000 A 
ATOM     11  C   UNL     1       4.501   3.431  17.553  0.00  0.00    +0.000 A 
ATOM     12  C   UNL     1       3.656   3.933  18.548  0.00  0.00    +0.000 A 
ATOM     13  C   UNL     1       3.371   5.282  18.506  0.00  0.00    +0.000 A 
ATOM     14  N   UNL     1       2.575   6.093  19.337  0.00  0.00    +0.000 N 
ATOM     15  H   UNL     1       3.683   8.249  17.227  0.00  0.00    +0.000 HD
ENDROOT
BRANCH   4  16
ATOM     16  C   UNL     1       0.553   9.213  21.195  0.00  0.00    +0.000 A 
ATOM     17  C   UNL     1       0.202   9.141  22.549  0.00  0.00    +0.000 A 
ATOM     18  C   UNL     1      -0.617  10.124  23.124  0.00  0.00    +0.000 A 
ATOM     19  C   UNL     1      -1.097  11.197  22.359  0.00  0.00    +0.000 A 
ATOM     20  C   UNL     1      -0.681  11.307  21.023  0.00  0.00    +0.000 A 
ATOM     21  C   UNL     1       0.132  10.321  20.447  0.00  0.00    +0.000 A 
BRANCH  19  22
ATOM     22  C   UNL     1      -2.064  12.186  22.967  0.00  0.00    +0.000 C 
ATOM     23  F   UNL     1      -2.919  11.605  23.857  0.00  0.00    +0.000 F 
ATOM     24  F   UNL     1      -1.445  13.190  23.648  0.00  0.00    +0.000 F 
ATOM     25  F   UNL     1      -2.857  12.793  22.042  0.00  0.00    +0.000 F 
ENDBRANCH  19  22
ENDBRANCH   4  16
TORSDOF 2
ENDMDL
MODEL 8
REMARK VINA RESULT:      -8.1      2.210      3.475
REMARK  Name = 
REMARK  2 active torsions:
REMARK  status: ('A' for Active; 'I' for Inactive)
REMARK    1  A    between atoms: C_4  and  C_5
REMARK    2  A    between atoms: C_8  and  C_9
REMARK                            x       y       z     vdW  Elec       q    Type
REMARK                         _______ _______ _______ _____ _____    ______ ____
ROOT
ATOM      1  O   UNL     1       0.335   9.701  23.675  0.00  0.00    +0.000 OA
ATOM      2  C   UNL     1       0.337   9.700  22.448  0.00  0.00    +0.000 A 
ATOM      3  C   UNL     1       1.133   8.693  21.711  0.00  0.00    +0.000 A 
ATOM      4  C   UNL     1       1.122   8.694  20.366  0.00  0.00    +0.000 A 
ATOM      5  N   UNL     1       0.421   9.591  19.591  0.00  0.00    +0.000 NA
ATOM      6  C   UNL     1      -0.270  10.482  20.231  0.00  0.00    +0.000 A 
ATOM      7  N   UNL     1      -1.049  11.482  19.697  0.00  0.00    +0.000 N 
ATOM      8  C   UNL     1      -1.657  12.161  20.754  0.00  0.00    +0.000 A 
ATOM      9  C   UNL     1      -2.523  13.231  20.738  0.00  0.00    +0.000 A 
ATOM     10  C   UNL     1      -2.944  13.739  21.973  0.00  0.00    +0.000 A 
ATOM     11  C   UNL     1      -2.489  13.180  23.185  0.00  0.00    +0.000 A 
ATOM     12  C   UNL     1      -1.602  12.098  23.192  0.00  0.00    +0.000 A 
ATOM     13  C   UNL     1      -1.200  11.610  21.967  0.00  0.00    +0.000 A 
ATOM     14  N   UNL     1      -0.335  10.553  21.622  0.00  0.00    +0.000 N 
ATOM     15  H   UNL     1      -1.254  11.586  18.721  0.00  0.00    +0.000 HD
ENDROOT
BRANCH   4  16
ATOM     16  C   UNL     1       1.953   7.680  19.678  0.00  0.00    +0.000 A 
ATOM     17  C   UNL     1       2.518   7.941  18.423  0.00  0.00    +0.000 A 
ATOM     18  C   UNL     1       3.183   6.927  17.718  0.00  0.00    +0.000 A 
ATOM     19  C   UNL     1       3.299   5.636  18.254  0.00  0.00    +0.000 A 
ATOM     20  C   UNL     1       2.799   5.398  19.544  0.00  0.00    +0.000 A 
ATOM     21  C   UNL     1       2.129   6.410  20.246  0.00  0.00    +0.000 A 
BRANCH  19  22
ATOM     22  C   UNL     1       3.923   4.531  17.434  0.00  0.00    +0.000 C 
ATOM     23  F   UNL     1       4.659   5.004  16.388  0.00  0.00    +0.000 F 
ATOM     24  F   UNL     1       4.767   3.742  18.155  0.00  0.00    +0.000 F 
ATOM     25  F   UNL     1       3.003   3.692  16.883  0.00  0.00    +0.000 F 
ENDBRANCH  19  22
ENDBRANCH   4  16
TORSDOF 2
ENDMDL
MODEL 9
REMARK VINA RESULT:      -8.1      5.521      8.655
REMARK  Name = 
REMARK  2 active torsions:
REMARK  status: ('A' for Active; 'I' for Inactive)
REMARK    1  A    between atoms: C_4  and  C_5
REMARK    2  A    between atoms: C_8  and  C_9
REMARK                            x       y       z     vdW  Elec       q    Type
REMARK                         _______ _______ _______ _____ _____    ______ ____
ROOT
ATOM      1  O   UNL     1       3.087   7.694  17.511  0.00  0.00    +0.000 OA
ATOM      2  C   UNL     1       2.547   7.454  18.586  0.00  0.00    +0.000 A 
ATOM      3  C   UNL     1       1.838   8.531  19.313  0.00  0.00    +0.000 A 
ATOM      4  C   UNL     1       1.241   8.256  20.487  0.00  0.00    +0.000 A 
ATOM      5  N   UNL     1       1.246   7.023  21.097  0.00  0.00    +0.000 NA
ATOM      6  C   UNL     1       1.874   6.077  20.469  0.00  0.00    +0.000 A 
ATOM      7  N   UNL     1       2.026   4.767  20.862  0.00  0.00    +0.000 N 
ATOM      8  C   UNL     1       2.716   4.096  19.851  0.00  0.00    +0.000 A 
ATOM      9  C   UNL     1       3.108   2.779  19.770  0.00  0.00    +0.000 A 
ATOM     10  C   UNL     1       3.836   2.390  18.639  0.00  0.00    +0.000 A 
ATOM     11  C   UNL     1       4.163   3.318  17.628  0.00  0.00    +0.000 A 
ATOM     12  C   UNL     1       3.769   4.657  17.723  0.00  0.00    +0.000 A 
ATOM     13  C   UNL     1       3.050   5.020  18.842  0.00  0.00    +0.000 A 
ATOM     14  N   UNL     1       2.509   6.258  19.242  0.00  0.00    +0.000 N 
ATOM     15  H   UNL     1       1.577   4.354  21.657  0.00  0.00    +0.000 HD
ENDROOT
BRANCH   4  16
ATOM     16  C   UNL     1       0.565   9.375  21.184  0.00  0.00    +0.000 A 
ATOM     17  C   UNL     1       0.077   9.223  22.488  0.00  0.00    +0.000 A 
ATOM     18  C   UNL     1      -0.685  10.238  23.085  0.00  0.00    +0.000 A 
ATOM     19  C   UNL     1      -0.971  11.423  22.393  0.00  0.00    +0.000 A 
ATOM     20  C   UNL     1      -0.417  11.605  21.116  0.00  0.00    +0.000 A 
ATOM     21  C   UNL     1       0.339  10.587  20.517  0.00  0.00    +0.000 A 
BRANCH  19  22
ATOM     22  C   UNL     1      -1.882  12.458  23.012  0.00  0.00    +0.000 C 
ATOM     23  F   UNL     1      -1.211  13.340  23.807  0.00  0.00    +0.000 F 
ATOM     24  F   UNL     1      -2.537  13.215  22.088  0.00  0.00    +0.000 F 
ATOM     25  F   UNL     1      -2.847  11.913  23.803  0.00  0.00    +0.000 F 
ENDBRANCH  19  22
ENDBRANCH   4  16
TORSDOF 2
ENDMDL
