MODEL 1
REMARK VINA RESULT:      -8.2      0.000      0.000
REMARK  Name = 
REMARK  10 active torsions:
REMARK  status: ('A' for Active; 'I' for Inactive)
REMARK    1  A    between atoms: C_1  and  O_2
REMARK    2  A    between atoms: O_2  and  C_3
REMARK    3  A    between atoms: C_6  and  C_7
REMARK    4  A    between atoms: C_7  and  C_8
REMARK    5  A    between atoms: C_8  and  N_9
REMARK    6  A    between atoms: C_10  and  C_12
REMARK    7  A    between atoms: C_18  and  O_19
REMARK    8  A    between atoms: O_19  and  C_20
REMARK    9  A    between atoms: C_26  and  O_27
REMARK   10  A    between atoms: O_27  and  C_28
REMARK                            x       y       z     vdW  Elec       q    Type
REMARK                         _______ _______ _______ _____ _____    ______ ____
ROOT
ATOM      1  N   UNL     1       7.374   8.032  18.279  0.00  0.00    +0.000 N 
ATOM      2  C   UNL     1       7.185   6.918  17.498  0.00  0.00    +0.000 C 
ATOM      3  O   UNL     1       7.703   6.801  16.389  0.00  0.00    +0.000 OA
ATOM      4  H   UNL     1       6.834   8.131  19.140  0.00  0.00    +0.000 HD
ENDROOT
BRANCH   2   5
ATOM      5  C   UNL     1       6.317   5.838  18.055  0.00  0.00    +0.000 A 
ATOM      6  C   UNL     1       5.318   5.409  17.268  0.00  0.00    +0.000 A 
ATOM      7  C   UNL     1       4.407   4.368  17.716  0.00  0.00    +0.000 A 
ATOM      8  C   UNL     1       3.494   3.775  16.840  0.00  0.00    +0.000 A 
ATOM      9  C   UNL     1       2.622   2.790  17.307  0.00  0.00    +0.000 A 
ATOM     10  C   UNL     1       2.633   2.429  18.655  0.00  0.00    +0.000 A 
ATOM     11  C   UNL     1       3.525   3.033  19.548  0.00  0.00    +0.000 A 
ATOM     12  C   UNL     1       4.441   3.966  19.052  0.00  0.00    +0.000 A 
ATOM     13  O   UNL     1       5.477   4.449  19.880  0.00  0.00    +0.000 OA
ATOM     14  C   UNL     1       6.511   5.245  19.392  0.00  0.00    +0.000 A 
ATOM     15  O   UNL     1       7.515   5.467  20.064  0.00  0.00    +0.000 OA
BRANCH  11  16
ATOM     16  O   UNL     1       3.437   2.580  20.836  0.00  0.00    +0.000 OA
ATOM     17  C   UNL     1       2.298   3.023  21.567  0.00  0.00    +0.000 C 
ENDBRANCH  11  16
ENDBRANCH   2   5
BRANCH   1  18
ATOM     18  C   UNL     1       8.145   9.158  17.776  0.00  0.00    +0.000 C 
BRANCH  18  19
ATOM     19  C   UNL     1       9.211   9.659  18.751  0.00  0.00    +0.000 C 
BRANCH  19  23
ATOM     20  C   UNL     1      10.239  13.745  17.730  0.00  0.00    +0.000 A 
ATOM     21  C   UNL     1      11.234  12.824  18.100  0.00  0.00    +0.000 A 
ATOM     22  C   UNL     1      10.907  11.510  18.449  0.00  0.00    +0.000 A 
ATOM     23  C   UNL     1       9.575  11.099  18.473  0.00  0.00    +0.000 A 
ATOM     24  C   UNL     1       8.579  12.042  18.178  0.00  0.00    +0.000 A 
ATOM     25  C   UNL     1       8.892  13.365  17.822  0.00  0.00    +0.000 A 
BRANCH  20  27
ATOM     26  C   UNL     1      11.944  15.234  17.027  0.00  0.00    +0.000 C 
ATOM     27  O   UNL     1      10.564  15.012  17.326  0.00  0.00    +0.000 OA
ENDBRANCH  20  27
BRANCH  25  28
ATOM     28  O   UNL     1       7.769  14.110  17.574  0.00  0.00    +0.000 OA
ATOM     29  C   UNL     1       7.052  14.673  18.661  0.00  0.00    +0.000 C 
ENDBRANCH  25  28
ENDBRANCH  19  23
ENDBRANCH  18  19
ENDBRANCH   1  18
TORSDOF 7
ENDMDL
MODEL 2
REMARK VINA RESULT:      -8.0      5.452      8.417
REMARK  Name = 
REMARK  10 active torsions:
REMARK  status: ('A' for Active; 'I' for Inactive)
REMARK    1  A    between atoms: C_1  and  O_2
REMARK    2  A    between atoms: O_2  and  C_3
REMARK    3  A    between atoms: C_6  and  C_7
REMARK    4  A    between atoms: C_7  and  C_8
REMARK    5  A    between atoms: C_8  and  N_9
REMARK    6  A    between atoms: C_10  and  C_12
REMARK    7  A    between atoms: C_18  and  O_19
REMARK    8  A    between atoms: O_19  and  C_20
REMARK    9  A    between atoms: C_26  and  O_27
REMARK   10  A    between atoms: O_27  and  C_28
REMARK                            x       y       z     vdW  Elec       q    Type
REMARK                         _______ _______ _______ _____ _____    ______ ____
ROOT
ATOM      1  N   UNL     1       3.371   6.401  19.317  0.00  0.00    +0.000 N 
ATOM      2  C   UNL     1       2.267   6.451  20.131  0.00  0.00    +0.000 C 
ATOM      3  O   UNL     1       1.850   5.462  20.732  0.00  0.00    +0.000 OA
ATOM      4  H   UNL     1       3.610   7.219  18.754  0.00  0.00    +0.000 HD
ENDROOT
BRANCH   2   5
ATOM      5  C   UNL     1       1.582   7.772  20.265  0.00  0.00    +0.000 A 
ATOM      6  C   UNL     1       0.927   7.992  21.416  0.00  0.00    +0.000 A 
ATOM      7  C   UNL     1       0.217   9.240  21.646  0.00  0.00    +0.000 A 
ATOM      8  C   UNL     1      -0.296   9.562  22.905  0.00  0.00    +0.000 A 
ATOM      9  C   UNL     1      -0.986  10.761  23.089  0.00  0.00    +0.000 A 
ATOM     10  C   UNL     1      -1.201  11.616  22.006  0.00  0.00    +0.000 A 
ATOM     11  C   UNL     1      -0.715  11.293  20.735  0.00  0.00    +0.000 A 
ATOM     12  C   UNL     1       0.037  10.123  20.581  0.00  0.00    +0.000 A 
ATOM     13  O   UNL     1       0.704   9.866  19.364  0.00  0.00    +0.000 OA
ATOM     14  C   UNL     1       1.598   8.808  19.215  0.00  0.00    +0.000 A 
ATOM     15  O   UNL     1       2.333   8.731  18.234  0.00  0.00    +0.000 OA
BRANCH  11  16
ATOM     16  O   UNL     1      -0.987  12.222  19.767  0.00  0.00    +0.000 OA
ATOM     17  C   UNL     1      -2.137  11.959  18.969  0.00  0.00    +0.000 C 
ENDBRANCH  11  16
ENDBRANCH   2   5
BRANCH   1  18
ATOM     18  C   UNL     1       4.048   5.136  19.077  0.00  0.00    +0.000 C 
BRANCH  18  19
ATOM     19  C   UNL     1       3.731   4.516  17.716  0.00  0.00    +0.000 C 
BRANCH  19  23
ATOM     20  C   UNL     1       6.966   5.103  14.891  0.00  0.00    +0.000 A 
ATOM     21  C   UNL     1       6.002   4.103  14.682  0.00  0.00    +0.000 A 
ATOM     22  C   UNL     1       4.967   3.896  15.599  0.00  0.00    +0.000 A 
ATOM     23  C   UNL     1       4.895   4.659  16.764  0.00  0.00    +0.000 A 
ATOM     24  C   UNL     1       5.903   5.604  17.007  0.00  0.00    +0.000 A 
ATOM     25  C   UNL     1       6.948   5.826  16.093  0.00  0.00    +0.000 A 
BRANCH  20  27
ATOM     26  C   UNL     1       7.658   4.912  12.631  0.00  0.00    +0.000 C 
ATOM     27  O   UNL     1       7.942   5.350  13.962  0.00  0.00    +0.000 OA
ENDBRANCH  20  27
BRANCH  25  28
ATOM     28  O   UNL     1       7.816   6.793  16.530  0.00  0.00    +0.000 OA
ATOM     29  C   UNL     1       7.501   7.536  17.697  0.00  0.00    +0.000 C 
ENDBRANCH  25  28
ENDBRANCH  19  23
ENDBRANCH  18  19
ENDBRANCH   1  18
TORSDOF 7
ENDMDL
MODEL 3
REMARK VINA RESULT:      -8.0      4.731      7.918
REMARK  Name = 
REMARK  10 active torsions:
REMARK  status: ('A' for Active; 'I' for Inactive)
REMARK    1  A    between atoms: C_1  and  O_2
REMARK    2  A    between atoms: O_2  and  C_3
REMARK    3  A    between atoms: C_6  and  C_7
REMARK    4  A    between atoms: C_7  and  C_8
REMARK    5  A    between atoms: C_8  and  N_9
REMARK    6  A    between atoms: C_10  and  C_12
REMARK    7  A    between atoms: C_18  and  O_19
REMARK    8  A    between atoms: O_19  and  C_20
REMARK    9  A    between atoms: C_26  and  O_27
REMARK   10  A    between atoms: O_27  and  C_28
REMARK                            x       y       z     vdW  Elec       q    Type
REMARK                         _______ _______ _______ _____ _____    ______ ____
ROOT
ATOM      1  N   UNL     1       2.539   4.826  18.806  0.00  0.00    +0.000 N 
ATOM      2  C   UNL     1       2.313   5.402  20.032  0.00  0.00    +0.000 C 
ATOM      3  O   UNL     1       2.432   4.774  21.082  0.00  0.00    +0.000 OA
ATOM      4  H   UNL     1       2.320   5.356  17.961  0.00  0.00    +0.000 HD
ENDROOT
BRANCH   2   5
ATOM      5  C   UNL     1       1.914   6.842  20.042  0.00  0.00    +0.000 A 
ATOM      6  C   UNL     1       1.213   7.260  21.107  0.00  0.00    +0.000 A 
ATOM      7  C   UNL     1       0.765   8.639  21.214  0.00  0.00    +0.000 A 
ATOM      8  C   UNL     1       0.213   9.135  22.398  0.00  0.00    +0.000 A 
ATOM      9  C   UNL     1      -0.222  10.459  22.461  0.00  0.00    +0.000 A 
ATOM     10  C   UNL     1      -0.145  11.274  21.331  0.00  0.00    +0.000 A 
ATOM     11  C   UNL     1       0.383  10.784  20.132  0.00  0.00    +0.000 A 
ATOM     12  C   UNL     1       0.880   9.477  20.104  0.00  0.00    +0.000 A 
ATOM     13  O   UNL     1       1.592   9.015  18.975  0.00  0.00    +0.000 OA
ATOM     14  C   UNL     1       2.252   7.789  18.962  0.00  0.00    +0.000 A 
ATOM     15  O   UNL     1       3.046   7.503  18.069  0.00  0.00    +0.000 OA
BRANCH  11  16
ATOM     16  O   UNL     1       0.410  11.690  19.107  0.00  0.00    +0.000 OA
ATOM     17  C   UNL     1      -0.831  11.899  18.439  0.00  0.00    +0.000 C 
ENDBRANCH  11  16
ENDBRANCH   2   5
BRANCH   1  18
ATOM     18  C   UNL     1       2.858   3.411  18.709  0.00  0.00    +0.000 C 
BRANCH  18  19
ATOM     19  C   UNL     1       4.354   3.108  18.813  0.00  0.00    +0.000 C 
BRANCH  19  23
ATOM     20  C   UNL     1       6.900   6.264  17.279  0.00  0.00    +0.000 A 
ATOM     21  C   UNL     1       6.738   6.079  18.662  0.00  0.00    +0.000 A 
ATOM     22  C   UNL     1       5.904   5.075  19.163  0.00  0.00    +0.000 A 
ATOM     23  C   UNL     1       5.183   4.259  18.292  0.00  0.00    +0.000 A 
ATOM     24  C   UNL     1       5.288   4.497  16.913  0.00  0.00    +0.000 A 
ATOM     25  C   UNL     1       6.125   5.500  16.395  0.00  0.00    +0.000 A 
BRANCH  20  27
ATOM     26  C   UNL     1       7.963   8.357  17.609  0.00  0.00    +0.000 C 
ATOM     27  O   UNL     1       7.767   7.203  16.788  0.00  0.00    +0.000 OA
ENDBRANCH  20  27
BRANCH  25  28
ATOM     28  O   UNL     1       6.075   5.554  15.026  0.00  0.00    +0.000 OA
ATOM     29  C   UNL     1       5.976   4.349  14.284  0.00  0.00    +0.000 C 
ENDBRANCH  25  28
ENDBRANCH  19  23
ENDBRANCH  18  19
ENDBRANCH   1  18
TORSDOF 7
ENDMDL
MODEL 4
REMARK VINA RESULT:      -8.0      4.584      8.416
REMARK  Name = 
REMARK  10 active torsions:
REMARK  status: ('A' for Active; 'I' for Inactive)
REMARK    1  A    between atoms: C_1  and  O_2
REMARK    2  A    between atoms: O_2  and  C_3
REMARK    3  A    between atoms: C_6  and  C_7
REMARK    4  A    between atoms: C_7  and  C_8
REMARK    5  A    between atoms: C_8  and  N_9
REMARK    6  A    between atoms: C_10  and  C_12
REMARK    7  A    between atoms: C_18  and  O_19
REMARK    8  A    between atoms: O_19  and  C_20
REMARK    9  A    between atoms: C_26  and  O_27
REMARK   10  A    between atoms: O_27  and  C_28
REMARK                            x       y       z     vdW  Elec       q    Type
REMARK                         _______ _______ _______ _____ _____    ______ ____
ROOT
ATOM      1  N   UNL     1       1.916   4.386  19.151  0.00  0.00    +0.000 N 
ATOM      2  C   UNL     1       2.084   5.161  20.272  0.00  0.00    +0.000 C 
ATOM      3  O   UNL     1       2.435   4.685  21.350  0.00  0.00    +0.000 OA
ATOM      4  H   UNL     1       1.517   4.809  18.312  0.00  0.00    +0.000 HD
ENDROOT
BRANCH   2   5
ATOM      5  C   UNL     1       1.826   6.626  20.130  0.00  0.00    +0.000 A 
ATOM      6  C   UNL     1       1.091   7.200  21.096  0.00  0.00    +0.000 A 
ATOM      7  C   UNL     1       0.771   8.617  21.050  0.00  0.00    +0.000 A 
ATOM      8  C   UNL     1       0.183   9.265  22.140  0.00  0.00    +0.000 A 
ATOM      9  C   UNL     1      -0.127  10.622  22.057  0.00  0.00    +0.000 A 
ATOM     10  C   UNL     1       0.111  11.322  20.873  0.00  0.00    +0.000 A 
ATOM     11  C   UNL     1       0.676  10.680  19.766  0.00  0.00    +0.000 A 
ATOM     12  C   UNL     1       1.047   9.337  19.887  0.00  0.00    +0.000 A 
ATOM     13  O   UNL     1       1.793   8.714  18.863  0.00  0.00    +0.000 OA
ATOM     14  C   UNL     1       2.331   7.437  19.006  0.00  0.00    +0.000 A 
ATOM     15  O   UNL     1       3.158   7.003  18.208  0.00  0.00    +0.000 OA
BRANCH  11  16
ATOM     16  O   UNL     1       0.865  11.484  18.675  0.00  0.00    +0.000 OA
ATOM     17  C   UNL     1       1.989  12.357  18.742  0.00  0.00    +0.000 C 
ENDBRANCH  11  16
ENDBRANCH   2   5
BRANCH   1  18
ATOM     18  C   UNL     1       2.076   2.943  19.227  0.00  0.00    +0.000 C 
BRANCH  18  19
ATOM     19  C   UNL     1       3.081   2.381  18.219  0.00  0.00    +0.000 C 
BRANCH  19  23
ATOM     20  C   UNL     1       6.353   5.073  17.303  0.00  0.00    +0.000 A 
ATOM     21  C   UNL     1       6.100   4.673  18.626  0.00  0.00    +0.000 A 
ATOM     22  C   UNL     1       5.034   3.820  18.931  0.00  0.00    +0.000 A 
ATOM     23  C   UNL     1       4.176   3.379  17.924  0.00  0.00    +0.000 A 
ATOM     24  C   UNL     1       4.386   3.842  16.616  0.00  0.00    +0.000 A 
ATOM     25  C   UNL     1       5.456   4.696  16.295  0.00  0.00    +0.000 A 
BRANCH  20  27
ATOM     26  C   UNL     1       7.577   7.050  17.767  0.00  0.00    +0.000 C 
ATOM     27  O   UNL     1       7.435   5.855  16.997  0.00  0.00    +0.000 OA
ENDBRANCH  20  27
BRANCH  25  28
ATOM     28  O   UNL     1       5.472   5.019  14.962  0.00  0.00    +0.000 OA
ATOM     29  C   UNL     1       6.193   4.200  14.056  0.00  0.00    +0.000 C 
ENDBRANCH  25  28
ENDBRANCH  19  23
ENDBRANCH  18  19
ENDBRANCH   1  18
TORSDOF 7
ENDMDL
MODEL 5
REMARK VINA RESULT:      -7.9      5.469      8.304
REMARK  Name = 
REMARK  10 active torsions:
REMARK  status: ('A' for Active; 'I' for Inactive)
REMARK    1  A    between atoms: C_1  and  O_2
REMARK    2  A    between atoms: O_2  and  C_3
REMARK    3  A    between atoms: C_6  and  C_7
REMARK    4  A    between atoms: C_7  and  C_8
REMARK    5  A    between atoms: C_8  and  N_9
REMARK    6  A    between atoms: C_10  and  C_12
REMARK    7  A    between atoms: C_18  and  O_19
REMARK    8  A    between atoms: O_19  and  C_20
REMARK    9  A    between atoms: C_26  and  O_27
REMARK   10  A    between atoms: O_27  and  C_28
REMARK                            x       y       z     vdW  Elec       q    Type
REMARK                         _______ _______ _______ _____ _____    ______ ____
ROOT
ATOM      1  N   UNL     1       2.629   5.928  20.024  0.00  0.00    +0.000 N 
ATOM      2  C   UNL     1       2.377   6.891  19.078  0.00  0.00    +0.000 C 
ATOM      3  O   UNL     1       2.712   6.758  17.902  0.00  0.00    +0.000 OA
ATOM      4  H   UNL     1       2.432   6.133  21.005  0.00  0.00    +0.000 HD
ENDROOT
BRANCH   2   5
ATOM      5  C   UNL     1       1.666   8.123  19.536  0.00  0.00    +0.000 A 
ATOM      6  C   UNL     1       1.161   8.094  20.779  0.00  0.00    +0.000 A 
ATOM      7  C   UNL     1       0.442   9.235  21.321  0.00  0.00    +0.000 A 
ATOM      8  C   UNL     1       0.088   9.296  22.671  0.00  0.00    +0.000 A 
ATOM      9  C   UNL     1      -0.617  10.398  23.156  0.00  0.00    +0.000 A 
ATOM     10  C   UNL     1      -1.005  11.418  22.284  0.00  0.00    +0.000 A 
ATOM     11  C   UNL     1      -0.679  11.357  20.926  0.00  0.00    +0.000 A 
ATOM     12  C   UNL     1       0.089  10.282  20.468  0.00  0.00    +0.000 A 
ATOM     13  O   UNL     1       0.599  10.286  19.152  0.00  0.00    +0.000 OA
ATOM     14  C   UNL     1       1.505   9.329  18.701  0.00  0.00    +0.000 A 
ATOM     15  O   UNL     1       2.107   9.473  17.640  0.00  0.00    +0.000 OA
BRANCH  11  16
ATOM     16  O   UNL     1      -1.111  12.425  20.187  0.00  0.00    +0.000 OA
ATOM     17  C   UNL     1      -2.512  12.472  19.936  0.00  0.00    +0.000 C 
ENDBRANCH  11  16
ENDBRANCH   2   5
BRANCH   1  18
ATOM     18  C   UNL     1       3.381   4.735  19.673  0.00  0.00    +0.000 C 
BRANCH  18  19
ATOM     19  C   UNL     1       4.898   4.921  19.737  0.00  0.00    +0.000 C 
BRANCH  19  23
ATOM     20  C   UNL     1       6.487   5.163  15.711  0.00  0.00    +0.000 A 
ATOM     21  C   UNL     1       5.631   4.114  16.084  0.00  0.00    +0.000 A 
ATOM     22  C   UNL     1       5.130   4.020  17.386  0.00  0.00    +0.000 A 
ATOM     23  C   UNL     1       5.505   4.951  18.354  0.00  0.00    +0.000 A 
ATOM     24  C   UNL     1       6.421   5.952  17.998  0.00  0.00    +0.000 A 
ATOM     25  C   UNL     1       6.930   6.062  16.692  0.00  0.00    +0.000 A 
BRANCH  20  27
ATOM     26  C   UNL     1       6.627   4.199  13.549  0.00  0.00    +0.000 C 
ATOM     27  O   UNL     1       6.925   5.292  14.420  0.00  0.00    +0.000 OA
ENDBRANCH  20  27
BRANCH  25  28
ATOM     28  O   UNL     1       7.804   7.111  16.568  0.00  0.00    +0.000 OA
ATOM     29  C   UNL     1       7.811   8.132  17.552  0.00  0.00    +0.000 C 
ENDBRANCH  25  28
ENDBRANCH  19  23
ENDBRANCH  18  19
ENDBRANCH   1  18
TORSDOF 7
ENDMDL
MODEL 6
REMARK VINA RESULT:      -7.7      1.706      1.878
REMARK  Name = 
REMARK  10 active torsions:
REMARK  status: ('A' for Active; 'I' for Inactive)
REMARK    1  A    between atoms: C_1  and  O_2
REMARK    2  A    between atoms: O_2  and  C_3
REMARK    3  A    between atoms: C_6  and  C_7
REMARK    4  A    between atoms: C_7  and  C_8
REMARK    5  A    between atoms: C_8  and  N_9
REMARK    6  A    between atoms: C_10  and  C_12
REMARK    7  A    between atoms: C_18  and  O_19
REMARK    8  A    between atoms: O_19  and  C_20
REMARK    9  A    between atoms: C_26  and  O_27
REMARK   10  A    between atoms: O_27  and  C_28
REMARK                            x       y       z     vdW  Elec       q    Type
REMARK                         _______ _______ _______ _____ _____    ______ ____
ROOT
ATOM      1  N   UNL     1       7.829   8.166  18.464  0.00  0.00    +0.000 N 
ATOM      2  C   UNL     1       7.539   7.244  17.489  0.00  0.00    +0.000 C 
ATOM      3  O   UNL     1       8.083   7.265  16.386  0.00  0.00    +0.000 OA
ATOM      4  H   UNL     1       7.271   8.175  19.320  0.00  0.00    +0.000 HD
ENDROOT
BRANCH   2   5
ATOM      5  C   UNL     1       6.527   6.198  17.823  0.00  0.00    +0.000 A 
ATOM      6  C   UNL     1       5.239   6.573  17.769  0.00  0.00    +0.000 A 
ATOM      7  C   UNL     1       4.173   5.637  18.086  0.00  0.00    +0.000 A 
ATOM      8  C   UNL     1       2.834   5.951  17.842  0.00  0.00    +0.000 A 
ATOM      9  C   UNL     1       1.834   5.036  18.173  0.00  0.00    +0.000 A 
ATOM     10  C   UNL     1       2.168   3.827  18.786  0.00  0.00    +0.000 A 
ATOM     11  C   UNL     1       3.503   3.510  19.058  0.00  0.00    +0.000 A 
ATOM     12  C   UNL     1       4.499   4.405  18.656  0.00  0.00    +0.000 A 
ATOM     13  O   UNL     1       5.859   4.034  18.738  0.00  0.00    +0.000 OA
ATOM     14  C   UNL     1       6.878   4.814  18.197  0.00  0.00    +0.000 A 
ATOM     15  O   UNL     1       8.019   4.376  18.076  0.00  0.00    +0.000 OA
BRANCH  11  16
ATOM     16  O   UNL     1       3.690   2.291  19.650  0.00  0.00    +0.000 OA
ATOM     17  C   UNL     1       3.761   1.180  18.761  0.00  0.00    +0.000 C 
ENDBRANCH  11  16
ENDBRANCH   2   5
BRANCH   1  18
ATOM     18  C   UNL     1       8.748   9.259  18.190  0.00  0.00    +0.000 C 
BRANCH  18  19
ATOM     19  C   UNL     1       9.143  10.059  19.433  0.00  0.00    +0.000 C 
BRANCH  19  23
ATOM     20  C   UNL     1      11.299  13.657  18.340  0.00  0.00    +0.000 A 
ATOM     21  C   UNL     1      11.148  12.603  17.424  0.00  0.00    +0.000 A 
ATOM     22  C   UNL     1      10.470  11.432  17.777  0.00  0.00    +0.000 A 
ATOM     23  C   UNL     1       9.961  11.274  19.065  0.00  0.00    +0.000 A 
ATOM     24  C   UNL     1      10.181  12.296  20.000  0.00  0.00    +0.000 A 
ATOM     25  C   UNL     1      10.857  13.481  19.659  0.00  0.00    +0.000 A 
BRANCH  20  27
ATOM     26  C   UNL     1      11.214  15.608  16.995  0.00  0.00    +0.000 C 
ATOM     27  O   UNL     1      11.905  14.830  17.975  0.00  0.00    +0.000 OA
ENDBRANCH  20  27
BRANCH  25  28
ATOM     28  O   UNL     1      10.955  14.340  20.723  0.00  0.00    +0.000 OA
ATOM     29  C   UNL     1      10.074  15.450  20.805  0.00  0.00    +0.000 C 
ENDBRANCH  25  28
ENDBRANCH  19  23
ENDBRANCH  18  19
ENDBRANCH   1  18
TORSDOF 7
ENDMDL
MODEL 7
REMARK VINA RESULT:      -7.7      1.313      1.797
REMARK  Name = 
REMARK  10 active torsions:
REMARK  status: ('A' for Active; 'I' for Inactive)
REMARK    1  A    between atoms: C_1  and  O_2
REMARK    2  A    between atoms: O_2  and  C_3
REMARK    3  A    between atoms: C_6  and  C_7
REMARK    4  A    between atoms: C_7  and  C_8
REMARK    5  A    between atoms: C_8  and  N_9
REMARK    6  A    between atoms: C_10  and  C_12
REMARK    7  A    between atoms: C_18  and  O_19
REMARK    8  A    between atoms: O_19  and  C_20
REMARK    9  A    between atoms: C_26  and  O_27
REMARK   10  A    between atoms: O_27  and  C_28
REMARK                            x       y       z     vdW  Elec       q    Type
REMARK                         _______ _______ _______ _____ _____    ______ ____
ROOT
ATOM      1  N   UNL     1       7.325   8.132  18.317  0.00  0.00    +0.000 N 
ATOM      2  C   UNL     1       7.197   7.010  17.535  0.00  0.00    +0.000 C 
ATOM      3  O   UNL     1       7.758   6.905  16.445  0.00  0.00    +0.000 OA
ATOM      4  H   UNL     1       6.753   8.218  19.158  0.00  0.00    +0.000 HD
ENDROOT
BRANCH   2   5
ATOM      5  C   UNL     1       6.342   5.907  18.066  0.00  0.00    +0.000 A 
ATOM      6  C   UNL     1       5.328   5.507  17.283  0.00  0.00    +0.000 A 
ATOM      7  C   UNL     1       4.428   4.447  17.707  0.00  0.00    +0.000 A 
ATOM      8  C   UNL     1       3.498   3.887  16.827  0.00  0.00    +0.000 A 
ATOM      9  C   UNL     1       2.638   2.883  17.271  0.00  0.00    +0.000 A 
ATOM     10  C   UNL     1       2.676   2.468  18.603  0.00  0.00    +0.000 A 
ATOM     11  C   UNL     1       3.585   3.038  19.502  0.00  0.00    +0.000 A 
ATOM     12  C   UNL     1       4.489   3.993  19.025  0.00  0.00    +0.000 A 
ATOM     13  O   UNL     1       5.541   4.444  19.851  0.00  0.00    +0.000 OA
ATOM     14  C   UNL     1       6.564   5.261  19.374  0.00  0.00    +0.000 A 
ATOM     15  O   UNL     1       7.581   5.459  20.034  0.00  0.00    +0.000 OA
BRANCH  11  16
ATOM     16  O   UNL     1       3.524   2.533  20.772  0.00  0.00    +0.000 OA
ATOM     17  C   UNL     1       2.368   2.896  21.522  0.00  0.00    +0.000 C 
ENDBRANCH  11  16
ENDBRANCH   2   5
BRANCH   1  18
ATOM     18  C   UNL     1       8.080   9.278  17.837  0.00  0.00    +0.000 C 
BRANCH  18  19
ATOM     19  C   UNL     1       9.369   9.539  18.618  0.00  0.00    +0.000 C 
BRANCH  19  23
ATOM     20  C   UNL     1       9.887  13.663  19.847  0.00  0.00    +0.000 A 
ATOM     21  C   UNL     1       9.417  12.697  20.752  0.00  0.00    +0.000 A 
ATOM     22  C   UNL     1       9.230  11.369  20.357  0.00  0.00    +0.000 A 
ATOM     23  C   UNL     1       9.472  10.986  19.038  0.00  0.00    +0.000 A 
ATOM     24  C   UNL     1       9.866  11.970  18.119  0.00  0.00    +0.000 A 
ATOM     25  C   UNL     1      10.063  13.308  18.502  0.00  0.00    +0.000 A 
BRANCH  20  27
ATOM     26  C   UNL     1      10.312  15.136  21.656  0.00  0.00    +0.000 C 
ATOM     27  O   UNL     1      10.133  14.949  20.251  0.00  0.00    +0.000 OA
ENDBRANCH  20  27
BRANCH  25  28
ATOM     28  O   UNL     1      10.449  14.093  17.447  0.00  0.00    +0.000 OA
ATOM     29  C   UNL     1      11.441  13.618  16.551  0.00  0.00    +0.000 C 
ENDBRANCH  25  28
ENDBRANCH  19  23
ENDBRANCH  18  19
ENDBRANCH   1  18
TORSDOF 7
ENDMDL
MODEL 8
REMARK VINA RESULT:      -7.7      7.839      9.531
REMARK  Name = 
REMARK  10 active torsions:
REMARK  status: ('A' for Active; 'I' for Inactive)
REMARK    1  A    between atoms: C_1  and  O_2
REMARK    2  A    between atoms: O_2  and  C_3
REMARK    3  A    between atoms: C_6  and  C_7
REMARK    4  A    between atoms: C_7  and  C_8
REMARK    5  A    between atoms: C_8  and  N_9
REMARK    6  A    between atoms: C_10  and  C_12
REMARK    7  A    between atoms: C_18  and  O_19
REMARK    8  A    between atoms: O_19  and  C_20
REMARK    9  A    between atoms: C_26  and  O_27
REMARK   10  A    between atoms: O_27  and  C_28
REMARK                            x       y       z     vdW  Elec       q    Type
REMARK                         _______ _______ _______ _____ _____    ______ ____
ROOT
ATOM      1  N   UNL     1       0.453   9.905  19.005  0.00  0.00    +0.000 N 
ATOM      2  C   UNL     1       1.533   9.328  18.385  0.00  0.00    +0.000 C 
ATOM      3  O   UNL     1       2.128   9.877  17.460  0.00  0.00    +0.000 OA
ATOM      4  H   UNL     1      -0.075   9.363  19.691  0.00  0.00    +0.000 HD
ENDROOT
BRANCH   2   5
ATOM      5  C   UNL     1       1.967   7.989  18.886  0.00  0.00    +0.000 A 
ATOM      6  C   UNL     1       2.524   7.165  17.985  0.00  0.00    +0.000 A 
ATOM      7  C   UNL     1       2.972   5.835  18.363  0.00  0.00    +0.000 A 
ATOM      8  C   UNL     1       3.728   5.047  17.491  0.00  0.00    +0.000 A 
ATOM      9  C   UNL     1       4.128   3.768  17.879  0.00  0.00    +0.000 A 
ATOM     10  C   UNL     1       3.737   3.260  19.119  0.00  0.00    +0.000 A 
ATOM     11  C   UNL     1       2.959   4.028  19.992  0.00  0.00    +0.000 A 
ATOM     12  C   UNL     1       2.625   5.334  19.619  0.00  0.00    +0.000 A 
ATOM     13  O   UNL     1       2.011   6.200  20.549  0.00  0.00    +0.000 OA
ATOM     14  C   UNL     1       1.813   7.554  20.288  0.00  0.00    +0.000 A 
ATOM     15  O   UNL     1       1.489   8.333  21.180  0.00  0.00    +0.000 OA
BRANCH  11  16
ATOM     16  O   UNL     1       2.655   3.414  21.176  0.00  0.00    +0.000 OA
ATOM     17  C   UNL     1       1.365   2.814  21.244  0.00  0.00    +0.000 C 
ENDBRANCH  11  16
ENDBRANCH   2   5
BRANCH   1  18
ATOM     18  C   UNL     1      -0.076  11.173  18.526  0.00  0.00    +0.000 C 
BRANCH  18  19
ATOM     19  C   UNL     1      -1.023  11.857  19.513  0.00  0.00    +0.000 C 
BRANCH  19  23
ATOM     20  C   UNL     1      -5.087  11.917  18.005  0.00  0.00    +0.000 A 
ATOM     21  C   UNL     1      -4.809  12.272  19.336  0.00  0.00    +0.000 A 
ATOM     22  C   UNL     1      -3.502  12.236  19.833  0.00  0.00    +0.000 A 
ATOM     23  C   UNL     1      -2.452  11.809  19.023  0.00  0.00    +0.000 A 
ATOM     24  C   UNL     1      -2.745  11.382  17.719  0.00  0.00    +0.000 A 
ATOM     25  C   UNL     1      -4.052  11.416  17.203  0.00  0.00    +0.000 A 
BRANCH  20  27
ATOM     26  C   UNL     1      -6.703  13.278  16.928  0.00  0.00    +0.000 C 
ATOM     27  O   UNL     1      -6.356  12.014  17.499  0.00  0.00    +0.000 OA
ENDBRANCH  20  27
BRANCH  25  28
ATOM     28  O   UNL     1      -4.107  10.957  15.912  0.00  0.00    +0.000 OA
ATOM     29  C   UNL     1      -2.912  10.548  15.267  0.00  0.00    +0.000 C 
ENDBRANCH  25  28
ENDBRANCH  19  23
ENDBRANCH  18  19
ENDBRANCH   1  18
TORSDOF 7
ENDMDL
MODEL 9
REMARK VINA RESULT:      -7.6      7.348      9.210
REMARK  Name = 
REMARK  10 active torsions:
REMARK  status: ('A' for Active; 'I' for Inactive)
REMARK    1  A    between atoms: C_1  and  O_2
REMARK    2  A    between atoms: O_2  and  C_3
REMARK    3  A    between atoms: C_6  and  C_7
REMARK    4  A    between atoms: C_7  and  C_8
REMARK    5  A    between atoms: C_8  and  N_9
REMARK    6  A    between atoms: C_10  and  C_12
REMARK    7  A    between atoms: C_18  and  O_19
REMARK    8  A    between atoms: O_19  and  C_20
REMARK    9  A    between atoms: C_26  and  O_27
REMARK   10  A    between atoms: O_27  and  C_28
REMARK                            x       y       z     vdW  Elec       q    Type
REMARK                         _______ _______ _______ _____ _____    ______ ____
ROOT
ATOM      1  N   UNL     1       0.641   9.712  19.565  0.00  0.00    +0.000 N 
ATOM      2  C   UNL     1       1.633   9.362  18.681  0.00  0.00    +0.000 C 
ATOM      3  O   UNL     1       2.041  10.135  17.816  0.00  0.00    +0.000 OA
ATOM      4  H   UNL     1       0.261   9.000  20.190  0.00  0.00    +0.000 HD
ENDROOT
BRANCH   2   5
ATOM      5  C   UNL     1       2.208   7.990  18.815  0.00  0.00    +0.000 A 
ATOM      6  C   UNL     1       2.962   7.556  17.793  0.00  0.00    +0.000 A 
ATOM      7  C   UNL     1       3.561   6.232  17.815  0.00  0.00    +0.000 A 
ATOM      8  C   UNL     1       4.504   5.845  16.859  0.00  0.00    +0.000 A 
ATOM      9  C   UNL     1       5.048   4.560  16.899  0.00  0.00    +0.000 A 
ATOM     10  C   UNL     1       4.618   3.650  17.866  0.00  0.00    +0.000 A 
ATOM     11  C   UNL     1       3.656   4.016  18.814  0.00  0.00    +0.000 A 
ATOM     12  C   UNL     1       3.173   5.328  18.805  0.00  0.00    +0.000 A 
ATOM     13  O   UNL     1       2.353   5.787  19.859  0.00  0.00    +0.000 OA
ATOM     14  C   UNL     1       1.985   7.124  19.989  0.00  0.00    +0.000 A 
ATOM     15  O   UNL     1       1.467   7.544  21.020  0.00  0.00    +0.000 OA
BRANCH  11  16
ATOM     16  O   UNL     1       3.334   3.032  19.708  0.00  0.00    +0.000 OA
ATOM     17  C   UNL     1       4.421   2.228  20.156  0.00  0.00    +0.000 C 
ENDBRANCH  11  16
ENDBRANCH   2   5
BRANCH   1  18
ATOM     18  C   UNL     1      -0.019  11.003  19.452  0.00  0.00    +0.000 C 
BRANCH  18  19
ATOM     19  C   UNL     1      -1.540  10.931  19.596  0.00  0.00    +0.000 C 
BRANCH  19  23
ATOM     20  C   UNL     1      -3.608  10.527  15.808  0.00  0.00    +0.000 A 
ATOM     21  C   UNL     1      -2.350   9.935  16.007  0.00  0.00    +0.000 A 
ATOM     22  C   UNL     1      -1.669  10.077  17.220  0.00  0.00    +0.000 A 
ATOM     23  C   UNL     1      -2.214  10.847  18.247  0.00  0.00    +0.000 A 
ATOM     24  C   UNL     1      -3.434  11.500  18.017  0.00  0.00    +0.000 A 
ATOM     25  C   UNL     1      -4.132  11.363  16.804  0.00  0.00    +0.000 A 
BRANCH  20  27
ATOM     26  C   UNL     1      -3.532   9.896  13.523  0.00  0.00    +0.000 C 
ATOM     27  O   UNL     1      -4.304  10.334  14.644  0.00  0.00    +0.000 OA
ENDBRANCH  20  27
BRANCH  25  28
ATOM     28  O   UNL     1      -5.298  12.084  16.798  0.00  0.00    +0.000 OA
ATOM     29  C   UNL     1      -5.911  12.428  18.031  0.00  0.00    +0.000 C 
ENDBRANCH  25  28
ENDBRANCH  19  23
ENDBRANCH  18  19
ENDBRANCH   1  18
TORSDOF 7
ENDMDL
