MODEL 1
REMARK VINA RESULT:      -8.9      0.000      0.000
REMARK  Name = 
REMARK  6 active torsions:
REMARK  status: ('A' for Active; 'I' for Inactive)
REMARK    1  A    between atoms: C_1  and  O_2
REMARK    2  A    between atoms: O_2  and  C_3
REMARK    3  A    between atoms: C_8  and  N_9
REMARK    4  A    between atoms: C_11  and  C_12
REMARK    5  A    between atoms: C_12  and  N_13
REMARK    6  A    between atoms: N_20  and  C_21
REMARK                            x       y       z     vdW  Elec       q    Type
REMARK                         _______ _______ _______ _____ _____    ______ ____
ROOT
ATOM      1  N   UNL     1       3.881   4.812  18.619  0.00  0.00    +0.000 N 
ATOM      2  C   UNL     1       3.685   5.666  17.536  0.00  0.00    +0.000 A 
ATOM      3  N   UNL     1       4.508   5.832  16.545  0.00  0.00    +0.000 NA
ATOM      4  C   UNL     1       5.695   5.206  16.739  0.00  0.00    +0.000 A 
ATOM      5  C   UNL     1       6.085   4.510  17.856  0.00  0.00    +0.000 A 
ATOM      6  C   UNL     1       7.477   4.484  17.774  0.00  0.00    +0.000 A 
ATOM      7  N   UNL     1       7.915   4.869  16.566  0.00  0.00    +0.000 NA
ATOM      8  N   UNL     1       6.756   5.062  15.854  0.00  0.00    +0.000 N 
ATOM      9  C   UNL     1       5.080   4.122  18.822  0.00  0.00    +0.000 A 
ATOM     10  O   UNL     1       5.259   3.241  19.645  0.00  0.00    +0.000 OA
ENDROOT
BRANCH   8  11
ATOM     11  C   UNL     1       6.688   4.812  14.449  0.00  0.00    +0.000 A 
ATOM     12  C   UNL     1       7.643   5.365  13.584  0.00  0.00    +0.000 A 
ATOM     13  C   UNL     1       7.745   4.896  12.269  0.00  0.00    +0.000 A 
ATOM     14  C   UNL     1       6.905   3.879  11.815  0.00  0.00    +0.000 A 
ATOM     15  C   UNL     1       5.912   3.375  12.651  0.00  0.00    +0.000 A 
ATOM     16  C   UNL     1       5.789   3.855  13.955  0.00  0.00    +0.000 A 
ENDBRANCH   8  11
BRANCH   1  17
ATOM     17  C   UNL     1       2.763   4.550  19.499  0.00  0.00    +0.000 C 
BRANCH  17  20
ATOM     18  N   UNL     1       1.587   7.915  20.264  0.00  0.00    +0.000 N 
ATOM     19  C   UNL     1       2.445   7.115  19.535  0.00  0.00    +0.000 A 
ATOM     20  C   UNL     1       2.228   5.840  20.001  0.00  0.00    +0.000 A 
ATOM     21  N   UNL     1       1.370   5.882  21.055  0.00  0.00    +0.000 NA
ATOM     22  N   UNL     1       1.013   7.148  21.234  0.00  0.00    +0.000 NA
BRANCH  18  28
ATOM     23  C   UNL     1       0.947  10.135  21.204  0.00  0.00    +0.000 A 
ATOM     24  C   UNL     1       0.676  11.491  20.958  0.00  0.00    +0.000 A 
ATOM     25  C   UNL     1       0.669  12.004  19.662  0.00  0.00    +0.000 A 
ATOM     26  C   UNL     1       0.957  11.172  18.588  0.00  0.00    +0.000 A 
ATOM     27  C   UNL     1       1.253   9.829  18.813  0.00  0.00    +0.000 A 
ATOM     28  C   UNL     1       1.250   9.293  20.119  0.00  0.00    +0.000 A 
BRANCH  23  30
ATOM     29  C   UNL     1      -0.187   9.746  23.255  0.00  0.00    +0.000 C 
ATOM     30  O   UNL     1       1.007   9.649  22.482  0.00  0.00    +0.000 OA
ENDBRANCH  23  30
ENDBRANCH  18  28
ENDBRANCH  17  20
ENDBRANCH   1  17
TORSDOF 5
ENDMDL
MODEL 2
REMARK VINA RESULT:      -8.6      1.050      1.930
REMARK  Name = 
REMARK  6 active torsions:
REMARK  status: ('A' for Active; 'I' for Inactive)
REMARK    1  A    between atoms: C_1  and  O_2
REMARK    2  A    between atoms: O_2  and  C_3
REMARK    3  A    between atoms: C_8  and  N_9
REMARK    4  A    between atoms: C_11  and  C_12
REMARK    5  A    between atoms: C_12  and  N_13
REMARK    6  A    between atoms: N_20  and  C_21
REMARK                            x       y       z     vdW  Elec       q    Type
REMARK                         _______ _______ _______ _____ _____    ______ ____
ROOT
ATOM      1  N   UNL     1       4.008   5.281  18.664  0.00  0.00    +0.000 N 
ATOM      2  C   UNL     1       3.873   6.103  17.547  0.00  0.00    +0.000 A 
ATOM      3  N   UNL     1       4.674   6.128  16.526  0.00  0.00    +0.000 NA
ATOM      4  C   UNL     1       5.787   5.377  16.713  0.00  0.00    +0.000 A 
ATOM      5  C   UNL     1       6.134   4.690  17.850  0.00  0.00    +0.000 A 
ATOM      6  C   UNL     1       7.510   4.498  17.727  0.00  0.00    +0.000 A 
ATOM      7  N   UNL     1       7.946   4.776  16.490  0.00  0.00    +0.000 NA
ATOM      8  N   UNL     1       6.792   5.070  15.804  0.00  0.00    +0.000 N 
ATOM      9  C   UNL     1       5.126   4.465  18.864  0.00  0.00    +0.000 A 
ATOM     10  O   UNL     1       5.231   3.607  19.723  0.00  0.00    +0.000 OA
ENDROOT
BRANCH   8  11
ATOM     11  C   UNL     1       6.646   4.768  14.416  0.00  0.00    +0.000 A 
ATOM     12  C   UNL     1       7.597   5.215  13.489  0.00  0.00    +0.000 A 
ATOM     13  C   UNL     1       7.609   4.686  12.193  0.00  0.00    +0.000 A 
ATOM     14  C   UNL     1       6.682   3.713  11.819  0.00  0.00    +0.000 A 
ATOM     15  C   UNL     1       5.695   3.316  12.717  0.00  0.00    +0.000 A 
ATOM     16  C   UNL     1       5.662   3.857  14.002  0.00  0.00    +0.000 A 
ENDBRANCH   8  11
BRANCH   1  17
ATOM     17  C   UNL     1       2.899   5.191  19.590  0.00  0.00    +0.000 C 
BRANCH  17  20
ATOM     18  N   UNL     1       1.257   8.342  20.404  0.00  0.00    +0.000 N 
ATOM     19  C   UNL     1       1.416   7.000  20.689  0.00  0.00    +0.000 A 
ATOM     20  C   UNL     1       2.264   6.526  19.717  0.00  0.00    +0.000 A 
ATOM     21  N   UNL     1       2.504   7.507  18.806  0.00  0.00    +0.000 NA
ATOM     22  N   UNL     1       1.860   8.596  19.208  0.00  0.00    +0.000 NA
BRANCH  18  28
ATOM     23  C   UNL     1       0.548  10.715  20.701  0.00  0.00    +0.000 A 
ATOM     24  C   UNL     1      -0.141  11.656  21.485  0.00  0.00    +0.000 A 
ATOM     25  C   UNL     1      -0.718  11.299  22.703  0.00  0.00    +0.000 A 
ATOM     26  C   UNL     1      -0.634   9.987  23.148  0.00  0.00    +0.000 A 
ATOM     27  C   UNL     1       0.024   9.033  22.373  0.00  0.00    +0.000 A 
ATOM     28  C   UNL     1       0.624   9.383  21.145  0.00  0.00    +0.000 A 
BRANCH  23  30
ATOM     29  C   UNL     1       1.095  12.449  19.172  0.00  0.00    +0.000 C 
ATOM     30  O   UNL     1       1.065  11.058  19.481  0.00  0.00    +0.000 OA
ENDBRANCH  23  30
ENDBRANCH  18  28
ENDBRANCH  17  20
ENDBRANCH   1  17
TORSDOF 5
ENDMDL
MODEL 3
REMARK VINA RESULT:      -8.6      1.598      2.047
REMARK  Name = 
REMARK  6 active torsions:
REMARK  status: ('A' for Active; 'I' for Inactive)
REMARK    1  A    between atoms: C_1  and  O_2
REMARK    2  A    between atoms: O_2  and  C_3
REMARK    3  A    between atoms: C_8  and  N_9
REMARK    4  A    between atoms: C_11  and  C_12
REMARK    5  A    between atoms: C_12  and  N_13
REMARK    6  A    between atoms: N_20  and  C_21
REMARK                            x       y       z     vdW  Elec       q    Type
REMARK                         _______ _______ _______ _____ _____    ______ ____
ROOT
ATOM      1  N   UNL     1       3.494   6.017  18.502  0.00  0.00    +0.000 N 
ATOM      2  C   UNL     1       3.635   6.822  17.373  0.00  0.00    +0.000 A 
ATOM      3  N   UNL     1       4.566   6.710  16.476  0.00  0.00    +0.000 NA
ATOM      4  C   UNL     1       5.525   5.817  16.824  0.00  0.00    +0.000 A 
ATOM      5  C   UNL     1       5.609   5.117  18.003  0.00  0.00    +0.000 A 
ATOM      6  C   UNL     1       6.948   4.734  18.079  0.00  0.00    +0.000 A 
ATOM      7  N   UNL     1       7.588   4.918  16.915  0.00  0.00    +0.000 NA
ATOM      8  N   UNL     1       6.595   5.352  16.070  0.00  0.00    +0.000 N 
ATOM      9  C   UNL     1       4.447   5.059  18.863  0.00  0.00    +0.000 A 
ATOM     10  O   UNL     1       4.309   4.216  19.733  0.00  0.00    +0.000 OA
ENDROOT
BRANCH   8  11
ATOM     11  C   UNL     1       6.605   5.038  14.677  0.00  0.00    +0.000 A 
ATOM     12  C   UNL     1       7.622   5.530  13.846  0.00  0.00    +0.000 A 
ATOM     13  C   UNL     1       7.791   4.999  12.562  0.00  0.00    +0.000 A 
ATOM     14  C   UNL     1       6.955   3.979  12.105  0.00  0.00    +0.000 A 
ATOM     15  C   UNL     1       5.903   3.535  12.902  0.00  0.00    +0.000 A 
ATOM     16  C   UNL     1       5.715   4.077  14.174  0.00  0.00    +0.000 A 
ENDBRANCH   8  11
BRANCH   1  17
ATOM     17  C   UNL     1       2.265   6.104  19.260  0.00  0.00    +0.000 C 
BRANCH  17  20
ATOM     18  N   UNL     1       1.350   9.631  19.362  0.00  0.00    +0.000 N 
ATOM     19  C   UNL     1       1.786   8.559  18.609  0.00  0.00    +0.000 A 
ATOM     20  C   UNL     1       1.948   7.532  19.508  0.00  0.00    +0.000 A 
ATOM     21  N   UNL     1       1.746   7.998  20.770  0.00  0.00    +0.000 NA
ATOM     22  N   UNL     1       1.420   9.281  20.678  0.00  0.00    +0.000 NA
BRANCH  18  28
ATOM     23  C   UNL     1      -0.481  11.175  18.663  0.00  0.00    +0.000 A 
ATOM     24  C   UNL     1      -0.861  12.485  18.330  0.00  0.00    +0.000 A 
ATOM     25  C   UNL     1       0.075  13.516  18.263  0.00  0.00    +0.000 A 
ATOM     26  C   UNL     1       1.408  13.257  18.551  0.00  0.00    +0.000 A 
ATOM     27  C   UNL     1       1.802  11.969  18.907  0.00  0.00    +0.000 A 
ATOM     28  C   UNL     1       0.867  10.914  18.966  0.00  0.00    +0.000 A 
BRANCH  23  30
ATOM     29  C   UNL     1      -2.127   9.834  17.598  0.00  0.00    +0.000 C 
ATOM     30  O   UNL     1      -1.412  10.179  18.782  0.00  0.00    +0.000 OA
ENDBRANCH  23  30
ENDBRANCH  18  28
ENDBRANCH  17  20
ENDBRANCH   1  17
TORSDOF 5
ENDMDL
MODEL 4
REMARK VINA RESULT:      -8.5      1.182      2.108
REMARK  Name = 
REMARK  6 active torsions:
REMARK  status: ('A' for Active; 'I' for Inactive)
REMARK    1  A    between atoms: C_1  and  O_2
REMARK    2  A    between atoms: O_2  and  C_3
REMARK    3  A    between atoms: C_8  and  N_9
REMARK    4  A    between atoms: C_11  and  C_12
REMARK    5  A    between atoms: C_12  and  N_13
REMARK    6  A    between atoms: N_20  and  C_21
REMARK                            x       y       z     vdW  Elec       q    Type
REMARK                         _______ _______ _______ _____ _____    ______ ____
ROOT
ATOM      1  N   UNL     1       4.216   4.568  18.672  0.00  0.00    +0.000 N 
ATOM      2  C   UNL     1       3.651   4.736  17.410  0.00  0.00    +0.000 A 
ATOM      3  N   UNL     1       4.301   5.018  16.322  0.00  0.00    +0.000 NA
ATOM      4  C   UNL     1       5.605   5.310  16.551  0.00  0.00    +0.000 A 
ATOM      5  C   UNL     1       6.229   5.384  17.771  0.00  0.00    +0.000 A 
ATOM      6  C   UNL     1       7.367   6.153  17.527  0.00  0.00    +0.000 A 
ATOM      7  N   UNL     1       7.598   6.302  16.215  0.00  0.00    +0.000 NA
ATOM      8  N   UNL     1       6.620   5.535  15.629  0.00  0.00    +0.000 N 
ATOM      9  C   UNL     1       5.567   4.822  18.929  0.00  0.00    +0.000 A 
ATOM     10  O   UNL     1       6.157   4.540  19.957  0.00  0.00    +0.000 OA
ENDROOT
BRANCH   8  11
ATOM     11  C   UNL     1       6.839   4.853  14.394  0.00  0.00    +0.000 A 
ATOM     12  C   UNL     1       6.030   3.768  14.030  0.00  0.00    +0.000 A 
ATOM     13  C   UNL     1       6.057   3.290  12.715  0.00  0.00    +0.000 A 
ATOM     14  C   UNL     1       6.883   3.889  11.762  0.00  0.00    +0.000 A 
ATOM     15  C   UNL     1       7.736   4.922  12.138  0.00  0.00    +0.000 A 
ATOM     16  C   UNL     1       7.731   5.389  13.453  0.00  0.00    +0.000 A 
ENDBRANCH   8  11
BRANCH   1  17
ATOM     17  C   UNL     1       3.396   4.006  19.724  0.00  0.00    +0.000 C 
BRANCH  17  20
ATOM     18  N   UNL     1       1.451   6.912  20.755  0.00  0.00    +0.000 N 
ATOM     19  C   UNL     1       2.691   6.383  20.454  0.00  0.00    +0.000 A 
ATOM     20  C   UNL     1       2.463   5.048  20.221  0.00  0.00    +0.000 A 
ATOM     21  N   UNL     1       1.165   4.754  20.497  0.00  0.00    +0.000 NA
ATOM     22  N   UNL     1       0.564   5.881  20.856  0.00  0.00    +0.000 NA
BRANCH  18  28
ATOM     23  C   UNL     1       1.090   9.232  19.911  0.00  0.00    +0.000 A 
ATOM     24  C   UNL     1       0.606  10.524  20.173  0.00  0.00    +0.000 A 
ATOM     25  C   UNL     1       0.105  10.870  21.427  0.00  0.00    +0.000 A 
ATOM     26  C   UNL     1       0.058   9.919  22.437  0.00  0.00    +0.000 A 
ATOM     27  C   UNL     1       0.510   8.623  22.191  0.00  0.00    +0.000 A 
ATOM     28  C   UNL     1       1.032   8.264  20.930  0.00  0.00    +0.000 A 
BRANCH  23  30
ATOM     29  C   UNL     1       1.934   9.951  17.811  0.00  0.00    +0.000 C 
ATOM     30  O   UNL     1       1.529   8.883  18.663  0.00  0.00    +0.000 OA
ENDBRANCH  23  30
ENDBRANCH  18  28
ENDBRANCH  17  20
ENDBRANCH   1  17
TORSDOF 5
ENDMDL
MODEL 5
REMARK VINA RESULT:      -8.4      1.135      1.334
REMARK  Name = 
REMARK  6 active torsions:
REMARK  status: ('A' for Active; 'I' for Inactive)
REMARK    1  A    between atoms: C_1  and  O_2
REMARK    2  A    between atoms: O_2  and  C_3
REMARK    3  A    between atoms: C_8  and  N_9
REMARK    4  A    between atoms: C_11  and  C_12
REMARK    5  A    between atoms: C_12  and  N_13
REMARK    6  A    between atoms: N_20  and  C_21
REMARK                            x       y       z     vdW  Elec       q    Type
REMARK                         _______ _______ _______ _____ _____    ______ ____
ROOT
ATOM      1  N   UNL     1       4.126   5.802  18.581  0.00  0.00    +0.000 N 
ATOM      2  C   UNL     1       4.108   6.599  17.438  0.00  0.00    +0.000 A 
ATOM      3  N   UNL     1       4.910   6.485  16.424  0.00  0.00    +0.000 NA
ATOM      4  C   UNL     1       5.912   5.598  16.645  0.00  0.00    +0.000 A 
ATOM      5  C   UNL     1       6.158   4.908  17.805  0.00  0.00    +0.000 A 
ATOM      6  C   UNL     1       7.497   4.531  17.702  0.00  0.00    +0.000 A 
ATOM      7  N   UNL     1       7.973   4.709  16.461  0.00  0.00    +0.000 NA
ATOM      8  N   UNL     1       6.873   5.133  15.755  0.00  0.00    +0.000 N 
ATOM      9  C   UNL     1       5.124   4.851  18.816  0.00  0.00    +0.000 A 
ATOM     10  O   UNL     1       5.109   4.014  19.702  0.00  0.00    +0.000 OA
ENDROOT
BRANCH   8  11
ATOM     11  C   UNL     1       6.695   4.809  14.376  0.00  0.00    +0.000 A 
ATOM     12  C   UNL     1       7.619   5.253  13.419  0.00  0.00    +0.000 A 
ATOM     13  C   UNL     1       7.604   4.706  12.131  0.00  0.00    +0.000 A 
ATOM     14  C   UNL     1       6.678   3.718  11.794  0.00  0.00    +0.000 A 
ATOM     15  C   UNL     1       5.718   3.324  12.721  0.00  0.00    +0.000 A 
ATOM     16  C   UNL     1       5.711   3.882  14.000  0.00  0.00    +0.000 A 
ENDBRANCH   8  11
BRANCH   1  17
ATOM     17  C   UNL     1       3.010   5.889  19.498  0.00  0.00    +0.000 C 
BRANCH  17  20
ATOM     18  N   UNL     1       1.362   9.140  19.459  0.00  0.00    +0.000 N 
ATOM     19  C   UNL     1       1.755   8.039  20.194  0.00  0.00    +0.000 A 
ATOM     20  C   UNL     1       2.299   7.173  19.276  0.00  0.00    +0.000 A 
ATOM     21  N   UNL     1       2.125   7.671  18.022  0.00  0.00    +0.000 NA
ATOM     22  N   UNL     1       1.522   8.848  18.137  0.00  0.00    +0.000 NA
BRANCH  18  28
ATOM     23  C   UNL     1       0.050  10.604  20.996  0.00  0.00    +0.000 A 
ATOM     24  C   UNL     1      -0.327  11.909  21.353  0.00  0.00    +0.000 A 
ATOM     25  C   UNL     1       0.079  13.011  20.602  0.00  0.00    +0.000 A 
ATOM     26  C   UNL     1       0.891  12.827  19.491  0.00  0.00    +0.000 A 
ATOM     27  C   UNL     1       1.297  11.542  19.134  0.00  0.00    +0.000 A 
ATOM     28  C   UNL     1       0.882  10.417  19.878  0.00  0.00    +0.000 A 
BRANCH  23  30
ATOM     29  C   UNL     1      -0.229   9.712  23.180  0.00  0.00    +0.000 C 
ATOM     30  O   UNL     1      -0.305   9.532  21.768  0.00  0.00    +0.000 OA
ENDBRANCH  23  30
ENDBRANCH  18  28
ENDBRANCH  17  20
ENDBRANCH   1  17
TORSDOF 5
ENDMDL
MODEL 6
REMARK VINA RESULT:      -8.4      1.573      1.974
REMARK  Name = 
REMARK  6 active torsions:
REMARK  status: ('A' for Active; 'I' for Inactive)
REMARK    1  A    between atoms: C_1  and  O_2
REMARK    2  A    between atoms: O_2  and  C_3
REMARK    3  A    between atoms: C_8  and  N_9
REMARK    4  A    between atoms: C_11  and  C_12
REMARK    5  A    between atoms: C_12  and  N_13
REMARK    6  A    between atoms: N_20  and  C_21
REMARK                            x       y       z     vdW  Elec       q    Type
REMARK                         _______ _______ _______ _____ _____    ______ ____
ROOT
ATOM      1  N   UNL     1       3.937   6.298  18.441  0.00  0.00    +0.000 N 
ATOM      2  C   UNL     1       4.130   7.074  17.300  0.00  0.00    +0.000 A 
ATOM      3  N   UNL     1       4.998   6.838  16.363  0.00  0.00    +0.000 NA
ATOM      4  C   UNL     1       5.847   5.828  16.676  0.00  0.00    +0.000 A 
ATOM      5  C   UNL     1       5.892   5.128  17.856  0.00  0.00    +0.000 A 
ATOM      6  C   UNL     1       7.172   4.573  17.876  0.00  0.00    +0.000 A 
ATOM      7  N   UNL     1       7.777   4.668  16.683  0.00  0.00    +0.000 NA
ATOM      8  N   UNL     1       6.811   5.225  15.880  0.00  0.00    +0.000 N 
ATOM      9  C   UNL     1       4.772   5.225  18.768  0.00  0.00    +0.000 A 
ATOM     10  O   UNL     1       4.565   4.411  19.651  0.00  0.00    +0.000 OA
ENDROOT
BRANCH   8  11
ATOM     11  C   UNL     1       6.717   4.907  14.490  0.00  0.00    +0.000 A 
ATOM     12  C   UNL     1       7.668   5.398  13.585  0.00  0.00    +0.000 A 
ATOM     13  C   UNL     1       7.741   4.864  12.293  0.00  0.00    +0.000 A 
ATOM     14  C   UNL     1       6.874   3.842  11.903  0.00  0.00    +0.000 A 
ATOM     15  C   UNL     1       5.886   3.399  12.777  0.00  0.00    +0.000 A 
ATOM     16  C   UNL     1       5.793   3.945  14.058  0.00  0.00    +0.000 A 
ENDBRANCH   8  11
BRANCH   1  17
ATOM     17  C   UNL     1       2.765   6.548  19.252  0.00  0.00    +0.000 C 
BRANCH  17  20
ATOM     18  N   UNL     1       1.522   9.927  18.685  0.00  0.00    +0.000 N 
ATOM     19  C   UNL     1       1.972   8.985  19.589  0.00  0.00    +0.000 A 
ATOM     20  C   UNL     1       2.163   7.843  18.848  0.00  0.00    +0.000 A 
ATOM     21  N   UNL     1       1.724   8.047  17.578  0.00  0.00    +0.000 NA
ATOM     22  N   UNL     1       1.301   9.302  17.494  0.00  0.00    +0.000 NA
BRANCH  18  28
ATOM     23  C   UNL     1       0.208  11.879  19.517  0.00  0.00    +0.000 A 
ATOM     24  C   UNL     1       0.115  13.274  19.646  0.00  0.00    +0.000 A 
ATOM     25  C   UNL     1       1.068  14.119  19.081  0.00  0.00    +0.000 A 
ATOM     26  C   UNL     1       2.147  13.579  18.394  0.00  0.00    +0.000 A 
ATOM     27  C   UNL     1       2.272  12.196  18.275  0.00  0.00    +0.000 A 
ATOM     28  C   UNL     1       1.306  11.330  18.831  0.00  0.00    +0.000 A 
BRANCH  23  30
ATOM     29  C   UNL     1      -0.609  10.937  21.539  0.00  0.00    +0.000 C 
ATOM     30  O   UNL     1      -0.700  11.052  20.121  0.00  0.00    +0.000 OA
ENDBRANCH  23  30
ENDBRANCH  18  28
ENDBRANCH  17  20
ENDBRANCH   1  17
TORSDOF 5
ENDMDL
MODEL 7
REMARK VINA RESULT:      -8.4      1.628      2.219
REMARK  Name = 
REMARK  6 active torsions:
REMARK  status: ('A' for Active; 'I' for Inactive)
REMARK    1  A    between atoms: C_1  and  O_2
REMARK    2  A    between atoms: O_2  and  C_3
REMARK    3  A    between atoms: C_8  and  N_9
REMARK    4  A    between atoms: C_11  and  C_12
REMARK    5  A    between atoms: C_12  and  N_13
REMARK    6  A    between atoms: N_20  and  C_21
REMARK                            x       y       z     vdW  Elec       q    Type
REMARK                         _______ _______ _______ _____ _____    ______ ____
ROOT
ATOM      1  N   UNL     1       5.381   4.312  17.431  0.00  0.00    +0.000 N 
ATOM      2  C   UNL     1       4.430   4.266  16.414  0.00  0.00    +0.000 A 
ATOM      3  N   UNL     1       4.682   4.301  15.141  0.00  0.00    +0.000 NA
ATOM      4  C   UNL     1       5.984   4.562  14.870  0.00  0.00    +0.000 A 
ATOM      5  C   UNL     1       6.974   4.835  15.781  0.00  0.00    +0.000 A 
ATOM      6  C   UNL     1       7.958   5.482  15.034  0.00  0.00    +0.000 A 
ATOM      7  N   UNL     1       7.742   5.366  13.715  0.00  0.00    +0.000 NA
ATOM      8  N   UNL     1       6.636   4.554  13.644  0.00  0.00    +0.000 N 
ATOM      9  C   UNL     1       6.738   4.539  17.178  0.00  0.00    +0.000 A 
ATOM     10  O   UNL     1       7.638   4.428  17.993  0.00  0.00    +0.000 OA
ENDROOT
BRANCH   8  11
ATOM     11  C   UNL     1       6.446   3.639  12.564  0.00  0.00    +0.000 A 
ATOM     12  C   UNL     1       7.542   2.978  11.993  0.00  0.00    +0.000 A 
ATOM     13  C   UNL     1       7.333   1.885  11.144  0.00  0.00    +0.000 A 
ATOM     14  C   UNL     1       6.037   1.447  10.865  0.00  0.00    +0.000 A 
ATOM     15  C   UNL     1       4.945   2.142  11.377  0.00  0.00    +0.000 A 
ATOM     16  C   UNL     1       5.147   3.247  12.205  0.00  0.00    +0.000 A 
ENDBRANCH   8  11
BRANCH   1  17
ATOM     17  C   UNL     1       4.961   4.004  18.781  0.00  0.00    +0.000 C 
BRANCH  17  20
ATOM     18  N   UNL     1       2.637   6.736  19.435  0.00  0.00    +0.000 N 
ATOM     19  C   UNL     1       3.846   6.333  18.901  0.00  0.00    +0.000 A 
ATOM     20  C   UNL     1       3.946   4.998  19.211  0.00  0.00    +0.000 A 
ATOM     21  N   UNL     1       2.906   4.638  20.010  0.00  0.00    +0.000 NA
ATOM     22  N   UNL     1       2.135   5.706  20.173  0.00  0.00    +0.000 NA
BRANCH  18  28
ATOM     23  C   UNL     1       1.338   8.643  20.381  0.00  0.00    +0.000 A 
ATOM     24  C   UNL     1       0.695   9.870  20.147  0.00  0.00    +0.000 A 
ATOM     25  C   UNL     1       0.599  10.403  18.862  0.00  0.00    +0.000 A 
ATOM     26  C   UNL     1       1.165   9.726  17.791  0.00  0.00    +0.000 A 
ATOM     27  C   UNL     1       1.828   8.519  18.005  0.00  0.00    +0.000 A 
ATOM     28  C   UNL     1       1.921   7.962  19.299  0.00  0.00    +0.000 A 
BRANCH  23  30
ATOM     29  C   UNL     1       1.317   9.088  22.715  0.00  0.00    +0.000 C 
ATOM     30  O   UNL     1       1.478   8.153  21.651  0.00  0.00    +0.000 OA
ENDBRANCH  23  30
ENDBRANCH  18  28
ENDBRANCH  17  20
ENDBRANCH   1  17
TORSDOF 5
ENDMDL
MODEL 8
REMARK VINA RESULT:      -8.3      1.203      2.154
REMARK  Name = 
REMARK  6 active torsions:
REMARK  status: ('A' for Active; 'I' for Inactive)
REMARK    1  A    between atoms: C_1  and  O_2
REMARK    2  A    between atoms: O_2  and  C_3
REMARK    3  A    between atoms: C_8  and  N_9
REMARK    4  A    between atoms: C_11  and  C_12
REMARK    5  A    between atoms: C_12  and  N_13
REMARK    6  A    between atoms: N_20  and  C_21
REMARK                            x       y       z     vdW  Elec       q    Type
REMARK                         _______ _______ _______ _____ _____    ______ ____
ROOT
ATOM      1  N   UNL     1       4.029   5.125  18.661  0.00  0.00    +0.000 N 
ATOM      2  C   UNL     1       3.862   5.828  17.469  0.00  0.00    +0.000 A 
ATOM      3  N   UNL     1       4.688   5.826  16.468  0.00  0.00    +0.000 NA
ATOM      4  C   UNL     1       5.853   5.192  16.750  0.00  0.00    +0.000 A 
ATOM      5  C   UNL     1       6.220   4.644  17.954  0.00  0.00    +0.000 A 
ATOM      6  C   UNL     1       7.610   4.559  17.882  0.00  0.00    +0.000 A 
ATOM      7  N   UNL     1       8.060   4.758  16.634  0.00  0.00    +0.000 NA
ATOM      8  N   UNL     1       6.907   4.890  15.898  0.00  0.00    +0.000 N 
ATOM      9  C   UNL     1       5.203   4.428  18.961  0.00  0.00    +0.000 A 
ATOM     10  O   UNL     1       5.352   3.664  19.899  0.00  0.00    +0.000 OA
ENDROOT
BRANCH   8  11
ATOM     11  C   UNL     1       6.829   4.451  14.541  0.00  0.00    +0.000 A 
ATOM     12  C   UNL     1       5.782   3.616  14.125  0.00  0.00    +0.000 A 
ATOM     13  C   UNL     1       5.547   3.422  12.759  0.00  0.00    +0.000 A 
ATOM     14  C   UNL     1       6.347   4.057  11.808  0.00  0.00    +0.000 A 
ATOM     15  C   UNL     1       7.428   4.832  12.218  0.00  0.00    +0.000 A 
ATOM     16  C   UNL     1       7.682   5.011  13.578  0.00  0.00    +0.000 A 
ENDBRANCH   8  11
BRANCH   1  17
ATOM     17  C   UNL     1       2.903   5.027  19.565  0.00  0.00    +0.000 C 
BRANCH  17  20
ATOM     18  N   UNL     1       1.217   8.153  20.384  0.00  0.00    +0.000 N 
ATOM     19  C   UNL     1       1.326   6.793  20.600  0.00  0.00    +0.000 A 
ATOM     20  C   UNL     1       2.274   6.364  19.702  0.00  0.00    +0.000 A 
ATOM     21  N   UNL     1       2.628   7.394  18.888  0.00  0.00    +0.000 NA
ATOM     22  N   UNL     1       1.956   8.468  19.282  0.00  0.00    +0.000 NA
BRANCH  18  28
ATOM     23  C   UNL     1      -0.102  10.267  20.507  0.00  0.00    +0.000 A 
ATOM     24  C   UNL     1      -0.810  11.176  21.311  0.00  0.00    +0.000 A 
ATOM     25  C   UNL     1      -0.881  11.016  22.693  0.00  0.00    +0.000 A 
ATOM     26  C   UNL     1      -0.262   9.929  23.295  0.00  0.00    +0.000 A 
ATOM     27  C   UNL     1       0.425   9.002  22.512  0.00  0.00    +0.000 A 
ATOM     28  C   UNL     1       0.516   9.159  21.113  0.00  0.00    +0.000 A 
BRANCH  23  30
ATOM     29  C   UNL     1      -1.349  10.507  18.499  0.00  0.00    +0.000 C 
ATOM     30  O   UNL     1      -0.082  10.398  19.145  0.00  0.00    +0.000 OA
ENDBRANCH  23  30
ENDBRANCH  18  28
ENDBRANCH  17  20
ENDBRANCH   1  17
TORSDOF 5
ENDMDL
MODEL 9
REMARK VINA RESULT:      -8.3      1.849      2.433
REMARK  Name = 
REMARK  6 active torsions:
REMARK  status: ('A' for Active; 'I' for Inactive)
REMARK    1  A    between atoms: C_1  and  O_2
REMARK    2  A    between atoms: O_2  and  C_3
REMARK    3  A    between atoms: C_8  and  N_9
REMARK    4  A    between atoms: C_11  and  C_12
REMARK    5  A    between atoms: C_12  and  N_13
REMARK    6  A    between atoms: N_20  and  C_21
REMARK                            x       y       z     vdW  Elec       q    Type
REMARK                         _______ _______ _______ _____ _____    ______ ____
ROOT
ATOM      1  N   UNL     1       4.053   6.247  18.489  0.00  0.00    +0.000 N 
ATOM      2  C   UNL     1       4.177   7.012  17.331  0.00  0.00    +0.000 A 
ATOM      3  N   UNL     1       5.003   6.780  16.357  0.00  0.00    +0.000 NA
ATOM      4  C   UNL     1       5.885   5.791  16.641  0.00  0.00    +0.000 A 
ATOM      5  C   UNL     1       5.999   5.106  17.826  0.00  0.00    +0.000 A 
ATOM      6  C   UNL     1       7.289   4.575  17.791  0.00  0.00    +0.000 A 
ATOM      7  N   UNL     1       7.835   4.666  16.570  0.00  0.00    +0.000 NA
ATOM      8  N   UNL     1       6.822   5.196  15.806  0.00  0.00    +0.000 N 
ATOM      9  C   UNL     1       4.923   5.194  18.789  0.00  0.00    +0.000 A 
ATOM     10  O   UNL     1       4.773   4.387  19.690  0.00  0.00    +0.000 OA
ENDROOT
BRANCH   8  11
ATOM     11  C   UNL     1       6.668   4.859  14.427  0.00  0.00    +0.000 A 
ATOM     12  C   UNL     1       7.647   5.228  13.494  0.00  0.00    +0.000 A 
ATOM     13  C   UNL     1       7.638   4.661  12.214  0.00  0.00    +0.000 A 
ATOM     14  C   UNL     1       6.663   3.726  11.863  0.00  0.00    +0.000 A 
ATOM     15  C   UNL     1       5.651   3.408  12.765  0.00  0.00    +0.000 A 
ATOM     16  C   UNL     1       5.640   3.989  14.034  0.00  0.00    +0.000 A 
ENDBRANCH   8  11
BRANCH   1  17
ATOM     17  C   UNL     1       2.916   6.485  19.353  0.00  0.00    +0.000 C 
BRANCH  17  20
ATOM     18  N   UNL     1       1.183   9.636  18.753  0.00  0.00    +0.000 N 
ATOM     19  C   UNL     1       1.466   8.607  19.630  0.00  0.00    +0.000 A 
ATOM     20  C   UNL     1       2.214   7.713  18.902  0.00  0.00    +0.000 A 
ATOM     21  N   UNL     1       2.271   8.118  17.605  0.00  0.00    +0.000 NA
ATOM     22  N   UNL     1       1.612   9.267  17.513  0.00  0.00    +0.000 NA
BRANCH  18  28
ATOM     23  C   UNL     1       1.249  12.130  18.773  0.00  0.00    +0.000 A 
ATOM     24  C   UNL     1       0.549  13.331  18.973  0.00  0.00    +0.000 A 
ATOM     25  C   UNL     1      -0.779  13.332  19.398  0.00  0.00    +0.000 A 
ATOM     26  C   UNL     1      -1.438  12.129  19.609  0.00  0.00    +0.000 A 
ATOM     27  C   UNL     1      -0.768  10.925  19.392  0.00  0.00    +0.000 A 
ATOM     28  C   UNL     1       0.580  10.909  18.975  0.00  0.00    +0.000 A 
BRANCH  23  30
ATOM     29  C   UNL     1       3.185  13.400  18.243  0.00  0.00    +0.000 C 
ATOM     30  O   UNL     1       2.534  12.133  18.303  0.00  0.00    +0.000 OA
ENDBRANCH  23  30
ENDBRANCH  18  28
ENDBRANCH  17  20
ENDBRANCH   1  17
TORSDOF 5
ENDMDL
