MODEL 1
REMARK VINA RESULT:      -7.9      0.000      0.000
REMARK  Name = 
REMARK  5 active torsions:
REMARK  status: ('A' for Active; 'I' for Inactive)
REMARK    1  A    between atoms: C_1  and  C_2
REMARK    2  A    between atoms: C_3  and  C_4
REMARK    3  A    between atoms: C_4  and  C_6
REMARK    4  A    between atoms: C_23  and  C_24
REMARK    5  A    between atoms: C_24  and  N_25
REMARK                            x       y       z     vdW  Elec       q    Type
REMARK                         _______ _______ _______ _____ _____    ______ ____
ROOT
ATOM      1  C   UNL     1      -1.588  14.685  20.180  0.00  0.00    +0.000 C 
ATOM      2  C   UNL     1      -2.009  13.253  20.109  0.00  0.00    +0.000 C 
ATOM      3  C   UNL     1      -1.198  12.250  19.670  0.00  0.00    +0.000 C 
ATOM      4  C   UNL     1      -2.011  11.197  18.946  0.00  0.00    +0.000 C 
ATOM      5  C   UNL     1      -1.707  10.665  17.564  0.00  0.00    +0.000 C 
ATOM      6  C   UNL     1      -2.763  10.270  16.804  0.00  0.00    +0.000 C 
ATOM      7  C   UNL     1      -4.152  10.381  17.307  0.00  0.00    +0.000 C 
ATOM      8  C   UNL     1      -4.427  11.286  18.271  0.00  0.00    +0.000 C 
ATOM      9  O   UNL     1      -5.667  11.603  18.780  0.00  0.00    +0.000 OA
ATOM     10  C   UNL     1      -5.690  12.977  19.261  0.00  0.00    +0.000 C 
ATOM     11  C   UNL     1      -4.654  13.277  20.389  0.00  0.00    +0.000 C 
ATOM     12  N   UNL     1      -3.333  12.870  19.896  0.00  0.00    +0.000 N 
ATOM     13  C   UNL     1      -3.257  12.072  18.700  0.00  0.00    +0.000 C 
ENDROOT
BRANCH   3  14
ATOM     14  C   UNL     1       0.194  11.982  20.112  0.00  0.00    +0.000 C 
ATOM     15  O   UNL     1       1.038  12.853  19.941  0.00  0.00    +0.000 OA
BRANCH  14  16
ATOM     16  C   UNL     1       0.531  10.578  20.605  0.00  0.00    +0.000 A 
ATOM     17  C   UNL     1       0.132  10.197  21.902  0.00  0.00    +0.000 A 
ATOM     18  C   UNL     1       0.487   8.966  22.446  0.00  0.00    +0.000 A 
ATOM     19  C   UNL     1       1.195   8.056  21.677  0.00  0.00    +0.000 A 
ATOM     20  C   UNL     1       1.522   8.350  20.349  0.00  0.00    +0.000 A 
ATOM     21  C   UNL     1       2.151   7.358  19.580  0.00  0.00    +0.000 A 
ATOM     22  C   UNL     1       2.448   7.570  18.240  0.00  0.00    +0.000 A 
ATOM     23  C   UNL     1       2.145   8.791  17.658  0.00  0.00    +0.000 A 
ATOM     24  C   UNL     1       1.545   9.795  18.420  0.00  0.00    +0.000 A 
ATOM     25  C   UNL     1       1.192   9.624  19.785  0.00  0.00    +0.000 A 
ENDBRANCH  14  16
ENDBRANCH   3  14
BRANCH  11  26
ATOM     26  C   UNL     1      -5.042  12.538  21.735  0.00  0.00    +0.000 C 
BRANCH  26  27
ATOM     27  N   UNL     1      -4.892  13.314  22.998  0.00  0.00    +0.000 NA
ATOM     28  C   UNL     1      -5.333  14.729  22.884  0.00  0.00    +0.000 C 
ATOM     29  C   UNL     1      -6.849  14.978  23.043  0.00  0.00    +0.000 C 
ATOM     30  O   UNL     1      -7.397  14.329  24.194  0.00  0.00    +0.000 OA
ATOM     31  C   UNL     1      -7.085  12.934  24.180  0.00  0.00    +0.000 C 
ATOM     32  C   UNL     1      -5.565  12.727  24.173  0.00  0.00    +0.000 C 
ENDBRANCH  26  27
ENDBRANCH  11  26
TORSDOF 4
ENDMDL
MODEL 2
REMARK VINA RESULT:      -7.7      1.033      1.239
REMARK  Name = 
REMARK  5 active torsions:
REMARK  status: ('A' for Active; 'I' for Inactive)
REMARK    1  A    between atoms: C_1  and  C_2
REMARK    2  A    between atoms: C_3  and  C_4
REMARK    3  A    between atoms: C_4  and  C_6
REMARK    4  A    between atoms: C_23  and  C_24
REMARK    5  A    between atoms: C_24  and  N_25
REMARK                            x       y       z     vdW  Elec       q    Type
REMARK                         _______ _______ _______ _____ _____    ______ ____
ROOT
ATOM      1  C   UNL     1      -0.546  14.187  19.265  0.00  0.00    +0.000 C 
ATOM      2  C   UNL     1      -1.182  12.844  19.416  0.00  0.00    +0.000 C 
ATOM      3  C   UNL     1      -0.646  11.696  18.911  0.00  0.00    +0.000 C 
ATOM      4  C   UNL     1      -1.747  10.753  18.472  0.00  0.00    +0.000 C 
ATOM      5  C   UNL     1      -1.837  10.099  17.112  0.00  0.00    +0.000 C 
ATOM      6  C   UNL     1      -3.081   9.842  16.628  0.00  0.00    +0.000 C 
ATOM      7  C   UNL     1      -4.293  10.210  17.396  0.00  0.00    +0.000 C 
ATOM      8  C   UNL     1      -4.211  11.203  18.309  0.00  0.00    +0.000 C 
ATOM      9  O   UNL     1      -5.247  11.749  19.034  0.00  0.00    +0.000 OA
ATOM     10  C   UNL     1      -4.958  13.134  19.380  0.00  0.00    +0.000 C 
ATOM     11  C   UNL     1      -3.666  13.322  20.235  0.00  0.00    +0.000 C 
ATOM     12  N   UNL     1      -2.562  12.674  19.518  0.00  0.00    +0.000 N 
ATOM     13  C   UNL     1      -2.871  11.807  18.411  0.00  0.00    +0.000 C 
ENDROOT
BRANCH   3  14
ATOM     14  C   UNL     1       0.752  11.227  19.077  0.00  0.00    +0.000 C 
ATOM     15  O   UNL     1       1.647  11.847  18.513  0.00  0.00    +0.000 OA
BRANCH  14  16
ATOM     16  C   UNL     1       0.984   9.906  19.805  0.00  0.00    +0.000 A 
ATOM     17  C   UNL     1       0.419   9.725  21.084  0.00  0.00    +0.000 A 
ATOM     18  C   UNL     1       0.666   8.583  21.840  0.00  0.00    +0.000 A 
ATOM     19  C   UNL     1       1.433   7.561  21.304  0.00  0.00    +0.000 A 
ATOM     20  C   UNL     1       1.927   7.652  19.998  0.00  0.00    +0.000 A 
ATOM     21  C   UNL     1       2.613   6.549  19.464  0.00  0.00    +0.000 A 
ATOM     22  C   UNL     1       3.076   6.559  18.155  0.00  0.00    +0.000 A 
ATOM     23  C   UNL     1       2.885   7.684  17.370  0.00  0.00    +0.000 A 
ATOM     24  C   UNL     1       2.228   8.798  17.898  0.00  0.00    +0.000 A 
ATOM     25  C   UNL     1       1.708   8.834  19.220  0.00  0.00    +0.000 A 
ENDBRANCH  14  16
ENDBRANCH   3  14
BRANCH  11  26
ATOM     26  C   UNL     1      -3.855  12.737  21.696  0.00  0.00    +0.000 C 
BRANCH  26  27
ATOM     27  N   UNL     1      -4.350  13.675  22.740  0.00  0.00    +0.000 NA
ATOM     28  C   UNL     1      -5.829  13.828  22.751  0.00  0.00    +0.000 C 
ATOM     29  C   UNL     1      -6.614  12.740  23.516  0.00  0.00    +0.000 C 
ATOM     30  O   UNL     1      -6.083  12.491  24.821  0.00  0.00    +0.000 OA
ATOM     31  C   UNL     1      -4.688  12.190  24.747  0.00  0.00    +0.000 C 
ATOM     32  C   UNL     1      -3.922  13.359  24.116  0.00  0.00    +0.000 C 
ENDBRANCH  26  27
ENDBRANCH  11  26
TORSDOF 4
ENDMDL
MODEL 3
REMARK VINA RESULT:      -7.7      2.380      6.874
REMARK  Name = 
REMARK  5 active torsions:
REMARK  status: ('A' for Active; 'I' for Inactive)
REMARK    1  A    between atoms: C_1  and  C_2
REMARK    2  A    between atoms: C_3  and  C_4
REMARK    3  A    between atoms: C_4  and  C_6
REMARK    4  A    between atoms: C_23  and  C_24
REMARK    5  A    between atoms: C_24  and  N_25
REMARK                            x       y       z     vdW  Elec       q    Type
REMARK                         _______ _______ _______ _____ _____    ______ ____
ROOT
ATOM      1  C   UNL     1       0.410  14.577  21.259  0.00  0.00    +0.000 C 
ATOM      2  C   UNL     1      -0.471  13.371  21.247  0.00  0.00    +0.000 C 
ATOM      3  C   UNL     1      -1.076  12.869  22.361  0.00  0.00    +0.000 C 
ATOM      4  C   UNL     1      -1.165  11.359  22.274  0.00  0.00    +0.000 C 
ATOM      5  C   UNL     1      -0.695  10.399  23.343  0.00  0.00    +0.000 C 
ATOM      6  C   UNL     1      -0.236   9.187  22.932  0.00  0.00    +0.000 C 
ATOM      7  C   UNL     1      -0.182   8.837  21.493  0.00  0.00    +0.000 C 
ATOM      8  C   UNL     1      -0.115   9.831  20.581  0.00  0.00    +0.000 C 
ATOM      9  O   UNL     1       0.048   9.697  19.220  0.00  0.00    +0.000 OA
ATOM     10  C   UNL     1       0.715  10.867  18.665  0.00  0.00    +0.000 C 
ATOM     11  C   UNL     1      -0.050  12.208  18.893  0.00  0.00    +0.000 C 
ATOM     12  N   UNL     1      -0.308  12.331  20.332  0.00  0.00    +0.000 N 
ATOM     13  C   UNL     1      -0.100  11.181  21.173  0.00  0.00    +0.000 C 
ENDROOT
BRANCH   3  14
ATOM     14  C   UNL     1      -1.871  13.633  23.355  0.00  0.00    +0.000 C 
ATOM     15  O   UNL     1      -1.273  14.324  24.172  0.00  0.00    +0.000 OA
BRANCH  14  16
ATOM     16  C   UNL     1      -3.376  13.390  23.409  0.00  0.00    +0.000 A 
ATOM     17  C   UNL     1      -3.903  12.618  24.465  0.00  0.00    +0.000 A 
ATOM     18  C   UNL     1      -5.252  12.282  24.525  0.00  0.00    +0.000 A 
ATOM     19  C   UNL     1      -6.122  12.769  23.561  0.00  0.00    +0.000 A 
ATOM     20  C   UNL     1      -5.661  13.624  22.554  0.00  0.00    +0.000 A 
ATOM     21  C   UNL     1      -6.597  14.170  21.661  0.00  0.00    +0.000 A 
ATOM     22  C   UNL     1      -6.208  15.070  20.677  0.00  0.00    +0.000 A 
ATOM     23  C   UNL     1      -4.871  15.413  20.554  0.00  0.00    +0.000 A 
ATOM     24  C   UNL     1      -3.927  14.855  21.418  0.00  0.00    +0.000 A 
ATOM     25  C   UNL     1      -4.270  13.953  22.461  0.00  0.00    +0.000 A 
ENDBRANCH  14  16
ENDBRANCH   3  14
BRANCH  11  26
ATOM     26  C   UNL     1      -1.386  12.257  18.042  0.00  0.00    +0.000 C 
BRANCH  26  27
ATOM     27  N   UNL     1      -2.211  11.018  18.009  0.00  0.00    +0.000 NA
ATOM     28  C   UNL     1      -3.649  11.251  18.309  0.00  0.00    +0.000 C 
ATOM     29  C   UNL     1      -4.517  11.727  17.123  0.00  0.00    +0.000 C 
ATOM     30  O   UNL     1      -4.328  10.933  15.948  0.00  0.00    +0.000 OA
ATOM     31  C   UNL     1      -2.942  10.868  15.602  0.00  0.00    +0.000 C 
ATOM     32  C   UNL     1      -2.134  10.251  16.751  0.00  0.00    +0.000 C 
ENDBRANCH  26  27
ENDBRANCH  11  26
TORSDOF 4
ENDMDL
MODEL 4
REMARK VINA RESULT:      -7.6      2.207      7.544
REMARK  Name = 
REMARK  5 active torsions:
REMARK  status: ('A' for Active; 'I' for Inactive)
REMARK    1  A    between atoms: C_1  and  C_2
REMARK    2  A    between atoms: C_3  and  C_4
REMARK    3  A    between atoms: C_4  and  C_6
REMARK    4  A    between atoms: C_23  and  C_24
REMARK    5  A    between atoms: C_24  and  N_25
REMARK                            x       y       z     vdW  Elec       q    Type
REMARK                         _______ _______ _______ _____ _____    ______ ____
ROOT
ATOM      1  C   UNL     1      -1.605  14.735  21.616  0.00  0.00    +0.000 C 
ATOM      2  C   UNL     1      -1.722  13.272  21.337  0.00  0.00    +0.000 C 
ATOM      3  C   UNL     1      -2.207  12.370  22.237  0.00  0.00    +0.000 C 
ATOM      4  C   UNL     1      -1.493  11.042  22.084  0.00  0.00    +0.000 C 
ATOM      5  C   UNL     1      -0.838  10.275  23.210  0.00  0.00    +0.000 C 
ATOM      6  C   UNL     1       0.249   9.521  22.899  0.00  0.00    +0.000 C 
ATOM      7  C   UNL     1       0.778   9.475  21.515  0.00  0.00    +0.000 C 
ATOM      8  C   UNL     1       0.520  10.508  20.683  0.00  0.00    +0.000 C 
ATOM      9  O   UNL     1       1.013  10.688  19.409  0.00  0.00    +0.000 OA
ATOM     10  C   UNL     1       1.090  12.106  19.084  0.00  0.00    +0.000 C 
ATOM     11  C   UNL     1      -0.280  12.851  19.143  0.00  0.00    +0.000 C 
ATOM     12  N   UNL     1      -0.862  12.603  20.467  0.00  0.00    +0.000 N 
ATOM     13  C   UNL     1      -0.280  11.581  21.298  0.00  0.00    +0.000 C 
ENDROOT
BRANCH   3  14
ATOM     14  C   UNL     1      -3.469  12.483  23.009  0.00  0.00    +0.000 C 
ATOM     15  O   UNL     1      -3.556  11.886  24.076  0.00  0.00    +0.000 OA
BRANCH  14  16
ATOM     16  C   UNL     1      -4.647  13.201  22.357  0.00  0.00    +0.000 A 
ATOM     17  C   UNL     1      -5.329  12.568  21.298  0.00  0.00    +0.000 A 
ATOM     18  C   UNL     1      -6.351  13.203  20.600  0.00  0.00    +0.000 A 
ATOM     19  C   UNL     1      -6.762  14.469  20.990  0.00  0.00    +0.000 A 
ATOM     20  C   UNL     1      -6.185  15.092  22.101  0.00  0.00    +0.000 A 
ATOM     21  C   UNL     1      -6.703  16.329  22.517  0.00  0.00    +0.000 A 
ATOM     22  C   UNL     1      -6.209  16.970  23.647  0.00  0.00    +0.000 A 
ATOM     23  C   UNL     1      -5.169  16.394  24.359  0.00  0.00    +0.000 A 
ATOM     24  C   UNL     1      -4.627  15.178  23.939  0.00  0.00    +0.000 A 
ATOM     25  C   UNL     1      -5.110  14.465  22.809  0.00  0.00    +0.000 A 
ENDBRANCH  14  16
ENDBRANCH   3  14
BRANCH  11  26
ATOM     26  C   UNL     1      -1.239  12.381  17.972  0.00  0.00    +0.000 C 
BRANCH  26  27
ATOM     27  N   UNL     1      -2.109  11.203  18.244  0.00  0.00    +0.000 NA
ATOM     28  C   UNL     1      -3.560  11.525  18.262  0.00  0.00    +0.000 C 
ATOM     29  C   UNL     1      -4.256  11.580  16.885  0.00  0.00    +0.000 C 
ATOM     30  O   UNL     1      -3.962  10.439  16.072  0.00  0.00    +0.000 OA
ATOM     31  C   UNL     1      -2.549  10.260  15.949  0.00  0.00    +0.000 C 
ATOM     32  C   UNL     1      -1.914  10.060  17.331  0.00  0.00    +0.000 C 
ENDBRANCH  26  27
ENDBRANCH  11  26
TORSDOF 4
ENDMDL
MODEL 5
REMARK VINA RESULT:      -7.4      1.336      1.791
REMARK  Name = 
REMARK  5 active torsions:
REMARK  status: ('A' for Active; 'I' for Inactive)
REMARK    1  A    between atoms: C_1  and  C_2
REMARK    2  A    between atoms: C_3  and  C_4
REMARK    3  A    between atoms: C_4  and  C_6
REMARK    4  A    between atoms: C_23  and  C_24
REMARK    5  A    between atoms: C_24  and  N_25
REMARK                            x       y       z     vdW  Elec       q    Type
REMARK                         _______ _______ _______ _____ _____    ______ ____
ROOT
ATOM      1  C   UNL     1      -0.318  14.020  19.290  0.00  0.00    +0.000 C 
ATOM      2  C   UNL     1      -0.987  12.693  19.440  0.00  0.00    +0.000 C 
ATOM      3  C   UNL     1      -0.488  11.535  18.921  0.00  0.00    +0.000 C 
ATOM      4  C   UNL     1      -1.618  10.624  18.490  0.00  0.00    +0.000 C 
ATOM      5  C   UNL     1      -1.742   9.981  17.127  0.00  0.00    +0.000 C 
ATOM      6  C   UNL     1      -2.998   9.760  16.656  0.00  0.00    +0.000 C 
ATOM      7  C   UNL     1      -4.191  10.154  17.442  0.00  0.00    +0.000 C 
ATOM      8  C   UNL     1      -4.072  11.138  18.360  0.00  0.00    +0.000 C 
ATOM      9  O   UNL     1      -5.084  11.707  19.102  0.00  0.00    +0.000 OA
ATOM     10  C   UNL     1      -4.754  13.081  19.453  0.00  0.00    +0.000 C 
ATOM     11  C   UNL     1      -3.448  13.230  20.293  0.00  0.00    +0.000 C 
ATOM     12  N   UNL     1      -2.370  12.558  19.558  0.00  0.00    +0.000 N 
ATOM     13  C   UNL     1      -2.715  11.707  18.449  0.00  0.00    +0.000 C 
ENDROOT
BRANCH   3  14
ATOM     14  C   UNL     1       0.900  11.028  19.067  0.00  0.00    +0.000 C 
ATOM     15  O   UNL     1       1.809  11.658  18.537  0.00  0.00    +0.000 OA
BRANCH  14  16
ATOM     16  C   UNL     1       1.101   9.667  19.726  0.00  0.00    +0.000 A 
ATOM     17  C   UNL     1       0.495   9.420  20.975  0.00  0.00    +0.000 A 
ATOM     18  C   UNL     1       0.712   8.236  21.673  0.00  0.00    +0.000 A 
ATOM     19  C   UNL     1       1.490   7.239  21.105  0.00  0.00    +0.000 A 
ATOM     20  C   UNL     1       2.025   7.399  19.822  0.00  0.00    +0.000 A 
ATOM     21  C   UNL     1       2.721   6.323  19.249  0.00  0.00    +0.000 A 
ATOM     22  C   UNL     1       3.225   6.402  17.957  0.00  0.00    +0.000 A 
ATOM     23  C   UNL     1       3.064   7.571  17.231  0.00  0.00    +0.000 A 
ATOM     24  C   UNL     1       2.398   8.658  17.800  0.00  0.00    +0.000 A 
ATOM     25  C   UNL     1       1.837   8.624  19.105  0.00  0.00    +0.000 A 
ENDBRANCH  14  16
ENDBRANCH   3  14
BRANCH  11  26
ATOM     26  C   UNL     1      -3.634  12.639  21.752  0.00  0.00    +0.000 C 
BRANCH  26  27
ATOM     27  N   UNL     1      -4.654  13.292  22.619  0.00  0.00    +0.000 NA
ATOM     28  C   UNL     1      -4.478  13.003  24.067  0.00  0.00    +0.000 C 
ATOM     29  C   UNL     1      -3.448  13.883  24.809  0.00  0.00    +0.000 C 
ATOM     30  O   UNL     1      -3.625  15.279  24.550  0.00  0.00    +0.000 OA
ATOM     31  C   UNL     1      -3.627  15.532  23.143  0.00  0.00    +0.000 C 
ATOM     32  C   UNL     1      -4.761  14.755  22.463  0.00  0.00    +0.000 C 
ENDBRANCH  26  27
ENDBRANCH  11  26
TORSDOF 4
ENDMDL
MODEL 6
REMARK VINA RESULT:      -7.4      2.476      5.657
REMARK  Name = 
REMARK  5 active torsions:
REMARK  status: ('A' for Active; 'I' for Inactive)
REMARK    1  A    between atoms: C_1  and  C_2
REMARK    2  A    between atoms: C_3  and  C_4
REMARK    3  A    between atoms: C_4  and  C_6
REMARK    4  A    between atoms: C_23  and  C_24
REMARK    5  A    between atoms: C_24  and  N_25
REMARK                            x       y       z     vdW  Elec       q    Type
REMARK                         _______ _______ _______ _____ _____    ______ ____
ROOT
ATOM      1  C   UNL     1      -2.333  13.941  20.329  0.00  0.00    +0.000 C 
ATOM      2  C   UNL     1      -2.133  12.462  20.245  0.00  0.00    +0.000 C 
ATOM      3  C   UNL     1      -1.263  11.774  21.038  0.00  0.00    +0.000 C 
ATOM      4  C   UNL     1      -0.663  10.613  20.272  0.00  0.00    +0.000 C 
ATOM      5  C   UNL     1       0.816  10.326  20.151  0.00  0.00    +0.000 C 
ATOM      6  C   UNL     1       1.241   9.729  19.006  0.00  0.00    +0.000 C 
ATOM      7  C   UNL     1       0.292   9.397  17.918  0.00  0.00    +0.000 C 
ATOM      8  C   UNL     1      -0.864  10.090  17.826  0.00  0.00    +0.000 C 
ATOM      9  O   UNL     1      -1.808   9.995  16.828  0.00  0.00    +0.000 OA
ATOM     10  C   UNL     1      -2.524  11.255  16.677  0.00  0.00    +0.000 C 
ATOM     11  C   UNL     1      -3.277  11.719  17.963  0.00  0.00    +0.000 C 
ATOM     12  N   UNL     1      -2.303  11.748  19.060  0.00  0.00    +0.000 N 
ATOM     13  C   UNL     1      -1.020  11.125  18.862  0.00  0.00    +0.000 C 
ENDROOT
BRANCH   3  14
ATOM     14  C   UNL     1      -1.155  11.863  22.516  0.00  0.00    +0.000 C 
ATOM     15  O   UNL     1      -0.338  11.148  23.085  0.00  0.00    +0.000 OA
BRANCH  14  16
ATOM     16  C   UNL     1      -2.177  12.717  23.260  0.00  0.00    +0.000 A 
ATOM     17  C   UNL     1      -3.402  12.133  23.643  0.00  0.00    +0.000 A 
ATOM     18  C   UNL     1      -4.414  12.878  24.242  0.00  0.00    +0.000 A 
ATOM     19  C   UNL     1      -4.197  14.215  24.534  0.00  0.00    +0.000 A 
ATOM     20  C   UNL     1      -2.959  14.810  24.267  0.00  0.00    +0.000 A 
ATOM     21  C   UNL     1      -2.754  16.138  24.673  0.00  0.00    +0.000 A 
ATOM     22  C   UNL     1      -1.528  16.764  24.487  0.00  0.00    +0.000 A 
ATOM     23  C   UNL     1      -0.498  16.077  23.866  0.00  0.00    +0.000 A 
ATOM     24  C   UNL     1      -0.698  14.764  23.433  0.00  0.00    +0.000 A 
ATOM     25  C   UNL     1      -1.920  14.066  23.622  0.00  0.00    +0.000 A 
ENDBRANCH  14  16
ENDBRANCH   3  14
BRANCH  11  26
ATOM     26  C   UNL     1      -4.507  10.772  18.281  0.00  0.00    +0.000 C 
BRANCH  26  27
ATOM     27  N   UNL     1      -5.845  11.417  18.390  0.00  0.00    +0.000 NA
ATOM     28  C   UNL     1      -6.941  10.467  18.718  0.00  0.00    +0.000 C 
ATOM     29  C   UNL     1      -7.109  10.122  20.214  0.00  0.00    +0.000 C 
ATOM     30  O   UNL     1      -7.129  11.284  21.049  0.00  0.00    +0.000 OA
ATOM     31  C   UNL     1      -5.972  12.091  20.814  0.00  0.00    +0.000 C 
ATOM     32  C   UNL     1      -5.921  12.537  19.348  0.00  0.00    +0.000 C 
ENDBRANCH  26  27
ENDBRANCH  11  26
TORSDOF 4
ENDMDL
MODEL 7
REMARK VINA RESULT:      -7.2      3.270      7.351
REMARK  Name = 
REMARK  5 active torsions:
REMARK  status: ('A' for Active; 'I' for Inactive)
REMARK    1  A    between atoms: C_1  and  C_2
REMARK    2  A    between atoms: C_3  and  C_4
REMARK    3  A    between atoms: C_4  and  C_6
REMARK    4  A    between atoms: C_23  and  C_24
REMARK    5  A    between atoms: C_24  and  N_25
REMARK                            x       y       z     vdW  Elec       q    Type
REMARK                         _______ _______ _______ _____ _____    ______ ____
ROOT
ATOM      1  C   UNL     1      -7.497  10.826  20.613  0.00  0.00    +0.000 C 
ATOM      2  C   UNL     1      -6.638  12.015  20.330  0.00  0.00    +0.000 C 
ATOM      3  C   UNL     1      -6.357  12.978  21.253  0.00  0.00    +0.000 C 
ATOM      4  C   UNL     1      -6.237  14.330  20.580  0.00  0.00    +0.000 C 
ATOM      5  C   UNL     1      -6.975  15.579  21.006  0.00  0.00    +0.000 C 
ATOM      6  C   UNL     1      -7.295  16.473  20.033  0.00  0.00    +0.000 C 
ATOM      7  C   UNL     1      -6.952  16.217  18.615  0.00  0.00    +0.000 C 
ATOM      8  C   UNL     1      -6.774  14.942  18.206  0.00  0.00    +0.000 C 
ATOM      9  O   UNL     1      -6.558  14.507  16.917  0.00  0.00    +0.000 OA
ATOM     10  C   UNL     1      -7.056  13.150  16.741  0.00  0.00    +0.000 C 
ATOM     11  C   UNL     1      -6.391  12.099  17.683  0.00  0.00    +0.000 C 
ATOM     12  N   UNL     1      -6.538  12.584  19.061  0.00  0.00    +0.000 N 
ATOM     13  C   UNL     1      -6.960  13.944  19.274  0.00  0.00    +0.000 C 
ENDROOT
BRANCH   3  14
ATOM     14  C   UNL     1      -5.869  12.759  22.638  0.00  0.00    +0.000 C 
ATOM     15  O   UNL     1      -6.654  12.317  23.470  0.00  0.00    +0.000 OA
BRANCH  14  16
ATOM     16  C   UNL     1      -4.468  13.247  22.990  0.00  0.00    +0.000 A 
ATOM     17  C   UNL     1      -3.356  12.486  22.573  0.00  0.00    +0.000 A 
ATOM     18  C   UNL     1      -2.057  12.825  22.938  0.00  0.00    +0.000 A 
ATOM     19  C   UNL     1      -1.832  13.977  23.677  0.00  0.00    +0.000 A 
ATOM     20  C   UNL     1      -2.895  14.818  24.023  0.00  0.00    +0.000 A 
ATOM     21  C   UNL     1      -2.606  16.023  24.683  0.00  0.00    +0.000 A 
ATOM     22  C   UNL     1      -3.613  16.926  25.002  0.00  0.00    +0.000 A 
ATOM     23  C   UNL     1      -4.927  16.621  24.689  0.00  0.00    +0.000 A 
ATOM     24  C   UNL     1      -5.231  15.413  24.057  0.00  0.00    +0.000 A 
ATOM     25  C   UNL     1      -4.241  14.466  23.682  0.00  0.00    +0.000 A 
ENDBRANCH  14  16
ENDBRANCH   3  14
BRANCH  11  26
ATOM     26  C   UNL     1      -4.874  11.858  17.294  0.00  0.00    +0.000 C 
BRANCH  26  27
ATOM     27  N   UNL     1      -4.058  11.042  18.235  0.00  0.00    +0.000 NA
ATOM     28  C   UNL     1      -3.532   9.787  17.634  0.00  0.00    +0.000 C 
ATOM     29  C   UNL     1      -2.235   9.928  16.807  0.00  0.00    +0.000 C 
ATOM     30  O   UNL     1      -1.221  10.669  17.492  0.00  0.00    +0.000 OA
ATOM     31  C   UNL     1      -1.726  11.939  17.913  0.00  0.00    +0.000 C 
ATOM     32  C   UNL     1      -2.923  11.753  18.853  0.00  0.00    +0.000 C 
ENDBRANCH  26  27
ENDBRANCH  11  26
TORSDOF 4
ENDMDL
MODEL 8
REMARK VINA RESULT:      -7.2      2.085      5.268
REMARK  Name = 
REMARK  5 active torsions:
REMARK  status: ('A' for Active; 'I' for Inactive)
REMARK    1  A    between atoms: C_1  and  C_2
REMARK    2  A    between atoms: C_3  and  C_4
REMARK    3  A    between atoms: C_4  and  C_6
REMARK    4  A    between atoms: C_23  and  C_24
REMARK    5  A    between atoms: C_24  and  N_25
REMARK                            x       y       z     vdW  Elec       q    Type
REMARK                         _______ _______ _______ _____ _____    ______ ____
ROOT
ATOM      1  C   UNL     1      -4.067  12.178  24.402  0.00  0.00    +0.000 C 
ATOM      2  C   UNL     1      -4.096  13.134  23.254  0.00  0.00    +0.000 C 
ATOM      3  C   UNL     1      -3.107  14.036  23.000  0.00  0.00    +0.000 C 
ATOM      4  C   UNL     1      -3.693  15.305  22.414  0.00  0.00    +0.000 C 
ATOM      5  C   UNL     1      -3.430  16.701  22.932  0.00  0.00    +0.000 C 
ATOM      6  C   UNL     1      -4.428  17.614  22.791  0.00  0.00    +0.000 C 
ATOM      7  C   UNL     1      -5.723  17.243  22.174  0.00  0.00    +0.000 C 
ATOM      8  C   UNL     1      -6.109  15.948  22.194  0.00  0.00    +0.000 C 
ATOM      9  O   UNL     1      -7.316  15.437  21.770  0.00  0.00    +0.000 OA
ATOM     10  C   UNL     1      -7.645  14.222  22.503  0.00  0.00    +0.000 C 
ATOM     11  C   UNL     1      -6.596  13.078  22.347  0.00  0.00    +0.000 C 
ATOM     12  N   UNL     1      -5.285  13.626  22.716  0.00  0.00    +0.000 N 
ATOM     13  C   UNL     1      -5.147  15.052  22.859  0.00  0.00    +0.000 C 
ENDROOT
BRANCH   3  14
ATOM     14  C   UNL     1      -1.651  13.756  22.932  0.00  0.00    +0.000 C 
ATOM     15  O   UNL     1      -0.918  14.270  23.770  0.00  0.00    +0.000 OA
BRANCH  14  16
ATOM     16  C   UNL     1      -1.126  12.977  21.730  0.00  0.00    +0.000 A 
ATOM     17  C   UNL     1      -0.877  13.667  20.527  0.00  0.00    +0.000 A 
ATOM     18  C   UNL     1      -0.485  13.004  19.368  0.00  0.00    +0.000 A 
ATOM     19  C   UNL     1      -0.266  11.636  19.404  0.00  0.00    +0.000 A 
ATOM     20  C   UNL     1      -0.399  10.926  20.602  0.00  0.00    +0.000 A 
ATOM     21  C   UNL     1      -0.069   9.561  20.610  0.00  0.00    +0.000 A 
ATOM     22  C   UNL     1      -0.126   8.817  21.782  0.00  0.00    +0.000 A 
ATOM     23  C   UNL     1      -0.541   9.422  22.956  0.00  0.00    +0.000 A 
ATOM     24  C   UNL     1      -0.899  10.772  22.956  0.00  0.00    +0.000 A 
ATOM     25  C   UNL     1      -0.833  11.588  21.795  0.00  0.00    +0.000 A 
ENDBRANCH  14  16
ENDBRANCH   3  14
BRANCH  11  26
ATOM     26  C   UNL     1      -6.603  12.489  20.876  0.00  0.00    +0.000 C 
BRANCH  26  27
ATOM     27  N   UNL     1      -5.716  13.151  19.880  0.00  0.00    +0.000 NA
ATOM     28  C   UNL     1      -4.575  12.305  19.441  0.00  0.00    +0.000 C 
ATOM     29  C   UNL     1      -4.883  11.285  18.323  0.00  0.00    +0.000 C 
ATOM     30  O   UNL     1      -5.582  11.870  17.220  0.00  0.00    +0.000 OA
ATOM     31  C   UNL     1      -6.762  12.539  17.671  0.00  0.00    +0.000 C 
ATOM     32  C   UNL     1      -6.400  13.646  18.669  0.00  0.00    +0.000 C 
ENDBRANCH  26  27
ENDBRANCH  11  26
TORSDOF 4
ENDMDL
MODEL 9
REMARK VINA RESULT:      -7.2      2.350      7.419
REMARK  Name = 
REMARK  5 active torsions:
REMARK  status: ('A' for Active; 'I' for Inactive)
REMARK    1  A    between atoms: C_1  and  C_2
REMARK    2  A    between atoms: C_3  and  C_4
REMARK    3  A    between atoms: C_4  and  C_6
REMARK    4  A    between atoms: C_23  and  C_24
REMARK    5  A    between atoms: C_24  and  N_25
REMARK                            x       y       z     vdW  Elec       q    Type
REMARK                         _______ _______ _______ _____ _____    ______ ____
ROOT
ATOM      1  C   UNL     1      -1.577  11.899  22.447  0.00  0.00    +0.000 C 
ATOM      2  C   UNL     1      -1.502  12.139  20.974  0.00  0.00    +0.000 C 
ATOM      3  C   UNL     1      -2.569  12.522  20.218  0.00  0.00    +0.000 C 
ATOM      4  C   UNL     1      -2.475  11.916  18.833  0.00  0.00    +0.000 C 
ATOM      5  C   UNL     1      -3.574  11.133  18.153  0.00  0.00    +0.000 C 
ATOM      6  C   UNL     1      -3.196  10.152  17.290  0.00  0.00    +0.000 C 
ATOM      7  C   UNL     1      -1.765   9.855  17.049  0.00  0.00    +0.000 C 
ATOM      8  C   UNL     1      -0.861  10.186  17.996  0.00  0.00    +0.000 C 
ATOM      9  O   UNL     1       0.485   9.893  17.995  0.00  0.00    +0.000 OA
ATOM     10  C   UNL     1       0.991   9.791  19.356  0.00  0.00    +0.000 C 
ATOM     11  C   UNL     1       0.817  11.091  20.202  0.00  0.00    +0.000 C 
ATOM     12  N   UNL     1      -0.600  11.467  20.149  0.00  0.00    +0.000 N 
ATOM     13  C   UNL     1      -1.453  10.817  19.189  0.00  0.00    +0.000 C 
ENDROOT
BRANCH   3  14
ATOM     14  C   UNL     1      -3.504  13.637  20.511  0.00  0.00    +0.000 C 
ATOM     15  O   UNL     1      -3.035  14.744  20.750  0.00  0.00    +0.000 OA
BRANCH  14  16
ATOM     16  C   UNL     1      -4.987  13.310  20.659  0.00  0.00    +0.000 A 
ATOM     17  C   UNL     1      -5.787  13.233  19.501  0.00  0.00    +0.000 A 
ATOM     18  C   UNL     1      -7.161  13.029  19.571  0.00  0.00    +0.000 A 
ATOM     19  C   UNL     1      -7.761  12.830  20.804  0.00  0.00    +0.000 A 
ATOM     20  C   UNL     1      -6.991  12.793  21.971  0.00  0.00    +0.000 A 
ATOM     21  C   UNL     1      -7.630  12.488  23.184  0.00  0.00    +0.000 A 
ATOM     22  C   UNL     1      -6.909  12.381  24.367  0.00  0.00    +0.000 A 
ATOM     23  C   UNL     1      -5.542  12.607  24.357  0.00  0.00    +0.000 A 
ATOM     24  C   UNL     1      -4.900  12.938  23.163  0.00  0.00    +0.000 A 
ATOM     25  C   UNL     1      -5.581  13.033  21.919  0.00  0.00    +0.000 A 
ENDBRANCH  14  16
ENDBRANCH   3  14
BRANCH  11  26
ATOM     26  C   UNL     1       1.762  12.249  19.674  0.00  0.00    +0.000 C 
BRANCH  26  27
ATOM     27  N   UNL     1       1.842  13.485  20.501  0.00  0.00    +0.000 NA
ATOM     28  C   UNL     1       3.234  13.904  20.813  0.00  0.00    +0.000 C 
ATOM     29  C   UNL     1       3.952  14.725  19.719  0.00  0.00    +0.000 C 
ATOM     30  O   UNL     1       3.154  15.807  19.228  0.00  0.00    +0.000 OA
ATOM     31  C   UNL     1       1.879  15.332  18.789  0.00  0.00    +0.000 C 
ATOM     32  C   UNL     1       1.134  14.654  19.946  0.00  0.00    +0.000 C 
ENDBRANCH  26  27
ENDBRANCH  11  26
TORSDOF 4
ENDMDL
