MODEL 1
REMARK VINA RESULT:      -5.8      0.000      0.000
REMARK  Name = 
REMARK  10 active torsions:
REMARK  status: ('A' for Active; 'I' for Inactive)
REMARK    1  A    between atoms: C_1  and  O_2
REMARK    2  A    between atoms: O_2  and  C_3
REMARK    3  A    between atoms: C_8  and  O_9
REMARK    4  A    between atoms: O_9  and  C_10
REMARK    5  A    between atoms: C_11  and  O_12
REMARK    6  A    between atoms: O_12  and  C_13
REMARK    7  A    between atoms: C_19  and  O_20
REMARK    8  A    between atoms: O_20  and  C_21
REMARK    9  A    between atoms: C_26  and  C_27
REMARK   10  A    between atoms: C_28  and  C_29
REMARK                            x       y       z     vdW  Elec       q    Type
REMARK                         _______ _______ _______ _____ _____    ______ ____
ROOT
ATOM      1  C   UNL     1      -5.542  14.102  20.633  0.00  0.00    +0.000 A 
ATOM      2  C   UNL     1      -5.555  12.765  20.179  0.00  0.00    +0.000 A 
ATOM      3 BR   UNL     1      -7.181  11.740  20.002  0.00  0.00    +0.000 Br
ATOM      4  C   UNL     1      -4.333  12.106  19.849  0.00  0.00    +0.000 A 
ATOM      5  C   UNL     1      -3.082  12.750  20.108  0.00  0.00    +0.000 A 
ATOM      6  C   UNL     1      -3.073  14.103  20.528  0.00  0.00    +0.000 A 
ATOM      7  C   UNL     1      -4.296  14.758  20.809  0.00  0.00    +0.000 A 
ATOM      8  C   UNL     1      -1.832  11.938  20.124  0.00  0.00    +0.000 A 
ATOM      9  C   UNL     1      -1.348  11.315  18.917  0.00  0.00    +0.000 A 
ATOM     10  C   UNL     1      -0.362  10.310  18.986  0.00  0.00    +0.000 A 
ATOM     11  C   UNL     1       0.164   9.981  20.214  0.00  0.00    +0.000 A 
ATOM     12  C   UNL     1      -0.199  10.656  21.351  0.00  0.00    +0.000 A 
ATOM     13  C   UNL     1      -1.181  11.631  21.351  0.00  0.00    +0.000 A 
ATOM     14  O   UNL     1       0.468  10.196  22.452  0.00  0.00    +0.000 OA
ATOM     15  C   UNL     1       1.024   8.985  21.915  0.00  0.00    +0.000 C 
ATOM     16  O   UNL     1       1.052   8.980  20.473  0.00  0.00    +0.000 OA
ATOM     17  C   UNL     1      -1.869  11.703  17.545  0.00  0.00    +0.000 C 
ATOM     18  C   UNL     1      -2.921  10.739  16.959  0.00  0.00    +0.000 C 
ATOM     19  C   UNL     1      -2.945  10.884  15.427  0.00  0.00    +0.000 C 
ATOM     20  C   UNL     1      -4.347  10.900  17.560  0.00  0.00    +0.000 C 
ATOM     21  C   UNL     1      -5.082  12.146  17.028  0.00  0.00    +0.000 C 
ATOM     22  C   UNL     1      -4.353  10.762  19.113  0.00  0.00    +0.000 C 
ENDROOT
BRANCH   1  24
ATOM     23  C   UNL     1      -7.433  14.849  22.002  0.00  0.00    +0.000 C 
ATOM     24  O   UNL     1      -6.622  14.920  20.846  0.00  0.00    +0.000 OA
ENDBRANCH   1  24
BRANCH   6  25
ATOM     25  O   UNL     1      -1.838  14.613  20.859  0.00  0.00    +0.000 OA
ATOM     26  C   UNL     1      -1.119  15.401  19.922  0.00  0.00    +0.000 C 
ENDBRANCH   6  25
BRANCH   7  27
ATOM     27  O   UNL     1      -4.172  16.056  21.246  0.00  0.00    +0.000 OA
ATOM     28  C   UNL     1      -4.066  16.301  22.639  0.00  0.00    +0.000 C 
ENDBRANCH   7  27
BRANCH  13  29
ATOM     29  O   UNL     1      -1.352  12.260  22.555  0.00  0.00    +0.000 OA
ATOM     30  C   UNL     1      -2.428  11.840  23.376  0.00  0.00    +0.000 C 
ENDBRANCH  13  29
TORSDOF 4
ENDMDL
MODEL 2
REMARK VINA RESULT:      -5.5      3.069      5.282
REMARK  Name = 
REMARK  10 active torsions:
REMARK  status: ('A' for Active; 'I' for Inactive)
REMARK    1  A    between atoms: C_1  and  O_2
REMARK    2  A    between atoms: O_2  and  C_3
REMARK    3  A    between atoms: C_8  and  O_9
REMARK    4  A    between atoms: O_9  and  C_10
REMARK    5  A    between atoms: C_11  and  O_12
REMARK    6  A    between atoms: O_12  and  C_13
REMARK    7  A    between atoms: C_19  and  O_20
REMARK    8  A    between atoms: O_20  and  C_21
REMARK    9  A    between atoms: C_26  and  C_27
REMARK   10  A    between atoms: C_28  and  C_29
REMARK                            x       y       z     vdW  Elec       q    Type
REMARK                         _______ _______ _______ _____ _____    ______ ____
ROOT
ATOM      1  C   UNL     1      -0.738  16.044  22.801  0.00  0.00    +0.000 A 
ATOM      2  C   UNL     1      -0.547  16.180  21.409  0.00  0.00    +0.000 A 
ATOM      3 BR   UNL     1       0.008  17.837  20.590  0.00  0.00    +0.000 Br
ATOM      4  C   UNL     1      -0.786  15.075  20.538  0.00  0.00    +0.000 A 
ATOM      5  C   UNL     1      -1.352  13.867  21.058  0.00  0.00    +0.000 A 
ATOM      6  C   UNL     1      -1.507  13.721  22.458  0.00  0.00    +0.000 A 
ATOM      7  C   UNL     1      -1.223  14.812  23.313  0.00  0.00    +0.000 A 
ATOM      8  C   UNL     1      -1.946  12.875  20.116  0.00  0.00    +0.000 A 
ATOM      9  C   UNL     1      -1.113  12.170  19.174  0.00  0.00    +0.000 A 
ATOM     10  C   UNL     1      -1.697  11.479  18.094  0.00  0.00    +0.000 A 
ATOM     11  C   UNL     1      -3.068  11.444  17.992  0.00  0.00    +0.000 A 
ATOM     12  C   UNL     1      -3.870  12.004  18.952  0.00  0.00    +0.000 A 
ATOM     13  C   UNL     1      -3.357  12.720  20.019  0.00  0.00    +0.000 A 
ATOM     14  O   UNL     1      -5.197  11.826  18.676  0.00  0.00    +0.000 OA
ATOM     15  C   UNL     1      -5.107  11.383  17.313  0.00  0.00    +0.000 C 
ATOM     16  O   UNL     1      -3.791  10.902  16.972  0.00  0.00    +0.000 OA
ATOM     17  C   UNL     1       0.400  12.143  19.300  0.00  0.00    +0.000 C 
ATOM     18  C   UNL     1       1.141  13.126  18.371  0.00  0.00    +0.000 C 
ATOM     19  C   UNL     1       2.584  12.636  18.160  0.00  0.00    +0.000 C 
ATOM     20  C   UNL     1       1.115  14.607  18.849  0.00  0.00    +0.000 C 
ATOM     21  C   UNL     1       2.079  14.871  20.022  0.00  0.00    +0.000 C 
ATOM     22  C   UNL     1      -0.335  15.129  19.076  0.00  0.00    +0.000 C 
ENDROOT
BRANCH   1  24
ATOM     23  C   UNL     1      -1.216  18.069  24.096  0.00  0.00    +0.000 C 
ATOM     24  O   UNL     1      -0.414  16.949  23.779  0.00  0.00    +0.000 OA
ENDBRANCH   1  24
BRANCH   6  25
ATOM     25  O   UNL     1      -2.156  12.578  22.867  0.00  0.00    +0.000 OA
ATOM     26  C   UNL     1      -1.419  11.391  23.117  0.00  0.00    +0.000 C 
ENDBRANCH   6  25
BRANCH   7  27
ATOM     27  O   UNL     1      -1.444  14.576  24.650  0.00  0.00    +0.000 OA
ATOM     28  C   UNL     1      -2.712  14.893  25.200  0.00  0.00    +0.000 C 
ENDBRANCH   7  27
BRANCH  13  29
ATOM     29  O   UNL     1      -4.296  13.133  20.926  0.00  0.00    +0.000 OA
ATOM     30  C   UNL     1      -4.817  14.444  20.791  0.00  0.00    +0.000 C 
ENDBRANCH  13  29
TORSDOF 4
ENDMDL
MODEL 3
REMARK VINA RESULT:      -5.4      2.981      5.433
REMARK  Name = 
REMARK  10 active torsions:
REMARK  status: ('A' for Active; 'I' for Inactive)
REMARK    1  A    between atoms: C_1  and  O_2
REMARK    2  A    between atoms: O_2  and  C_3
REMARK    3  A    between atoms: C_8  and  O_9
REMARK    4  A    between atoms: O_9  and  C_10
REMARK    5  A    between atoms: C_11  and  O_12
REMARK    6  A    between atoms: O_12  and  C_13
REMARK    7  A    between atoms: C_19  and  O_20
REMARK    8  A    between atoms: O_20  and  C_21
REMARK    9  A    between atoms: C_26  and  C_27
REMARK   10  A    between atoms: C_28  and  C_29
REMARK                            x       y       z     vdW  Elec       q    Type
REMARK                         _______ _______ _______ _____ _____    ______ ____
ROOT
ATOM      1  C   UNL     1       0.155  15.387  22.350  0.00  0.00    +0.000 A 
ATOM      2  C   UNL     1       0.288  15.268  20.949  0.00  0.00    +0.000 A 
ATOM      3 BR   UNL     1       1.343  16.491  19.894  0.00  0.00    +0.000 Br
ATOM      4  C   UNL     1      -0.391  14.226  20.249  0.00  0.00    +0.000 A 
ATOM      5  C   UNL     1      -1.316  13.383  20.944  0.00  0.00    +0.000 A 
ATOM      6  C   UNL     1      -1.417  13.481  22.353  0.00  0.00    +0.000 A 
ATOM      7  C   UNL     1      -0.703  14.492  23.040  0.00  0.00    +0.000 A 
ATOM      8  C   UNL     1      -2.288  12.566  20.163  0.00  0.00    +0.000 A 
ATOM      9  C   UNL     1      -1.830  11.494  19.316  0.00  0.00    +0.000 A 
ATOM     10  C   UNL     1      -2.695  10.933  18.355  0.00  0.00    +0.000 A 
ATOM     11  C   UNL     1      -3.991  11.388  18.283  0.00  0.00    +0.000 A 
ATOM     12  C   UNL     1      -4.472  12.319  19.169  0.00  0.00    +0.000 A 
ATOM     13  C   UNL     1      -3.664  12.926  20.114  0.00  0.00    +0.000 A 
ATOM     14  O   UNL     1      -5.789  12.603  18.944  0.00  0.00    +0.000 OA
ATOM     15  C   UNL     1      -5.958  11.991  17.656  0.00  0.00    +0.000 C 
ATOM     16  O   UNL     1      -4.928  11.024  17.363  0.00  0.00    +0.000 OA
ATOM     17  C   UNL     1      -0.423  10.932  19.417  0.00  0.00    +0.000 C 
ATOM     18  C   UNL     1       0.556  11.452  18.345  0.00  0.00    +0.000 C 
ATOM     19  C   UNL     1       1.710  10.447  18.180  0.00  0.00    +0.000 C 
ATOM     20  C   UNL     1       1.096  12.888  18.609  0.00  0.00    +0.000 C 
ATOM     21  C   UNL     1       2.168  12.928  19.716  0.00  0.00    +0.000 C 
ATOM     22  C   UNL     1      -0.051  13.928  18.785  0.00  0.00    +0.000 C 
ENDROOT
BRANCH   1  24
ATOM     23  C   UNL     1       0.505  17.584  23.378  0.00  0.00    +0.000 C 
ATOM     24  O   UNL     1       0.849  16.226  23.183  0.00  0.00    +0.000 OA
ENDBRANCH   1  24
BRANCH   6  25
ATOM     25  O   UNL     1      -2.404  12.714  22.931  0.00  0.00    +0.000 OA
ATOM     26  C   UNL     1      -2.115  11.396  23.372  0.00  0.00    +0.000 C 
ENDBRANCH   6  25
BRANCH   7  27
ATOM     27  O   UNL     1      -0.902  14.522  24.400  0.00  0.00    +0.000 OA
ATOM     28  C   UNL     1      -1.977  15.291  24.917  0.00  0.00    +0.000 C 
ENDBRANCH   7  27
BRANCH  13  29
ATOM     29  O   UNL     1      -4.329  13.764  20.970  0.00  0.00    +0.000 OA
ATOM     30  C   UNL     1      -4.312  15.152  20.685  0.00  0.00    +0.000 C 
ENDBRANCH  13  29
TORSDOF 4
ENDMDL
MODEL 4
REMARK VINA RESULT:      -5.4      1.080      1.109
REMARK  Name = 
REMARK  10 active torsions:
REMARK  status: ('A' for Active; 'I' for Inactive)
REMARK    1  A    between atoms: C_1  and  O_2
REMARK    2  A    between atoms: O_2  and  C_3
REMARK    3  A    between atoms: C_8  and  O_9
REMARK    4  A    between atoms: O_9  and  C_10
REMARK    5  A    between atoms: C_11  and  O_12
REMARK    6  A    between atoms: O_12  and  C_13
REMARK    7  A    between atoms: C_19  and  O_20
REMARK    8  A    between atoms: O_20  and  C_21
REMARK    9  A    between atoms: C_26  and  C_27
REMARK   10  A    between atoms: C_28  and  C_29
REMARK                            x       y       z     vdW  Elec       q    Type
REMARK                         _______ _______ _______ _____ _____    ______ ____
ROOT
ATOM      1  C   UNL     1      -6.021  14.382  20.311  0.00  0.00    +0.000 A 
ATOM      2  C   UNL     1      -5.966  13.015  19.962  0.00  0.00    +0.000 A 
ATOM      3 BR   UNL     1      -7.548  11.958  19.637  0.00  0.00    +0.000 Br
ATOM      4  C   UNL     1      -4.708  12.349  19.857  0.00  0.00    +0.000 A 
ATOM      5  C   UNL     1      -3.508  13.028  20.240  0.00  0.00    +0.000 A 
ATOM      6  C   UNL     1      -3.562  14.408  20.554  0.00  0.00    +0.000 A 
ATOM      7  C   UNL     1      -4.814  15.066  20.610  0.00  0.00    +0.000 A 
ATOM      8  C   UNL     1      -2.270  12.236  20.492  0.00  0.00    +0.000 A 
ATOM      9  C   UNL     1      -1.620  11.531  19.416  0.00  0.00    +0.000 A 
ATOM     10  C   UNL     1      -0.650  10.548  19.699  0.00  0.00    +0.000 A 
ATOM     11  C   UNL     1      -0.301  10.318  21.009  0.00  0.00    +0.000 A 
ATOM     12  C   UNL     1      -0.822  11.071  22.030  0.00  0.00    +0.000 A 
ATOM     13  C   UNL     1      -1.797  12.030  21.818  0.00  0.00    +0.000 A 
ATOM     14  O   UNL     1      -0.316  10.703  23.245  0.00  0.00    +0.000 OA
ATOM     15  C   UNL     1       0.313   9.463  22.884  0.00  0.00    +0.000 C 
ATOM     16  O   UNL     1       0.544   9.351  21.465  0.00  0.00    +0.000 OA
ATOM     17  C   UNL     1      -1.944  11.810  17.959  0.00  0.00    +0.000 C 
ATOM     18  C   UNL     1      -2.899  10.791  17.306  0.00  0.00    +0.000 C 
ATOM     19  C   UNL     1      -2.708  10.820  15.779  0.00  0.00    +0.000 C 
ATOM     20  C   UNL     1      -4.397  10.976  17.688  0.00  0.00    +0.000 C 
ATOM     21  C   UNL     1      -5.053  12.169  16.965  0.00  0.00    +0.000 C 
ATOM     22  C   UNL     1      -4.620  10.955  19.230  0.00  0.00    +0.000 C 
ENDROOT
BRANCH   1  24
ATOM     23  C   UNL     1      -7.744  15.659  19.124  0.00  0.00    +0.000 C 
ATOM     24  O   UNL     1      -7.122  15.199  20.308  0.00  0.00    +0.000 OA
ENDBRANCH   1  24
BRANCH   6  25
ATOM     25  O   UNL     1      -2.387  14.958  21.015  0.00  0.00    +0.000 OA
ATOM     26  C   UNL     1      -1.443  15.492  20.099  0.00  0.00    +0.000 C 
ENDBRANCH   6  25
BRANCH   7  27
ATOM     27  O   UNL     1      -4.756  16.395  20.961  0.00  0.00    +0.000 OA
ATOM     28  C   UNL     1      -4.590  17.365  19.939  0.00  0.00    +0.000 C 
ENDBRANCH   7  27
BRANCH  13  29
ATOM     29  O   UNL     1      -2.138  12.744  22.936  0.00  0.00    +0.000 OA
ATOM     30  C   UNL     1      -1.186  13.656  23.456  0.00  0.00    +0.000 C 
ENDBRANCH  13  29
TORSDOF 4
ENDMDL
MODEL 5
REMARK VINA RESULT:      -5.2      2.066      6.043
REMARK  Name = 
REMARK  10 active torsions:
REMARK  status: ('A' for Active; 'I' for Inactive)
REMARK    1  A    between atoms: C_1  and  O_2
REMARK    2  A    between atoms: O_2  and  C_3
REMARK    3  A    between atoms: C_8  and  O_9
REMARK    4  A    between atoms: O_9  and  C_10
REMARK    5  A    between atoms: C_11  and  O_12
REMARK    6  A    between atoms: O_12  and  C_13
REMARK    7  A    between atoms: C_19  and  O_20
REMARK    8  A    between atoms: O_20  and  C_21
REMARK    9  A    between atoms: C_26  and  C_27
REMARK   10  A    between atoms: C_28  and  C_29
REMARK                            x       y       z     vdW  Elec       q    Type
REMARK                         _______ _______ _______ _____ _____    ______ ____
ROOT
ATOM      1  C   UNL     1      -3.299  11.516  18.514  0.00  0.00    +0.000 A 
ATOM      2  C   UNL     1      -4.460  12.300  18.693  0.00  0.00    +0.000 A 
ATOM      3 BR   UNL     1      -5.831  12.457  17.344  0.00  0.00    +0.000 Br
ATOM      4  C   UNL     1      -4.651  13.037  19.900  0.00  0.00    +0.000 A 
ATOM      5  C   UNL     1      -3.603  13.095  20.874  0.00  0.00    +0.000 A 
ATOM      6  C   UNL     1      -2.457  12.280  20.708  0.00  0.00    +0.000 A 
ATOM      7  C   UNL     1      -2.303  11.518  19.525  0.00  0.00    +0.000 A 
ATOM      8  C   UNL     1      -3.645  14.147  21.930  0.00  0.00    +0.000 A 
ATOM      9  C   UNL     1      -4.681  14.138  22.932  0.00  0.00    +0.000 A 
ATOM     10  C   UNL     1      -4.906  15.279  23.727  0.00  0.00    +0.000 A 
ATOM     11  C   UNL     1      -4.086  16.372  23.566  0.00  0.00    +0.000 A 
ATOM     12  C   UNL     1      -3.020  16.344  22.704  0.00  0.00    +0.000 A 
ATOM     13  C   UNL     1      -2.765  15.264  21.877  0.00  0.00    +0.000 A 
ATOM     14  O   UNL     1      -2.317  17.516  22.724  0.00  0.00    +0.000 OA
ATOM     15  C   UNL     1      -3.244  18.346  23.442  0.00  0.00    +0.000 C 
ATOM     16  O   UNL     1      -4.216  17.580  24.182  0.00  0.00    +0.000 OA
ATOM     17  C   UNL     1      -5.560  12.922  23.171  0.00  0.00    +0.000 C 
ATOM     18  C   UNL     1      -6.958  13.002  22.525  0.00  0.00    +0.000 C 
ATOM     19  C   UNL     1      -7.915  12.054  23.268  0.00  0.00    +0.000 C 
ATOM     20  C   UNL     1      -6.975  12.729  20.993  0.00  0.00    +0.000 C 
ATOM     21  C   UNL     1      -6.818  11.234  20.652  0.00  0.00    +0.000 C 
ATOM     22  C   UNL     1      -6.009  13.672  20.214  0.00  0.00    +0.000 C 
ENDROOT
BRANCH   1  24
ATOM     23  C   UNL     1      -2.663  11.054  16.193  0.00  0.00    +0.000 C 
ATOM     24  O   UNL     1      -3.036  10.640  17.492  0.00  0.00    +0.000 OA
ENDBRANCH   1  24
BRANCH   6  25
ATOM     25  O   UNL     1      -1.452  12.474  21.629  0.00  0.00    +0.000 OA
ATOM     26  C   UNL     1      -1.378  11.655  22.786  0.00  0.00    +0.000 C 
ENDBRANCH   6  25
BRANCH   7  27
ATOM     27  O   UNL     1      -1.138  10.792  19.449  0.00  0.00    +0.000 OA
ATOM     28  C   UNL     1       0.002  11.389  18.852  0.00  0.00    +0.000 C 
ENDBRANCH   7  27
BRANCH  13  29
ATOM     29  O   UNL     1      -1.612  15.372  21.147  0.00  0.00    +0.000 OA
ATOM     30  C   UNL     1      -1.657  16.115  19.942  0.00  0.00    +0.000 C 
ENDBRANCH  13  29
TORSDOF 4
ENDMDL
MODEL 6
REMARK VINA RESULT:      -5.1      1.233      1.366
REMARK  Name = 
REMARK  10 active torsions:
REMARK  status: ('A' for Active; 'I' for Inactive)
REMARK    1  A    between atoms: C_1  and  O_2
REMARK    2  A    between atoms: O_2  and  C_3
REMARK    3  A    between atoms: C_8  and  O_9
REMARK    4  A    between atoms: O_9  and  C_10
REMARK    5  A    between atoms: C_11  and  O_12
REMARK    6  A    between atoms: O_12  and  C_13
REMARK    7  A    between atoms: C_19  and  O_20
REMARK    8  A    between atoms: O_20  and  C_21
REMARK    9  A    between atoms: C_26  and  C_27
REMARK   10  A    between atoms: C_28  and  C_29
REMARK                            x       y       z     vdW  Elec       q    Type
REMARK                         _______ _______ _______ _____ _____    ______ ____
ROOT
ATOM      1  C   UNL     1      -4.941  15.491  21.035  0.00  0.00    +0.000 A 
ATOM      2  C   UNL     1      -5.314  14.139  20.876  0.00  0.00    +0.000 A 
ATOM      3 BR   UNL     1      -7.119  13.516  21.153  0.00  0.00    +0.000 Br
ATOM      4  C   UNL     1      -4.338  13.161  20.517  0.00  0.00    +0.000 A 
ATOM      5  C   UNL     1      -2.955  13.524  20.453  0.00  0.00    +0.000 A 
ATOM      6  C   UNL     1      -2.589  14.887  20.576  0.00  0.00    +0.000 A 
ATOM      7  C   UNL     1      -3.576  15.852  20.889  0.00  0.00    +0.000 A 
ATOM      8  C   UNL     1      -1.918  12.452  20.456  0.00  0.00    +0.000 A 
ATOM      9  C   UNL     1      -1.809  11.536  19.349  0.00  0.00    +0.000 A 
ATOM     10  C   UNL     1      -1.055  10.353  19.482  0.00  0.00    +0.000 A 
ATOM     11  C   UNL     1      -0.387  10.121  20.662  0.00  0.00    +0.000 A 
ATOM     12  C   UNL     1      -0.383  11.047  21.674  0.00  0.00    +0.000 A 
ATOM     13  C   UNL     1      -1.126  12.213  21.613  0.00  0.00    +0.000 A 
ATOM     14  O   UNL     1       0.370  10.635  22.738  0.00  0.00    +0.000 OA
ATOM     15  C   UNL     1       0.554   9.254  22.390  0.00  0.00    +0.000 C 
ATOM     16  O   UNL     1       0.309   8.997  20.992  0.00  0.00    +0.000 OA
ATOM     17  C   UNL     1      -2.487  11.798  18.016  0.00  0.00    +0.000 C 
ATOM     18  C   UNL     1      -3.806  11.027  17.802  0.00  0.00    +0.000 C 
ATOM     19  C   UNL     1      -4.087  10.910  16.294  0.00  0.00    +0.000 C 
ATOM     20  C   UNL     1      -5.029  11.622  18.557  0.00  0.00    +0.000 C 
ATOM     21  C   UNL     1      -5.579  12.898  17.889  0.00  0.00    +0.000 C 
ATOM     22  C   UNL     1      -4.771  11.756  20.088  0.00  0.00    +0.000 C 
ENDROOT
BRANCH   1  24
ATOM     23  C   UNL     1      -6.245  16.963  22.499  0.00  0.00    +0.000 C 
ATOM     24  O   UNL     1      -5.770  16.567  21.227  0.00  0.00    +0.000 OA
ENDBRANCH   1  24
BRANCH   6  25
ATOM     25  O   UNL     1      -1.236  15.137  20.611  0.00  0.00    +0.000 OA
ATOM     26  C   UNL     1      -0.536  15.436  19.413  0.00  0.00    +0.000 C 
ENDBRANCH   6  25
BRANCH   7  27
ATOM     27  O   UNL     1      -3.108  17.138  21.023  0.00  0.00    +0.000 OA
ATOM     28  C   UNL     1      -3.102  17.986  19.886  0.00  0.00    +0.000 C 
ENDBRANCH   7  27
BRANCH  13  29
ATOM     29  O   UNL     1      -0.934  13.060  22.672  0.00  0.00    +0.000 OA
ATOM     30  C   UNL     1      -1.934  13.104  23.675  0.00  0.00    +0.000 C 
ENDBRANCH  13  29
TORSDOF 4
ENDMDL
MODEL 7
REMARK VINA RESULT:      -5.0      3.340      6.059
REMARK  Name = 
REMARK  10 active torsions:
REMARK  status: ('A' for Active; 'I' for Inactive)
REMARK    1  A    between atoms: C_1  and  O_2
REMARK    2  A    between atoms: O_2  and  C_3
REMARK    3  A    between atoms: C_8  and  O_9
REMARK    4  A    between atoms: O_9  and  C_10
REMARK    5  A    between atoms: C_11  and  O_12
REMARK    6  A    between atoms: O_12  and  C_13
REMARK    7  A    between atoms: C_19  and  O_20
REMARK    8  A    between atoms: O_20  and  C_21
REMARK    9  A    between atoms: C_26  and  C_27
REMARK   10  A    between atoms: C_28  and  C_29
REMARK                            x       y       z     vdW  Elec       q    Type
REMARK                         _______ _______ _______ _____ _____    ______ ____
ROOT
ATOM      1  C   UNL     1       0.056  15.395  19.632  0.00  0.00    +0.000 A 
ATOM      2  C   UNL     1      -0.557  14.133  19.468  0.00  0.00    +0.000 A 
ATOM      3 BR   UNL     1      -0.398  13.101  17.845  0.00  0.00    +0.000 Br
ATOM      4  C   UNL     1      -1.352  13.578  20.515  0.00  0.00    +0.000 A 
ATOM      5  C   UNL     1      -1.643  14.357  21.680  0.00  0.00    +0.000 A 
ATOM      6  C   UNL     1      -0.997  15.605  21.857  0.00  0.00    +0.000 A 
ATOM      7  C   UNL     1      -0.176  16.123  20.828  0.00  0.00    +0.000 A 
ATOM      8  C   UNL     1      -2.758  13.940  22.577  0.00  0.00    +0.000 A 
ATOM      9  C   UNL     1      -2.674  12.711  23.327  0.00  0.00    +0.000 A 
ATOM     10  C   UNL     1      -3.828  12.165  23.922  0.00  0.00    +0.000 A 
ATOM     11  C   UNL     1      -5.015  12.854  23.821  0.00  0.00    +0.000 A 
ATOM     12  C   UNL     1      -5.078  14.084  23.219  0.00  0.00    +0.000 A 
ATOM     13  C   UNL     1      -3.986  14.658  22.592  0.00  0.00    +0.000 A 
ATOM     14  O   UNL     1      -6.340  14.608  23.260  0.00  0.00    +0.000 OA
ATOM     15  C   UNL     1      -7.077  13.443  23.662  0.00  0.00    +0.000 C 
ATOM     16  O   UNL     1      -6.236  12.432  24.256  0.00  0.00    +0.000 OA
ATOM     17  C   UNL     1      -1.364  11.964  23.504  0.00  0.00    +0.000 C 
ATOM     18  C   UNL     1      -1.181  10.753  22.566  0.00  0.00    +0.000 C 
ATOM     19  C   UNL     1      -0.163   9.780  23.185  0.00  0.00    +0.000 C 
ATOM     20  C   UNL     1      -0.787  11.124  21.106  0.00  0.00    +0.000 C 
ATOM     21  C   UNL     1       0.690  11.544  20.976  0.00  0.00    +0.000 C 
ATOM     22  C   UNL     1      -1.799  12.114  20.454  0.00  0.00    +0.000 C 
ENDROOT
BRANCH   1  24
ATOM     23  C   UNL     1       2.296  15.552  18.650  0.00  0.00    +0.000 C 
ATOM     24  O   UNL     1       0.962  15.996  18.796  0.00  0.00    +0.000 OA
ENDBRANCH   1  24
BRANCH   6  25
ATOM     25  O   UNL     1      -1.413  16.338  22.946  0.00  0.00    +0.000 OA
ATOM     26  C   UNL     1      -0.765  16.181  24.199  0.00  0.00    +0.000 C 
ENDBRANCH   6  25
BRANCH   7  27
ATOM     27  O   UNL     1       0.372  17.358  21.087  0.00  0.00    +0.000 OA
ATOM     28  C   UNL     1       1.623  17.425  21.753  0.00  0.00    +0.000 C 
ENDBRANCH   7  27
BRANCH  13  29
ATOM     29  O   UNL     1      -4.206  15.925  22.122  0.00  0.00    +0.000 OA
ATOM     30  C   UNL     1      -4.586  16.072  20.765  0.00  0.00    +0.000 C 
ENDBRANCH  13  29
TORSDOF 4
ENDMDL
MODEL 8
REMARK VINA RESULT:      -5.0      2.814      4.872
REMARK  Name = 
REMARK  10 active torsions:
REMARK  status: ('A' for Active; 'I' for Inactive)
REMARK    1  A    between atoms: C_1  and  O_2
REMARK    2  A    between atoms: O_2  and  C_3
REMARK    3  A    between atoms: C_8  and  O_9
REMARK    4  A    between atoms: O_9  and  C_10
REMARK    5  A    between atoms: C_11  and  O_12
REMARK    6  A    between atoms: O_12  and  C_13
REMARK    7  A    between atoms: C_19  and  O_20
REMARK    8  A    between atoms: O_20  and  C_21
REMARK    9  A    between atoms: C_26  and  C_27
REMARK   10  A    between atoms: C_28  and  C_29
REMARK                            x       y       z     vdW  Elec       q    Type
REMARK                         _______ _______ _______ _____ _____    ______ ____
ROOT
ATOM      1  C   UNL     1      -2.778  16.348  22.317  0.00  0.00    +0.000 A 
ATOM      2  C   UNL     1      -2.105  16.431  21.078  0.00  0.00    +0.000 A 
ATOM      3 BR   UNL     1      -1.755  18.109  20.191  0.00  0.00    +0.000 Br
ATOM      4  C   UNL     1      -1.671  15.244  20.415  0.00  0.00    +0.000 A 
ATOM      5  C   UNL     1      -2.038  13.961  20.935  0.00  0.00    +0.000 A 
ATOM      6  C   UNL     1      -2.679  13.882  22.195  0.00  0.00    +0.000 A 
ATOM      7  C   UNL     1      -3.064  15.070  22.862  0.00  0.00    +0.000 A 
ATOM      8  C   UNL     1      -1.919  12.759  20.061  0.00  0.00    +0.000 A 
ATOM      9  C   UNL     1      -0.626  12.297  19.623  0.00  0.00    +0.000 A 
ATOM     10  C   UNL     1      -0.527  11.369  18.567  0.00  0.00    +0.000 A 
ATOM     11  C   UNL     1      -1.682  10.876  18.007  0.00  0.00    +0.000 A 
ATOM     12  C   UNL     1      -2.916  11.214  18.501  0.00  0.00    +0.000 A 
ATOM     13  C   UNL     1      -3.078  12.140  19.516  0.00  0.00    +0.000 A 
ATOM     14  O   UNL     1      -3.925  10.587  17.825  0.00  0.00    +0.000 OA
ATOM     15  C   UNL     1      -3.193  10.093  16.692  0.00  0.00    +0.000 C 
ATOM     16  O   UNL     1      -1.771  10.048  16.928  0.00  0.00    +0.000 OA
ATOM     17  C   UNL     1       0.662  12.780  20.266  0.00  0.00    +0.000 C 
ATOM     18  C   UNL     1       1.405  13.876  19.475  0.00  0.00    +0.000 C 
ATOM     19  C   UNL     1       2.890  13.875  19.876  0.00  0.00    +0.000 C 
ATOM     20  C   UNL     1       0.787  15.298  19.613  0.00  0.00    +0.000 C 
ATOM     21  C   UNL     1       1.104  15.957  20.970  0.00  0.00    +0.000 C 
ATOM     22  C   UNL     1      -0.720  15.329  19.218  0.00  0.00    +0.000 C 
ENDROOT
BRANCH   1  24
ATOM     23  C   UNL     1      -2.179  18.133  23.886  0.00  0.00    +0.000 C 
ATOM     24  O   UNL     1      -3.123  17.383  23.147  0.00  0.00    +0.000 OA
ENDBRANCH   1  24
BRANCH   6  25
ATOM     25  O   UNL     1      -3.094  12.625  22.571  0.00  0.00    +0.000 OA
ATOM     26  C   UNL     1      -2.217  11.772  23.292  0.00  0.00    +0.000 C 
ENDBRANCH   6  25
BRANCH   7  27
ATOM     27  O   UNL     1      -3.714  14.879  24.059  0.00  0.00    +0.000 OA
ATOM     28  C   UNL     1      -2.947  14.818  25.251  0.00  0.00    +0.000 C 
ENDBRANCH   7  27
BRANCH  13  29
ATOM     29  O   UNL     1      -4.371  12.290  19.943  0.00  0.00    +0.000 OA
ATOM     30  C   UNL     1      -5.150  13.315  19.351  0.00  0.00    +0.000 C 
ENDBRANCH  13  29
TORSDOF 4
ENDMDL
MODEL 9
REMARK VINA RESULT:      -4.9     10.014     12.965
REMARK  Name = 
REMARK  10 active torsions:
REMARK  status: ('A' for Active; 'I' for Inactive)
REMARK    1  A    between atoms: C_1  and  O_2
REMARK    2  A    between atoms: O_2  and  C_3
REMARK    3  A    between atoms: C_8  and  O_9
REMARK    4  A    between atoms: O_9  and  C_10
REMARK    5  A    between atoms: C_11  and  O_12
REMARK    6  A    between atoms: O_12  and  C_13
REMARK    7  A    between atoms: C_19  and  O_20
REMARK    8  A    between atoms: O_20  and  C_21
REMARK    9  A    between atoms: C_26  and  C_27
REMARK   10  A    between atoms: C_28  and  C_29
REMARK                            x       y       z     vdW  Elec       q    Type
REMARK                         _______ _______ _______ _____ _____    ______ ____
ROOT
ATOM      1  C   UNL     1      11.052  16.357  19.313  0.00  0.00    +0.000 A 
ATOM      2  C   UNL     1      10.413  16.884  20.456  0.00  0.00    +0.000 A 
ATOM      3 BR   UNL     1      11.052  18.456  21.376  0.00  0.00    +0.000 Br
ATOM      4  C   UNL     1       9.258  16.242  20.995  0.00  0.00    +0.000 A 
ATOM      5  C   UNL     1       8.826  14.986  20.461  0.00  0.00    +0.000 A 
ATOM      6  C   UNL     1       9.445  14.480  19.292  0.00  0.00    +0.000 A 
ATOM      7  C   UNL     1      10.563  15.153  18.744  0.00  0.00    +0.000 A 
ATOM      8  C   UNL     1       7.877  14.146  21.248  0.00  0.00    +0.000 A 
ATOM      9  C   UNL     1       6.529  14.595  21.489  0.00  0.00    +0.000 A 
ATOM     10  C   UNL     1       5.741  13.966  22.474  0.00  0.00    +0.000 A 
ATOM     11  C   UNL     1       6.261  12.890  23.153  0.00  0.00    +0.000 A 
ATOM     12  C   UNL     1       7.495  12.377  22.841  0.00  0.00    +0.000 A 
ATOM     13  C   UNL     1       8.326  12.968  21.905  0.00  0.00    +0.000 A 
ATOM     14  O   UNL     1       7.804  11.289  23.609  0.00  0.00    +0.000 OA
ATOM     15  C   UNL     1       6.779  11.395  24.610  0.00  0.00    +0.000 C 
ATOM     16  O   UNL     1       5.677  12.225  24.189  0.00  0.00    +0.000 OA
ATOM     17  C   UNL     1       5.910  15.742  20.711  0.00  0.00    +0.000 C 
ATOM     18  C   UNL     1       5.900  17.093  21.455  0.00  0.00    +0.000 C 
ATOM     19  C   UNL     1       4.797  17.990  20.865  0.00  0.00    +0.000 C 
ATOM     20  C   UNL     1       7.271  17.828  21.473  0.00  0.00    +0.000 C 
ATOM     21  C   UNL     1       7.612  18.488  20.122  0.00  0.00    +0.000 C 
ATOM     22  C   UNL     1       8.410  16.942  22.062  0.00  0.00    +0.000 C 
ENDROOT
BRANCH   1  24
ATOM     23  C   UNL     1      11.865  17.969  17.655  0.00  0.00    +0.000 C 
ATOM     24  O   UNL     1      12.068  16.927  18.589  0.00  0.00    +0.000 OA
ENDBRANCH   1  24
BRANCH   6  25
ATOM     25  O   UNL     1       9.046  13.220  18.908  0.00  0.00    +0.000 OA
ATOM     26  C   UNL     1       8.226  13.052  17.762  0.00  0.00    +0.000 C 
ENDBRANCH   6  25
BRANCH   7  27
ATOM     27  O   UNL     1      11.112  14.556  17.633  0.00  0.00    +0.000 OA
ATOM     28  C   UNL     1      12.196  13.657  17.804  0.00  0.00    +0.000 C 
ENDBRANCH   7  27
BRANCH  13  29
ATOM     29  O   UNL     1       9.481  12.274  21.659  0.00  0.00    +0.000 OA
ATOM     30  C   UNL     1       9.380  11.046  20.958  0.00  0.00    +0.000 C 
ENDBRANCH  13  29
TORSDOF 4
ENDMDL
