MODEL 1
REMARK VINA RESULT:      -7.1      0.000      0.000
REMARK  Name = 
REMARK  11 active torsions:
REMARK  status: ('A' for Active; 'I' for Inactive)
REMARK    1  A    between atoms: C_1  and  C_2
REMARK    2  A    between atoms: C_2  and  N_3
REMARK    3  A    between atoms: N_3  and  C_4
REMARK    4  A    between atoms: N_3  and  C_6
REMARK    5  A    between atoms: C_4  and  C_5
REMARK    6  A    between atoms: C_6  and  C_7
REMARK    7  A    between atoms: C_7  and  C_8
REMARK    8  A    between atoms: C_8  and  C_9
REMARK    9  A    between atoms: C_9  and  C_10
REMARK   10  A    between atoms: C_9  and  N_11
REMARK   11  A    between atoms: N_11  and  C_12
REMARK                            x       y       z     vdW  Elec       q    Type
REMARK                         _______ _______ _______ _____ _____    ______ ____
ROOT
ATOM      1  C   UNL     1       3.155   5.662  18.320  0.00  0.00    +0.000 A 
ATOM      2  C   UNL     1       2.680   4.521  19.084  0.00  0.00    +0.000 A 
ATOM      3  C   UNL     1       1.338   4.107  19.360  0.00  0.00    +0.000 A 
ATOM      4  C   UNL     1       0.999   3.135  20.301  0.00  0.00    +0.000 A 
ATOM      5  C   UNL     1       2.006   2.458  20.946  0.00  0.00    +0.000 A 
ATOM      6  C   UNL     1       3.324   2.718  20.587  0.00  0.00    +0.000 A 
ATOM      7  C   UNL     1       3.671   3.705  19.671  0.00  0.00    +0.000 A 
ATOM      8  N   UNL     1       4.975   3.816  19.415  0.00  0.00    +0.000 NA
ATOM      9  C   UNL     1       5.417   4.780  18.611  0.00  0.00    +0.000 A 
ATOM     10  C   UNL     1       6.780   4.789  18.343  0.00  0.00    +0.000 A 
ATOM     11  C   UNL     1       7.381   5.785  17.581  0.00  0.00    +0.000 A 
ATOM     12  C   UNL     1       6.593   6.801  17.067  0.00  0.00    +0.000 A 
ATOM     13  C   UNL     1       5.210   6.792  17.296  0.00  0.00    +0.000 A 
ATOM     14  C   UNL     1       4.574   5.769  18.059  0.00  0.00    +0.000 A 
ENDROOT
BRANCH   1  15
ATOM     15  N   UNL     1       2.326   6.701  17.787  0.00  0.00    +0.000 N 
ATOM     16  H   UNL     1       2.739   7.045  16.922  0.00  0.00    +0.000 HD
BRANCH  15  17
ATOM     17  C   UNL     1       1.758   7.783  18.601  0.00  0.00    +0.000 C 
ATOM     18  C   UNL     1       2.200   9.125  18.003  0.00  0.00    +0.000 C 
BRANCH  17  19
ATOM     19  C   UNL     1       2.148   7.698  20.086  0.00  0.00    +0.000 C 
BRANCH  19  20
ATOM     20  C   UNL     1       0.984   8.034  21.054  0.00  0.00    +0.000 C 
BRANCH  20  21
ATOM     21  C   UNL     1       1.215   9.265  21.963  0.00  0.00    +0.000 C 
BRANCH  21  22
ATOM     22  N   UNL     1       0.172  10.311  21.877  0.00  0.00    +0.000 NA
BRANCH  22  24
ATOM     23  C   UNL     1      -0.166  11.489  19.655  0.00  0.00    +0.000 C 
ATOM     24  C   UNL     1      -0.469  10.282  20.544  0.00  0.00    +0.000 C 
ENDBRANCH  22  24
BRANCH  22  25
ATOM     25  C   UNL     1      -0.786  10.306  22.991  0.00  0.00    +0.000 C 
ATOM     26  C   UNL     1      -1.664  11.546  23.120  0.00  0.00    +0.000 C 
ENDBRANCH  22  25
ENDBRANCH  21  22
ENDBRANCH  20  21
ENDBRANCH  19  20
ENDBRANCH  17  19
ENDBRANCH  15  17
ENDBRANCH   1  15
TORSDOF 8
ENDMDL
MODEL 2
REMARK VINA RESULT:      -7.0      1.571      2.161
REMARK  Name = 
REMARK  11 active torsions:
REMARK  status: ('A' for Active; 'I' for Inactive)
REMARK    1  A    between atoms: C_1  and  C_2
REMARK    2  A    between atoms: C_2  and  N_3
REMARK    3  A    between atoms: N_3  and  C_4
REMARK    4  A    between atoms: N_3  and  C_6
REMARK    5  A    between atoms: C_4  and  C_5
REMARK    6  A    between atoms: C_6  and  C_7
REMARK    7  A    between atoms: C_7  and  C_8
REMARK    8  A    between atoms: C_8  and  C_9
REMARK    9  A    between atoms: C_9  and  C_10
REMARK   10  A    between atoms: C_9  and  N_11
REMARK   11  A    between atoms: N_11  and  C_12
REMARK                            x       y       z     vdW  Elec       q    Type
REMARK                         _______ _______ _______ _____ _____    ______ ____
ROOT
ATOM      1  C   UNL     1       3.115   5.732  18.479  0.00  0.00    +0.000 A 
ATOM      2  C   UNL     1       2.649   4.592  19.249  0.00  0.00    +0.000 A 
ATOM      3  C   UNL     1       1.315   4.234  19.627  0.00  0.00    +0.000 A 
ATOM      4  C   UNL     1       1.008   3.251  20.568  0.00  0.00    +0.000 A 
ATOM      5  C   UNL     1       2.030   2.506  21.105  0.00  0.00    +0.000 A 
ATOM      6  C   UNL     1       3.325   2.714  20.642  0.00  0.00    +0.000 A 
ATOM      7  C   UNL     1       3.643   3.712  19.726  0.00  0.00    +0.000 A 
ATOM      8  N   UNL     1       4.924   3.768  19.364  0.00  0.00    +0.000 NA
ATOM      9  C   UNL     1       5.346   4.734  18.551  0.00  0.00    +0.000 A 
ATOM     10  C   UNL     1       6.680   4.686  18.168  0.00  0.00    +0.000 A 
ATOM     11  C   UNL     1       7.265   5.675  17.385  0.00  0.00    +0.000 A 
ATOM     12  C   UNL     1       6.488   6.744  16.968  0.00  0.00    +0.000 A 
ATOM     13  C   UNL     1       5.131   6.794  17.314  0.00  0.00    +0.000 A 
ATOM     14  C   UNL     1       4.510   5.780  18.100  0.00  0.00    +0.000 A 
ENDROOT
BRANCH   1  15
ATOM     15  N   UNL     1       2.297   6.827  18.048  0.00  0.00    +0.000 N 
ATOM     16  H   UNL     1       2.354   6.903  17.034  0.00  0.00    +0.000 HD
BRANCH  15  17
ATOM     17  C   UNL     1       2.285   8.138  18.706  0.00  0.00    +0.000 C 
ATOM     18  C   UNL     1       1.751   7.962  20.134  0.00  0.00    +0.000 C 
BRANCH  17  19
ATOM     19  C   UNL     1       1.461   9.193  17.949  0.00  0.00    +0.000 C 
BRANCH  19  20
ATOM     20  C   UNL     1       0.744  10.206  18.878  0.00  0.00    +0.000 C 
BRANCH  20  21
ATOM     21  C   UNL     1      -0.797  10.252  18.740  0.00  0.00    +0.000 C 
BRANCH  21  22
ATOM     22  N   UNL     1      -1.347  11.556  18.304  0.00  0.00    +0.000 NA
BRANCH  22  24
ATOM     23  C   UNL     1      -2.921   9.915  17.178  0.00  0.00    +0.000 C 
ATOM     24  C   UNL     1      -2.632  11.356  17.599  0.00  0.00    +0.000 C 
ENDBRANCH  22  24
BRANCH  22  25
ATOM     25  C   UNL     1      -1.407  12.573  19.361  0.00  0.00    +0.000 C 
ATOM     26  C   UNL     1      -2.729  12.676  20.112  0.00  0.00    +0.000 C 
ENDBRANCH  22  25
ENDBRANCH  21  22
ENDBRANCH  20  21
ENDBRANCH  19  20
ENDBRANCH  17  19
ENDBRANCH  15  17
ENDBRANCH   1  15
TORSDOF 8
ENDMDL
MODEL 3
REMARK VINA RESULT:      -7.0      1.782      4.422
REMARK  Name = 
REMARK  11 active torsions:
REMARK  status: ('A' for Active; 'I' for Inactive)
REMARK    1  A    between atoms: C_1  and  C_2
REMARK    2  A    between atoms: C_2  and  N_3
REMARK    3  A    between atoms: N_3  and  C_4
REMARK    4  A    between atoms: N_3  and  C_6
REMARK    5  A    between atoms: C_4  and  C_5
REMARK    6  A    between atoms: C_6  and  C_7
REMARK    7  A    between atoms: C_7  and  C_8
REMARK    8  A    between atoms: C_8  and  C_9
REMARK    9  A    between atoms: C_9  and  C_10
REMARK   10  A    between atoms: C_9  and  N_11
REMARK   11  A    between atoms: N_11  and  C_12
REMARK                            x       y       z     vdW  Elec       q    Type
REMARK                         _______ _______ _______ _____ _____    ______ ____
ROOT
ATOM      1  C   UNL     1       3.259   5.775  18.556  0.00  0.00    +0.000 A 
ATOM      2  C   UNL     1       4.653   5.798  18.148  0.00  0.00    +0.000 A 
ATOM      3  C   UNL     1       5.374   6.806  17.432  0.00  0.00    +0.000 A 
ATOM      4  C   UNL     1       6.644   6.618  16.886  0.00  0.00    +0.000 A 
ATOM      5  C   UNL     1       7.297   5.432  17.118  0.00  0.00    +0.000 A 
ATOM      6  C   UNL     1       6.695   4.490  17.947  0.00  0.00    +0.000 A 
ATOM      7  C   UNL     1       5.418   4.657  18.471  0.00  0.00    +0.000 A 
ATOM      8  N   UNL     1       4.992   3.675  19.266  0.00  0.00    +0.000 NA
ATOM      9  C   UNL     1       3.756   3.704  19.757  0.00  0.00    +0.000 A 
ATOM     10  C   UNL     1       3.409   2.679  20.628  0.00  0.00    +0.000 A 
ATOM     11  C   UNL     1       2.127   2.549  21.151  0.00  0.00    +0.000 A 
ATOM     12  C   UNL     1       1.163   3.477  20.794  0.00  0.00    +0.000 A 
ATOM     13  C   UNL     1       1.500   4.539  19.944  0.00  0.00    +0.000 A 
ATOM     14  C   UNL     1       2.813   4.698  19.413  0.00  0.00    +0.000 A 
ENDROOT
BRANCH   1  15
ATOM     15  N   UNL     1       2.274   6.747  18.186  0.00  0.00    +0.000 N 
ATOM     16  H   UNL     1       2.122   6.698  17.180  0.00  0.00    +0.000 HD
BRANCH  15  17
ATOM     17  C   UNL     1       2.272   8.128  18.682  0.00  0.00    +0.000 C 
ATOM     18  C   UNL     1       1.689   8.133  20.102  0.00  0.00    +0.000 C 
BRANCH  17  19
ATOM     19  C   UNL     1       1.497   9.100  17.777  0.00  0.00    +0.000 C 
BRANCH  19  20
ATOM     20  C   UNL     1       0.536  10.039  18.552  0.00  0.00    +0.000 C 
BRANCH  20  21
ATOM     21  C   UNL     1      -0.922  10.066  18.033  0.00  0.00    +0.000 C 
BRANCH  21  22
ATOM     22  N   UNL     1      -1.441  11.412  17.698  0.00  0.00    +0.000 NA
BRANCH  22  24
ATOM     23  C   UNL     1      -2.898  10.817  15.708  0.00  0.00    +0.000 C 
ATOM     24  C   UNL     1      -2.812  11.307  17.154  0.00  0.00    +0.000 C 
ENDBRANCH  22  24
BRANCH  22  25
ATOM     25  C   UNL     1      -1.308  12.399  18.778  0.00  0.00    +0.000 C 
ATOM     26  C   UNL     1      -0.392  13.583  18.489  0.00  0.00    +0.000 C 
ENDBRANCH  22  25
ENDBRANCH  21  22
ENDBRANCH  20  21
ENDBRANCH  19  20
ENDBRANCH  17  19
ENDBRANCH  15  17
ENDBRANCH   1  15
TORSDOF 8
ENDMDL
MODEL 4
REMARK VINA RESULT:      -7.0      1.450      1.879
REMARK  Name = 
REMARK  11 active torsions:
REMARK  status: ('A' for Active; 'I' for Inactive)
REMARK    1  A    between atoms: C_1  and  C_2
REMARK    2  A    between atoms: C_2  and  N_3
REMARK    3  A    between atoms: N_3  and  C_4
REMARK    4  A    between atoms: N_3  and  C_6
REMARK    5  A    between atoms: C_4  and  C_5
REMARK    6  A    between atoms: C_6  and  C_7
REMARK    7  A    between atoms: C_7  and  C_8
REMARK    8  A    between atoms: C_8  and  C_9
REMARK    9  A    between atoms: C_9  and  C_10
REMARK   10  A    between atoms: C_9  and  N_11
REMARK   11  A    between atoms: N_11  and  C_12
REMARK                            x       y       z     vdW  Elec       q    Type
REMARK                         _______ _______ _______ _____ _____    ______ ____
ROOT
ATOM      1  C   UNL     1       3.151   5.901  18.624  0.00  0.00    +0.000 A 
ATOM      2  C   UNL     1       2.516   4.762  19.265  0.00  0.00    +0.000 A 
ATOM      3  C   UNL     1       1.534   4.736  20.306  0.00  0.00    +0.000 A 
ATOM      4  C   UNL     1       1.174   3.586  21.009  0.00  0.00    +0.000 A 
ATOM      5  C   UNL     1       1.715   2.381  20.632  0.00  0.00    +0.000 A 
ATOM      6  C   UNL     1       2.550   2.342  19.520  0.00  0.00    +0.000 A 
ATOM      7  C   UNL     1       2.937   3.487  18.831  0.00  0.00    +0.000 A 
ATOM      8  N   UNL     1       3.721   3.280  17.773  0.00  0.00    +0.000 NA
ATOM      9  C   UNL     1       4.207   4.315  17.092  0.00  0.00    +0.000 A 
ATOM     10  C   UNL     1       4.962   4.017  15.965  0.00  0.00    +0.000 A 
ATOM     11  C   UNL     1       5.591   5.001  15.209  0.00  0.00    +0.000 A 
ATOM     12  C   UNL     1       5.456   6.326  15.592  0.00  0.00    +0.000 A 
ATOM     13  C   UNL     1       4.670   6.651  16.706  0.00  0.00    +0.000 A 
ATOM     14  C   UNL     1       4.004   5.658  17.481  0.00  0.00    +0.000 A 
ENDROOT
BRANCH   1  15
ATOM     15  N   UNL     1       2.995   7.267  19.026  0.00  0.00    +0.000 N 
ATOM     16  H   UNL     1       3.354   7.377  19.973  0.00  0.00    +0.000 HD
BRANCH  15  17
ATOM     17  C   UNL     1       1.770   8.043  18.802  0.00  0.00    +0.000 C 
ATOM     18  C   UNL     1       2.084   9.174  17.813  0.00  0.00    +0.000 C 
BRANCH  17  19
ATOM     19  C   UNL     1       1.162   8.611  20.095  0.00  0.00    +0.000 C 
BRANCH  19  20
ATOM     20  C   UNL     1       0.765  10.106  19.991  0.00  0.00    +0.000 C 
BRANCH  20  21
ATOM     21  C   UNL     1       0.823  10.899  21.319  0.00  0.00    +0.000 C 
BRANCH  21  22
ATOM     22  N   UNL     1      -0.477  11.436  21.784  0.00  0.00    +0.000 NA
BRANCH  22  24
ATOM     23  C   UNL     1      -0.041   9.524  23.394  0.00  0.00    +0.000 C 
ATOM     24  C   UNL     1      -0.959  10.664  22.949  0.00  0.00    +0.000 C 
ENDBRANCH  22  24
BRANCH  22  25
ATOM     25  C   UNL     1      -0.492  12.890  21.993  0.00  0.00    +0.000 C 
ATOM     26  C   UNL     1      -1.286  13.381  23.198  0.00  0.00    +0.000 C 
ENDBRANCH  22  25
ENDBRANCH  21  22
ENDBRANCH  20  21
ENDBRANCH  19  20
ENDBRANCH  17  19
ENDBRANCH  15  17
ENDBRANCH   1  15
TORSDOF 8
ENDMDL
MODEL 5
REMARK VINA RESULT:      -7.0      0.357      1.290
REMARK  Name = 
REMARK  11 active torsions:
REMARK  status: ('A' for Active; 'I' for Inactive)
REMARK    1  A    between atoms: C_1  and  C_2
REMARK    2  A    between atoms: C_2  and  N_3
REMARK    3  A    between atoms: N_3  and  C_4
REMARK    4  A    between atoms: N_3  and  C_6
REMARK    5  A    between atoms: C_4  and  C_5
REMARK    6  A    between atoms: C_6  and  C_7
REMARK    7  A    between atoms: C_7  and  C_8
REMARK    8  A    between atoms: C_8  and  C_9
REMARK    9  A    between atoms: C_9  and  C_10
REMARK   10  A    between atoms: C_9  and  N_11
REMARK   11  A    between atoms: N_11  and  C_12
REMARK                            x       y       z     vdW  Elec       q    Type
REMARK                         _______ _______ _______ _____ _____    ______ ____
ROOT
ATOM      1  C   UNL     1       3.149   5.674  18.328  0.00  0.00    +0.000 A 
ATOM      2  C   UNL     1       2.678   4.538  19.101  0.00  0.00    +0.000 A 
ATOM      3  C   UNL     1       1.338   4.125  19.386  0.00  0.00    +0.000 A 
ATOM      4  C   UNL     1       1.005   3.159  20.336  0.00  0.00    +0.000 A 
ATOM      5  C   UNL     1       2.015   2.485  20.979  0.00  0.00    +0.000 A 
ATOM      6  C   UNL     1       3.331   2.744  20.610  0.00  0.00    +0.000 A 
ATOM      7  C   UNL     1       3.673   3.725  19.686  0.00  0.00    +0.000 A 
ATOM      8  N   UNL     1       4.975   3.835  19.422  0.00  0.00    +0.000 NA
ATOM      9  C   UNL     1       5.412   4.794  18.610  0.00  0.00    +0.000 A 
ATOM     10  C   UNL     1       6.773   4.802  18.335  0.00  0.00    +0.000 A 
ATOM     11  C   UNL     1       7.371   5.793  17.563  0.00  0.00    +0.000 A 
ATOM     12  C   UNL     1       6.579   6.806  17.048  0.00  0.00    +0.000 A 
ATOM     13  C   UNL     1       5.198   6.799  17.285  0.00  0.00    +0.000 A 
ATOM     14  C   UNL     1       4.566   5.781  18.057  0.00  0.00    +0.000 A 
ENDROOT
BRANCH   1  15
ATOM     15  N   UNL     1       2.316   6.711  17.794  0.00  0.00    +0.000 N 
ATOM     16  H   UNL     1       2.729   7.056  16.929  0.00  0.00    +0.000 HD
BRANCH  15  17
ATOM     17  C   UNL     1       1.744   7.790  18.607  0.00  0.00    +0.000 C 
ATOM     18  C   UNL     1       2.159   9.134  17.993  0.00  0.00    +0.000 C 
BRANCH  17  19
ATOM     19  C   UNL     1       2.154   7.723  20.087  0.00  0.00    +0.000 C 
BRANCH  19  20
ATOM     20  C   UNL     1       0.991   8.018  21.068  0.00  0.00    +0.000 C 
BRANCH  20  21
ATOM     21  C   UNL     1       0.946   9.461  21.625  0.00  0.00    +0.000 C 
BRANCH  21  22
ATOM     22  N   UNL     1      -0.393  10.094  21.615  0.00  0.00    +0.000 NA
BRANCH  22  24
ATOM     23  C   UNL     1      -1.786  11.580  23.129  0.00  0.00    +0.000 C 
ATOM     24  C   UNL     1      -0.821  10.400  22.998  0.00  0.00    +0.000 C 
ENDBRANCH  22  24
BRANCH  22  25
ATOM     25  C   UNL     1      -0.520  11.230  20.694  0.00  0.00    +0.000 C 
ATOM     26  C   UNL     1       0.777  11.948  20.338  0.00  0.00    +0.000 C 
ENDBRANCH  22  25
ENDBRANCH  21  22
ENDBRANCH  20  21
ENDBRANCH  19  20
ENDBRANCH  17  19
ENDBRANCH  15  17
ENDBRANCH   1  15
TORSDOF 8
ENDMDL
MODEL 6
REMARK VINA RESULT:      -6.9      1.044      1.698
REMARK  Name = 
REMARK  11 active torsions:
REMARK  status: ('A' for Active; 'I' for Inactive)
REMARK    1  A    between atoms: C_1  and  C_2
REMARK    2  A    between atoms: C_2  and  N_3
REMARK    3  A    between atoms: N_3  and  C_4
REMARK    4  A    between atoms: N_3  and  C_6
REMARK    5  A    between atoms: C_4  and  C_5
REMARK    6  A    between atoms: C_6  and  C_7
REMARK    7  A    between atoms: C_7  and  C_8
REMARK    8  A    between atoms: C_8  and  C_9
REMARK    9  A    between atoms: C_9  and  C_10
REMARK   10  A    between atoms: C_9  and  N_11
REMARK   11  A    between atoms: N_11  and  C_12
REMARK                            x       y       z     vdW  Elec       q    Type
REMARK                         _______ _______ _______ _____ _____    ______ ____
ROOT
ATOM      1  C   UNL     1       3.134   5.737  18.547  0.00  0.00    +0.000 A 
ATOM      2  C   UNL     1       2.682   4.604  19.336  0.00  0.00    +0.000 A 
ATOM      3  C   UNL     1       1.361   4.270  19.774  0.00  0.00    +0.000 A 
ATOM      4  C   UNL     1       1.080   3.290  20.726  0.00  0.00    +0.000 A 
ATOM      5  C   UNL     1       2.110   2.526  21.216  0.00  0.00    +0.000 A 
ATOM      6  C   UNL     1       3.387   2.712  20.694  0.00  0.00    +0.000 A 
ATOM      7  C   UNL     1       3.681   3.705  19.767  0.00  0.00    +0.000 A 
ATOM      8  N   UNL     1       4.946   3.738  19.346  0.00  0.00    +0.000 NA
ATOM      9  C   UNL     1       5.347   4.698  18.516  0.00  0.00    +0.000 A 
ATOM     10  C   UNL     1       6.661   4.627  18.073  0.00  0.00    +0.000 A 
ATOM     11  C   UNL     1       7.228   5.607  17.265  0.00  0.00    +0.000 A 
ATOM     12  C   UNL     1       6.453   6.690  16.885  0.00  0.00    +0.000 A 
ATOM     13  C   UNL     1       5.114   6.764  17.292  0.00  0.00    +0.000 A 
ATOM     14  C   UNL     1       4.511   5.760  18.105  0.00  0.00    +0.000 A 
ENDROOT
BRANCH   1  15
ATOM     15  N   UNL     1       2.317   6.847  18.154  0.00  0.00    +0.000 N 
ATOM     16  H   UNL     1       2.330   6.925  17.139  0.00  0.00    +0.000 HD
BRANCH  15  17
ATOM     17  C   UNL     1       2.358   8.157  18.814  0.00  0.00    +0.000 C 
ATOM     18  C   UNL     1       1.595   8.058  20.141  0.00  0.00    +0.000 C 
BRANCH  17  19
ATOM     19  C   UNL     1       1.791   9.294  17.948  0.00  0.00    +0.000 C 
BRANCH  19  20
ATOM     20  C   UNL     1       0.345   9.704  18.330  0.00  0.00    +0.000 C 
BRANCH  20  21
ATOM     21  C   UNL     1       0.168  11.181  18.757  0.00  0.00    +0.000 C 
BRANCH  21  22
ATOM     22  N   UNL     1       0.594  11.486  20.142  0.00  0.00    +0.000 NA
BRANCH  22  24
ATOM     23  C   UNL     1       2.322  12.926  18.969  0.00  0.00    +0.000 C 
ATOM     24  C   UNL     1       1.391  12.731  20.166  0.00  0.00    +0.000 C 
ENDBRANCH  22  24
BRANCH  22  25
ATOM     25  C   UNL     1      -0.493  11.463  21.130  0.00  0.00    +0.000 C 
ATOM     26  C   UNL     1      -0.292  10.531  22.319  0.00  0.00    +0.000 C 
ENDBRANCH  22  25
ENDBRANCH  21  22
ENDBRANCH  20  21
ENDBRANCH  19  20
ENDBRANCH  17  19
ENDBRANCH  15  17
ENDBRANCH   1  15
TORSDOF 8
ENDMDL
MODEL 7
REMARK VINA RESULT:      -6.9      1.483      1.704
REMARK  Name = 
REMARK  11 active torsions:
REMARK  status: ('A' for Active; 'I' for Inactive)
REMARK    1  A    between atoms: C_1  and  C_2
REMARK    2  A    between atoms: C_2  and  N_3
REMARK    3  A    between atoms: N_3  and  C_4
REMARK    4  A    between atoms: N_3  and  C_6
REMARK    5  A    between atoms: C_4  and  C_5
REMARK    6  A    between atoms: C_6  and  C_7
REMARK    7  A    between atoms: C_7  and  C_8
REMARK    8  A    between atoms: C_8  and  C_9
REMARK    9  A    between atoms: C_9  and  C_10
REMARK   10  A    between atoms: C_9  and  N_11
REMARK   11  A    between atoms: N_11  and  C_12
REMARK                            x       y       z     vdW  Elec       q    Type
REMARK                         _______ _______ _______ _____ _____    ______ ____
ROOT
ATOM      1  C   UNL     1       3.171   5.915  18.594  0.00  0.00    +0.000 A 
ATOM      2  C   UNL     1       2.533   4.774  19.229  0.00  0.00    +0.000 A 
ATOM      3  C   UNL     1       1.555   4.744  20.273  0.00  0.00    +0.000 A 
ATOM      4  C   UNL     1       1.191   3.591  20.969  0.00  0.00    +0.000 A 
ATOM      5  C   UNL     1       1.724   2.386  20.580  0.00  0.00    +0.000 A 
ATOM      6  C   UNL     1       2.554   2.352  19.463  0.00  0.00    +0.000 A 
ATOM      7  C   UNL     1       2.944   3.500  18.783  0.00  0.00    +0.000 A 
ATOM      8  N   UNL     1       3.723   3.299  17.720  0.00  0.00    +0.000 NA
ATOM      9  C   UNL     1       4.212   4.336  17.045  0.00  0.00    +0.000 A 
ATOM     10  C   UNL     1       4.961   4.044  15.913  0.00  0.00    +0.000 A 
ATOM     11  C   UNL     1       5.591   5.031  15.162  0.00  0.00    +0.000 A 
ATOM     12  C   UNL     1       5.465   6.353  15.556  0.00  0.00    +0.000 A 
ATOM     13  C   UNL     1       4.686   6.673  16.677  0.00  0.00    +0.000 A 
ATOM     14  C   UNL     1       4.017   5.677  17.446  0.00  0.00    +0.000 A 
ENDROOT
BRANCH   1  15
ATOM     15  N   UNL     1       3.023   7.279  19.009  0.00  0.00    +0.000 N 
ATOM     16  H   UNL     1       3.360   7.372  19.966  0.00  0.00    +0.000 HD
BRANCH  15  17
ATOM     17  C   UNL     1       1.815   8.075  18.763  0.00  0.00    +0.000 C 
ATOM     18  C   UNL     1       2.174   9.220  17.806  0.00  0.00    +0.000 C 
BRANCH  17  19
ATOM     19  C   UNL     1       1.174   8.624  20.048  0.00  0.00    +0.000 C 
BRANCH  19  20
ATOM     20  C   UNL     1       0.697  10.094  19.925  0.00  0.00    +0.000 C 
BRANCH  20  21
ATOM     21  C   UNL     1       0.880  10.957  21.197  0.00  0.00    +0.000 C 
BRANCH  21  22
ATOM     22  N   UNL     1      -0.376  11.466  21.793  0.00  0.00    +0.000 NA
BRANCH  22  24
ATOM     23  C   UNL     1      -2.178  13.058  20.981  0.00  0.00    +0.000 C 
ATOM     24  C   UNL     1      -1.346  11.799  20.727  0.00  0.00    +0.000 C 
ENDBRANCH  22  24
BRANCH  22  25
ATOM     25  C   UNL     1      -0.933  10.615  22.852  0.00  0.00    +0.000 C 
ATOM     26  C   UNL     1      -0.011   9.524  23.383  0.00  0.00    +0.000 C 
ENDBRANCH  22  25
ENDBRANCH  21  22
ENDBRANCH  20  21
ENDBRANCH  19  20
ENDBRANCH  17  19
ENDBRANCH  15  17
ENDBRANCH   1  15
TORSDOF 8
ENDMDL
MODEL 8
REMARK VINA RESULT:      -6.9      1.523      1.949
REMARK  Name = 
REMARK  11 active torsions:
REMARK  status: ('A' for Active; 'I' for Inactive)
REMARK    1  A    between atoms: C_1  and  C_2
REMARK    2  A    between atoms: C_2  and  N_3
REMARK    3  A    between atoms: N_3  and  C_4
REMARK    4  A    between atoms: N_3  and  C_6
REMARK    5  A    between atoms: C_4  and  C_5
REMARK    6  A    between atoms: C_6  and  C_7
REMARK    7  A    between atoms: C_7  and  C_8
REMARK    8  A    between atoms: C_8  and  C_9
REMARK    9  A    between atoms: C_9  and  C_10
REMARK   10  A    between atoms: C_9  and  N_11
REMARK   11  A    between atoms: N_11  and  C_12
REMARK                            x       y       z     vdW  Elec       q    Type
REMARK                         _______ _______ _______ _____ _____    ______ ____
ROOT
ATOM      1  C   UNL     1       3.097   5.755  18.945  0.00  0.00    +0.000 A 
ATOM      2  C   UNL     1       2.398   4.547  19.346  0.00  0.00    +0.000 A 
ATOM      3  C   UNL     1       1.403   4.366  20.359  0.00  0.00    +0.000 A 
ATOM      4  C   UNL     1       0.977   3.120  20.820  0.00  0.00    +0.000 A 
ATOM      5  C   UNL     1       1.460   1.987  20.212  0.00  0.00    +0.000 A 
ATOM      6  C   UNL     1       2.306   2.126  19.115  0.00  0.00    +0.000 A 
ATOM      7  C   UNL     1       2.758   3.363  18.669  0.00  0.00    +0.000 A 
ATOM      8  N   UNL     1       3.544   3.330  17.592  0.00  0.00    +0.000 NA
ATOM      9  C   UNL     1       4.090   4.452  17.131  0.00  0.00    +0.000 A 
ATOM     10  C   UNL     1       4.843   4.345  15.969  0.00  0.00    +0.000 A 
ATOM     11  C   UNL     1       5.529   5.425  15.424  0.00  0.00    +0.000 A 
ATOM     12  C   UNL     1       5.457   6.652  16.062  0.00  0.00    +0.000 A 
ATOM     13  C   UNL     1       4.676   6.791  17.218  0.00  0.00    +0.000 A 
ATOM     14  C   UNL     1       3.950   5.700  17.778  0.00  0.00    +0.000 A 
ENDROOT
BRANCH   1  15
ATOM     15  N   UNL     1       3.006   7.021  19.611  0.00  0.00    +0.000 N 
ATOM     16  H   UNL     1       3.427   6.941  20.535  0.00  0.00    +0.000 HD
BRANCH  15  17
ATOM     17  C   UNL     1       1.791   7.845  19.623  0.00  0.00    +0.000 C 
ATOM     18  C   UNL     1       1.854   8.821  18.441  0.00  0.00    +0.000 C 
BRANCH  17  19
ATOM     19  C   UNL     1       1.583   8.606  20.943  0.00  0.00    +0.000 C 
BRANCH  19  20
ATOM     20  C   UNL     1       0.104   8.658  21.404  0.00  0.00    +0.000 C 
BRANCH  20  21
ATOM     21  C   UNL     1      -0.514  10.075  21.482  0.00  0.00    +0.000 C 
BRANCH  21  22
ATOM     22  N   UNL     1      -0.118  10.990  20.388  0.00  0.00    +0.000 NA
BRANCH  22  24
ATOM     23  C   UNL     1      -1.502  10.378  18.351  0.00  0.00    +0.000 C 
ATOM     24  C   UNL     1      -1.290  11.311  19.544  0.00  0.00    +0.000 C 
ENDBRANCH  22  24
BRANCH  22  25
ATOM     25  C   UNL     1       0.632  12.174  20.829  0.00  0.00    +0.000 C 
ATOM     26  C   UNL     1       1.692  12.688  19.863  0.00  0.00    +0.000 C 
ENDBRANCH  22  25
ENDBRANCH  21  22
ENDBRANCH  20  21
ENDBRANCH  19  20
ENDBRANCH  17  19
ENDBRANCH  15  17
ENDBRANCH   1  15
TORSDOF 8
ENDMDL
MODEL 9
REMARK VINA RESULT:      -6.9      1.901      4.215
REMARK  Name = 
REMARK  11 active torsions:
REMARK  status: ('A' for Active; 'I' for Inactive)
REMARK    1  A    between atoms: C_1  and  C_2
REMARK    2  A    between atoms: C_2  and  N_3
REMARK    3  A    between atoms: N_3  and  C_4
REMARK    4  A    between atoms: N_3  and  C_6
REMARK    5  A    between atoms: C_4  and  C_5
REMARK    6  A    between atoms: C_6  and  C_7
REMARK    7  A    between atoms: C_7  and  C_8
REMARK    8  A    between atoms: C_8  and  C_9
REMARK    9  A    between atoms: C_9  and  C_10
REMARK   10  A    between atoms: C_9  and  N_11
REMARK   11  A    between atoms: N_11  and  C_12
REMARK                            x       y       z     vdW  Elec       q    Type
REMARK                         _______ _______ _______ _____ _____    ______ ____
ROOT
ATOM      1  C   UNL     1       3.187   5.984  18.750  0.00  0.00    +0.000 A 
ATOM      2  C   UNL     1       4.105   5.800  17.640  0.00  0.00    +0.000 A 
ATOM      3  C   UNL     1       4.944   6.757  16.985  0.00  0.00    +0.000 A 
ATOM      4  C   UNL     1       5.603   6.520  15.778  0.00  0.00    +0.000 A 
ATOM      5  C   UNL     1       5.530   5.268  15.217  0.00  0.00    +0.000 A 
ATOM      6  C   UNL     1       4.858   4.265  15.908  0.00  0.00    +0.000 A 
ATOM      7  C   UNL     1       4.174   4.499  17.096  0.00  0.00    +0.000 A 
ATOM      8  N   UNL     1       3.601   3.429  17.647  0.00  0.00    +0.000 NA
ATOM      9  C   UNL     1       2.859   3.561  18.744  0.00  0.00    +0.000 A 
ATOM     10  C   UNL     1       2.350   2.392  19.294  0.00  0.00    +0.000 A 
ATOM     11  C   UNL     1       1.499   2.397  20.394  0.00  0.00    +0.000 A 
ATOM     12  C   UNL     1       1.150   3.610  20.964  0.00  0.00    +0.000 A 
ATOM     13  C   UNL     1       1.680   4.800  20.446  0.00  0.00    +0.000 A 
ATOM     14  C   UNL     1       2.569   4.813  19.331  0.00  0.00    +0.000 A 
ENDROOT
BRANCH   1  15
ATOM     15  N   UNL     1       2.842   7.246  19.334  0.00  0.00    +0.000 N 
ATOM     16  H   UNL     1       2.912   7.172  20.348  0.00  0.00    +0.000 HD
BRANCH  15  17
ATOM     17  C   UNL     1       1.686   8.047  18.913  0.00  0.00    +0.000 C 
ATOM     18  C   UNL     1       2.131   8.987  17.784  0.00  0.00    +0.000 C 
BRANCH  17  19
ATOM     19  C   UNL     1       1.046   8.845  20.060  0.00  0.00    +0.000 C 
BRANCH  19  20
ATOM     20  C   UNL     1       0.747  10.323  19.698  0.00  0.00    +0.000 C 
BRANCH  20  21
ATOM     21  C   UNL     1      -0.701  10.791  19.977  0.00  0.00    +0.000 C 
BRANCH  21  22
ATOM     22  N   UNL     1      -1.415  11.346  18.805  0.00  0.00    +0.000 NA
BRANCH  22  24
ATOM     23  C   UNL     1      -2.924   9.703  17.596  0.00  0.00    +0.000 C 
ATOM     24  C   UNL     1      -1.532  10.319  17.747  0.00  0.00    +0.000 C 
ENDBRANCH  22  24
BRANCH  22  25
ATOM     25  C   UNL     1      -2.686  12.009  19.127  0.00  0.00    +0.000 C 
ATOM     26  C   UNL     1      -2.751  12.704  20.482  0.00  0.00    +0.000 C 
ENDBRANCH  22  25
ENDBRANCH  21  22
ENDBRANCH  20  21
ENDBRANCH  19  20
ENDBRANCH  17  19
ENDBRANCH  15  17
ENDBRANCH   1  15
TORSDOF 8
ENDMDL
