MODEL 1
REMARK VINA RESULT:      -8.3      0.000      0.000
REMARK  Name = 
REMARK  8 active torsions:
REMARK  status: ('A' for Active; 'I' for Inactive)
REMARK    1  A    between atoms: C_1  and  O_2
REMARK    2  A    between atoms: O_2  and  C_3
REMARK    3  A    between atoms: C_6  and  C_7
REMARK    4  A    between atoms: C_13  and  C_14
REMARK    5  A    between atoms: C_15  and  C_16
REMARK    6  A    between atoms: C_16  and  C_17
REMARK    7  A    between atoms: C_26  and  O_27
REMARK    8  A    between atoms: O_27  and  C_28
REMARK                            x       y       z     vdW  Elec       q    Type
REMARK                         _______ _______ _______ _____ _____    ______ ____
ROOT
ATOM      1  C   UNL     1       1.953   6.367  19.881  0.00  0.00    +0.000 A 
ATOM      2  C   UNL     1       1.407   5.596  20.836  0.00  0.00    +0.000 A 
ATOM      3  C   UNL     1       1.684   4.132  20.830  0.00  0.00    +0.000 A 
ATOM      4  O   UNL     1       1.207   3.355  21.645  0.00  0.00    +0.000 OA
ATOM      5  N   UNL     1       2.538   3.716  19.789  0.00  0.00    +0.000 N 
ATOM      6  N   UNL     1       2.897   2.426  19.590  0.00  0.00    +0.000 NA
ATOM      7  C   UNL     1       3.685   2.463  18.506  0.00  0.00    +0.000 A 
ATOM      8  C   UNL     1       4.237   1.185  17.986  0.00  0.00    +0.000 C 
ATOM      9  C   UNL     1       3.842   3.788  17.984  0.00  0.00    +0.000 A 
ATOM     10  C   UNL     1       3.078   4.554  18.834  0.00  0.00    +0.000 A 
ATOM     11  N   UNL     1       2.768   5.869  18.885  0.00  0.00    +0.000 N 
ATOM     12  H   UNL     1       3.135   6.548  18.223  0.00  0.00    +0.000 HD
ENDROOT
BRANCH   1  16
ATOM     13  C   UNL     1       1.093  10.554  19.811  0.00  0.00    +0.000 A 
ATOM     14  C   UNL     1       1.546   9.891  18.657  0.00  0.00    +0.000 A 
ATOM     15  C   UNL     1       1.824   8.525  18.674  0.00  0.00    +0.000 A 
ATOM     16  C   UNL     1       1.690   7.807  19.860  0.00  0.00    +0.000 A 
ATOM     17  C   UNL     1       1.322   8.478  21.029  0.00  0.00    +0.000 A 
ATOM     18  C   UNL     1       1.028   9.850  21.024  0.00  0.00    +0.000 A 
BRANCH  13  20
ATOM     19  C   UNL     1      -0.312  12.178  18.836  0.00  0.00    +0.000 C 
ATOM     20  O   UNL     1       0.730  11.874  19.765  0.00  0.00    +0.000 OA
ENDBRANCH  13  20
BRANCH  18  21
ATOM     21  O   UNL     1       0.684  10.297  22.270  0.00  0.00    +0.000 OA
ATOM     22  C   UNL     1      -0.115   9.478  23.109  0.00  0.00    +0.000 C 
ENDBRANCH  18  21
ENDBRANCH   1  16
BRANCH   9  23
ATOM     23  C   UNL     1       4.556   4.234  16.756  0.00  0.00    +0.000 C 
BRANCH  23  24
ATOM     24  C   UNL     1       5.696   5.134  17.170  0.00  0.00    +0.000 A 
ATOM     25  C   UNL     1       5.726   6.475  16.760  0.00  0.00    +0.000 A 
ATOM     26  C   UNL     1       6.737   7.334  17.197  0.00  0.00    +0.000 A 
ATOM     27  C   UNL     1       7.729   6.869  18.056  0.00  0.00    +0.000 A 
ATOM     28  C   UNL     1       7.718   5.538  18.469  0.00  0.00    +0.000 A 
ATOM     29  C   UNL     1       6.712   4.676  18.027  0.00  0.00    +0.000 A 
ENDBRANCH  23  24
ENDBRANCH   9  23
TORSDOF 5
ENDMDL
MODEL 2
REMARK VINA RESULT:      -8.2      0.481      1.030
REMARK  Name = 
REMARK  8 active torsions:
REMARK  status: ('A' for Active; 'I' for Inactive)
REMARK    1  A    between atoms: C_1  and  O_2
REMARK    2  A    between atoms: O_2  and  C_3
REMARK    3  A    between atoms: C_6  and  C_7
REMARK    4  A    between atoms: C_13  and  C_14
REMARK    5  A    between atoms: C_15  and  C_16
REMARK    6  A    between atoms: C_16  and  C_17
REMARK    7  A    between atoms: C_26  and  O_27
REMARK    8  A    between atoms: O_27  and  C_28
REMARK                            x       y       z     vdW  Elec       q    Type
REMARK                         _______ _______ _______ _____ _____    ______ ____
ROOT
ATOM      1  C   UNL     1       1.924   6.317  19.922  0.00  0.00    +0.000 A 
ATOM      2  C   UNL     1       1.331   5.517  20.825  0.00  0.00    +0.000 A 
ATOM      3  C   UNL     1       1.602   4.052  20.783  0.00  0.00    +0.000 A 
ATOM      4  O   UNL     1       1.085   3.251  21.548  0.00  0.00    +0.000 OA
ATOM      5  N   UNL     1       2.502   3.666  19.769  0.00  0.00    +0.000 N 
ATOM      6  N   UNL     1       2.865   2.382  19.543  0.00  0.00    +0.000 NA
ATOM      7  C   UNL     1       3.702   2.451  18.499  0.00  0.00    +0.000 A 
ATOM      8  C   UNL     1       4.272   1.188  17.962  0.00  0.00    +0.000 C 
ATOM      9  C   UNL     1       3.888   3.791  18.029  0.00  0.00    +0.000 A 
ATOM     10  C   UNL     1       3.089   4.533  18.868  0.00  0.00    +0.000 A 
ATOM     11  N   UNL     1       2.781   5.847  18.949  0.00  0.00    +0.000 N 
ATOM     12  H   UNL     1       3.182   6.546  18.327  0.00  0.00    +0.000 HD
ENDROOT
BRANCH   1  16
ATOM     13  C   UNL     1       1.083  10.507  19.958  0.00  0.00    +0.000 A 
ATOM     14  C   UNL     1       1.515   9.869  18.783  0.00  0.00    +0.000 A 
ATOM     15  C   UNL     1       1.787   8.502  18.765  0.00  0.00    +0.000 A 
ATOM     16  C   UNL     1       1.667   7.757  19.937  0.00  0.00    +0.000 A 
ATOM     17  C   UNL     1       1.320   8.404  21.127  0.00  0.00    +0.000 A 
ATOM     18  C   UNL     1       1.033   9.777  21.156  0.00  0.00    +0.000 A 
BRANCH  13  20
ATOM     19  C   UNL     1       1.819  12.747  19.867  0.00  0.00    +0.000 C 
ATOM     20  O   UNL     1       0.726  11.831  19.947  0.00  0.00    +0.000 OA
ENDBRANCH  13  20
BRANCH  18  21
ATOM     21  O   UNL     1       0.710  10.198  22.417  0.00  0.00    +0.000 OA
ATOM     22  C   UNL     1      -0.417   9.638  23.071  0.00  0.00    +0.000 C 
ENDBRANCH  18  21
ENDBRANCH   1  16
BRANCH   9  23
ATOM     23  C   UNL     1       4.660   4.275  16.851  0.00  0.00    +0.000 C 
BRANCH  23  24
ATOM     24  C   UNL     1       5.735   5.215  17.340  0.00  0.00    +0.000 A 
ATOM     25  C   UNL     1       6.743   4.756  18.200  0.00  0.00    +0.000 A 
ATOM     26  C   UNL     1       7.782   5.600  18.600  0.00  0.00    +0.000 A 
ATOM     27  C   UNL     1       7.833   6.913  18.141  0.00  0.00    +0.000 A 
ATOM     28  C   UNL     1       6.838   7.389  17.290  0.00  0.00    +0.000 A 
ATOM     29  C   UNL     1       5.794   6.548  16.896  0.00  0.00    +0.000 A 
ENDBRANCH  23  24
ENDBRANCH   9  23
TORSDOF 5
ENDMDL
MODEL 3
REMARK VINA RESULT:      -8.0      3.250      8.297
REMARK  Name = 
REMARK  8 active torsions:
REMARK  status: ('A' for Active; 'I' for Inactive)
REMARK    1  A    between atoms: C_1  and  O_2
REMARK    2  A    between atoms: O_2  and  C_3
REMARK    3  A    between atoms: C_6  and  C_7
REMARK    4  A    between atoms: C_13  and  C_14
REMARK    5  A    between atoms: C_15  and  C_16
REMARK    6  A    between atoms: C_16  and  C_17
REMARK    7  A    between atoms: C_26  and  O_27
REMARK    8  A    between atoms: O_27  and  C_28
REMARK                            x       y       z     vdW  Elec       q    Type
REMARK                         _______ _______ _______ _____ _____    ______ ____
ROOT
ATOM      1  C   UNL     1       1.082   8.944  20.644  0.00  0.00    +0.000 A 
ATOM      2  C   UNL     1       1.080   8.733  21.971  0.00  0.00    +0.000 A 
ATOM      3  C   UNL     1       0.328   9.670  22.853  0.00  0.00    +0.000 A 
ATOM      4  O   UNL     1       0.296   9.566  24.071  0.00  0.00    +0.000 OA
ATOM      5  N   UNL     1      -0.336  10.700  22.158  0.00  0.00    +0.000 N 
ATOM      6  N   UNL     1      -1.056  11.669  22.770  0.00  0.00    +0.000 NA
ATOM      7  C   UNL     1      -1.494  12.442  21.767  0.00  0.00    +0.000 A 
ATOM      8  C   UNL     1      -2.306  13.642  22.099  0.00  0.00    +0.000 C 
ATOM      9  C   UNL     1      -1.055  11.982  20.484  0.00  0.00    +0.000 A 
ATOM     10  C   UNL     1      -0.306  10.869  20.788  0.00  0.00    +0.000 A 
ATOM     11  N   UNL     1       0.414   9.995  20.049  0.00  0.00    +0.000 N 
ATOM     12  H   UNL     1       0.475  10.049  19.035  0.00  0.00    +0.000 HD
ENDROOT
BRANCH   1  16
ATOM     13  C   UNL     1       3.316   6.339  18.097  0.00  0.00    +0.000 A 
ATOM     14  C   UNL     1       2.895   7.602  17.646  0.00  0.00    +0.000 A 
ATOM     15  C   UNL     1       2.169   8.456  18.474  0.00  0.00    +0.000 A 
ATOM     16  C   UNL     1       1.820   8.043  19.758  0.00  0.00    +0.000 A 
ATOM     17  C   UNL     1       2.163   6.756  20.181  0.00  0.00    +0.000 A 
ATOM     18  C   UNL     1       2.902   5.890  19.361  0.00  0.00    +0.000 A 
BRANCH  13  20
ATOM     19  C   UNL     1       5.088   6.243  16.542  0.00  0.00    +0.000 C 
ATOM     20  O   UNL     1       4.110   5.543  17.313  0.00  0.00    +0.000 OA
ENDBRANCH  13  20
BRANCH  18  21
ATOM     21  O   UNL     1       3.133   4.689  19.974  0.00  0.00    +0.000 OA
ATOM     22  C   UNL     1       2.251   4.246  20.992  0.00  0.00    +0.000 C 
ENDBRANCH  18  21
ENDBRANCH   1  16
BRANCH   9  23
ATOM     23  C   UNL     1      -1.251  12.605  19.145  0.00  0.00    +0.000 C 
BRANCH  23  24
ATOM     24  C   UNL     1      -2.167  11.718  18.337  0.00  0.00    +0.000 A 
ATOM     25  C   UNL     1      -1.640  10.827  17.392  0.00  0.00    +0.000 A 
ATOM     26  C   UNL     1      -2.473   9.950  16.692  0.00  0.00    +0.000 A 
ATOM     27  C   UNL     1      -3.845   9.947  16.931  0.00  0.00    +0.000 A 
ATOM     28  C   UNL     1      -4.387  10.829  17.863  0.00  0.00    +0.000 A 
ATOM     29  C   UNL     1      -3.556  11.711  18.558  0.00  0.00    +0.000 A 
ENDBRANCH  23  24
ENDBRANCH   9  23
TORSDOF 5
ENDMDL
MODEL 4
REMARK VINA RESULT:      -8.0      3.006      7.460
REMARK  Name = 
REMARK  8 active torsions:
REMARK  status: ('A' for Active; 'I' for Inactive)
REMARK    1  A    between atoms: C_1  and  O_2
REMARK    2  A    between atoms: O_2  and  C_3
REMARK    3  A    between atoms: C_6  and  C_7
REMARK    4  A    between atoms: C_13  and  C_14
REMARK    5  A    between atoms: C_15  and  C_16
REMARK    6  A    between atoms: C_16  and  C_17
REMARK    7  A    between atoms: C_26  and  O_27
REMARK    8  A    between atoms: O_27  and  C_28
REMARK                            x       y       z     vdW  Elec       q    Type
REMARK                         _______ _______ _______ _____ _____    ______ ____
ROOT
ATOM      1  C   UNL     1       3.629   5.982  18.631  0.00  0.00    +0.000 A 
ATOM      2  C   UNL     1       3.272   5.024  19.504  0.00  0.00    +0.000 A 
ATOM      3  C   UNL     1       2.253   5.337  20.545  0.00  0.00    +0.000 A 
ATOM      4  O   UNL     1       1.890   4.533  21.393  0.00  0.00    +0.000 OA
ATOM      5  N   UNL     1       1.748   6.650  20.475  0.00  0.00    +0.000 N 
ATOM      6  N   UNL     1       0.831   7.145  21.340  0.00  0.00    +0.000 NA
ATOM      7  C   UNL     1       0.644   8.410  20.940  0.00  0.00    +0.000 A 
ATOM      8  C   UNL     1      -0.297   9.265  21.709  0.00  0.00    +0.000 C 
ATOM      9  C   UNL     1       1.447   8.754  19.805  0.00  0.00    +0.000 A 
ATOM     10  C   UNL     1       2.146   7.596  19.551  0.00  0.00    +0.000 A 
ATOM     11  N   UNL     1       3.092   7.253  18.648  0.00  0.00    +0.000 N 
ATOM     12  H   UNL     1       3.428   7.892  17.932  0.00  0.00    +0.000 HD
ENDROOT
BRANCH   1  16
ATOM     13  C   UNL     1       6.528   5.231  15.582  0.00  0.00    +0.000 A 
ATOM     14  C   UNL     1       5.407   4.396  15.733  0.00  0.00    +0.000 A 
ATOM     15  C   UNL     1       4.457   4.640  16.723  0.00  0.00    +0.000 A 
ATOM     16  C   UNL     1       4.634   5.703  17.606  0.00  0.00    +0.000 A 
ATOM     17  C   UNL     1       5.790   6.484  17.514  0.00  0.00    +0.000 A 
ATOM     18  C   UNL     1       6.749   6.257  16.515  0.00  0.00    +0.000 A 
BRANCH  13  20
ATOM     19  C   UNL     1       6.855   4.404  13.398  0.00  0.00    +0.000 C 
ATOM     20  O   UNL     1       7.408   5.045  14.548  0.00  0.00    +0.000 OA
ENDBRANCH  13  20
BRANCH  18  21
ATOM     21  O   UNL     1       7.790   7.140  16.606  0.00  0.00    +0.000 OA
ATOM     22  C   UNL     1       7.786   8.120  17.630  0.00  0.00    +0.000 C 
ENDBRANCH  18  21
ENDBRANCH   1  16
BRANCH   9  23
ATOM     23  C   UNL     1       1.593  10.070  19.122  0.00  0.00    +0.000 C 
BRANCH  23  24
ATOM     24  C   UNL     1       0.244  10.476  18.579  0.00  0.00    +0.000 A 
ATOM     25  C   UNL     1      -0.465   9.618  17.727  0.00  0.00    +0.000 A 
ATOM     26  C   UNL     1      -1.745   9.952  17.278  0.00  0.00    +0.000 A 
ATOM     27  C   UNL     1      -2.338  11.146  17.679  0.00  0.00    +0.000 A 
ATOM     28  C   UNL     1      -1.646  12.014  18.521  0.00  0.00    +0.000 A 
ATOM     29  C   UNL     1      -0.363  11.684  18.965  0.00  0.00    +0.000 A 
ENDBRANCH  23  24
ENDBRANCH   9  23
TORSDOF 5
ENDMDL
MODEL 5
REMARK VINA RESULT:      -7.7      0.952      1.233
REMARK  Name = 
REMARK  8 active torsions:
REMARK  status: ('A' for Active; 'I' for Inactive)
REMARK    1  A    between atoms: C_1  and  O_2
REMARK    2  A    between atoms: O_2  and  C_3
REMARK    3  A    between atoms: C_6  and  C_7
REMARK    4  A    between atoms: C_13  and  C_14
REMARK    5  A    between atoms: C_15  and  C_16
REMARK    6  A    between atoms: C_16  and  C_17
REMARK    7  A    between atoms: C_26  and  O_27
REMARK    8  A    between atoms: O_27  and  C_28
REMARK                            x       y       z     vdW  Elec       q    Type
REMARK                         _______ _______ _______ _____ _____    ______ ____
ROOT
ATOM      1  C   UNL     1       2.044   6.390  20.021  0.00  0.00    +0.000 A 
ATOM      2  C   UNL     1       1.931   5.733  21.188  0.00  0.00    +0.000 A 
ATOM      3  C   UNL     1       2.292   4.288  21.243  0.00  0.00    +0.000 A 
ATOM      4  O   UNL     1       2.194   3.609  22.255  0.00  0.00    +0.000 OA
ATOM      5  N   UNL     1       2.745   3.765  20.015  0.00  0.00    +0.000 N 
ATOM      6  N   UNL     1       3.101   2.471  19.841  0.00  0.00    +0.000 NA
ATOM      7  C   UNL     1       3.445   2.390  18.549  0.00  0.00    +0.000 A 
ATOM      8  C   UNL     1       3.864   1.072  18.007  0.00  0.00    +0.000 C 
ATOM      9  C   UNL     1       3.310   3.641  17.863  0.00  0.00    +0.000 A 
ATOM     10  C   UNL     1       2.847   4.488  18.843  0.00  0.00    +0.000 A 
ATOM     11  N   UNL     1       2.482   5.791  18.859  0.00  0.00    +0.000 N 
ATOM     12  H   UNL     1       2.540   6.389  18.038  0.00  0.00    +0.000 HD
ENDROOT
BRANCH   1  16
ATOM     13  C   UNL     1       0.915  10.506  19.779  0.00  0.00    +0.000 A 
ATOM     14  C   UNL     1       1.379   9.817  18.644  0.00  0.00    +0.000 A 
ATOM     15  C   UNL     1       1.745   8.474  18.718  0.00  0.00    +0.000 A 
ATOM     16  C   UNL     1       1.688   7.807  19.940  0.00  0.00    +0.000 A 
ATOM     17  C   UNL     1       1.309   8.511  21.087  0.00  0.00    +0.000 A 
ATOM     18  C   UNL     1       0.928   9.860  21.026  0.00  0.00    +0.000 A 
BRANCH  13  20
ATOM     19  C   UNL     1      -0.839  11.938  19.119  0.00  0.00    +0.000 C 
ATOM     20  O   UNL     1       0.467  11.797  19.681  0.00  0.00    +0.000 OA
ENDBRANCH  13  20
BRANCH  18  21
ATOM     21  O   UNL     1       0.589  10.345  22.258  0.00  0.00    +0.000 OA
ATOM     22  C   UNL     1      -0.377   9.658  23.036  0.00  0.00    +0.000 C 
ENDBRANCH  18  21
ENDBRANCH   1  16
BRANCH   9  23
ATOM     23  C   UNL     1       3.505   3.946  16.418  0.00  0.00    +0.000 C 
BRANCH  23  24
ATOM     24  C   UNL     1       4.964   4.261  16.192  0.00  0.00    +0.000 A 
ATOM     25  C   UNL     1       5.492   4.283  14.893  0.00  0.00    +0.000 A 
ATOM     26  C   UNL     1       6.822   4.644  14.668  0.00  0.00    +0.000 A 
ATOM     27  C   UNL     1       7.643   4.996  15.736  0.00  0.00    +0.000 A 
ATOM     28  C   UNL     1       7.137   4.975  17.033  0.00  0.00    +0.000 A 
ATOM     29  C   UNL     1       5.809   4.606  17.261  0.00  0.00    +0.000 A 
ENDBRANCH  23  24
ENDBRANCH   9  23
TORSDOF 5
ENDMDL
MODEL 6
REMARK VINA RESULT:      -7.7      1.048      1.464
REMARK  Name = 
REMARK  8 active torsions:
REMARK  status: ('A' for Active; 'I' for Inactive)
REMARK    1  A    between atoms: C_1  and  O_2
REMARK    2  A    between atoms: O_2  and  C_3
REMARK    3  A    between atoms: C_6  and  C_7
REMARK    4  A    between atoms: C_13  and  C_14
REMARK    5  A    between atoms: C_15  and  C_16
REMARK    6  A    between atoms: C_16  and  C_17
REMARK    7  A    between atoms: C_26  and  O_27
REMARK    8  A    between atoms: O_27  and  C_28
REMARK                            x       y       z     vdW  Elec       q    Type
REMARK                         _______ _______ _______ _____ _____    ______ ____
ROOT
ATOM      1  C   UNL     1       2.079   6.417  19.913  0.00  0.00    +0.000 A 
ATOM      2  C   UNL     1       1.968   5.809  21.107  0.00  0.00    +0.000 A 
ATOM      3  C   UNL     1       2.319   4.365  21.219  0.00  0.00    +0.000 A 
ATOM      4  O   UNL     1       2.222   3.729  22.259  0.00  0.00    +0.000 OA
ATOM      5  N   UNL     1       2.763   3.789  20.013  0.00  0.00    +0.000 N 
ATOM      6  N   UNL     1       3.110   2.486  19.891  0.00  0.00    +0.000 NA
ATOM      7  C   UNL     1       3.447   2.350  18.601  0.00  0.00    +0.000 A 
ATOM      8  C   UNL     1       3.856   1.007  18.112  0.00  0.00    +0.000 C 
ATOM      9  C   UNL     1       3.317   3.572  17.865  0.00  0.00    +0.000 A 
ATOM     10  C   UNL     1       2.864   4.462  18.811  0.00  0.00    +0.000 A 
ATOM     11  N   UNL     1       2.508   5.767  18.775  0.00  0.00    +0.000 N 
ATOM     12  H   UNL     1       2.565   6.330  17.930  0.00  0.00    +0.000 HD
ENDROOT
BRANCH   1  16
ATOM     13  C   UNL     1       0.976  10.525  19.501  0.00  0.00    +0.000 A 
ATOM     14  C   UNL     1       1.480   9.801  18.407  0.00  0.00    +0.000 A 
ATOM     15  C   UNL     1       1.838   8.460  18.536  0.00  0.00    +0.000 A 
ATOM     16  C   UNL     1       1.732   7.831  19.775  0.00  0.00    +0.000 A 
ATOM     17  C   UNL     1       1.311   8.570  20.884  0.00  0.00    +0.000 A 
ATOM     18  C   UNL     1       0.938   9.918  20.767  0.00  0.00    +0.000 A 
BRANCH  13  20
ATOM     19  C   UNL     1       1.539  12.746  18.940  0.00  0.00    +0.000 C 
ATOM     20  O   UNL     1       0.536  11.814  19.347  0.00  0.00    +0.000 OA
ENDBRANCH  13  20
BRANCH  18  21
ATOM     21  O   UNL     1       0.553  10.442  21.970  0.00  0.00    +0.000 OA
ATOM     22  C   UNL     1      -0.057   9.599  22.934  0.00  0.00    +0.000 C 
ENDBRANCH  18  21
ENDBRANCH   1  16
BRANCH   9  23
ATOM     23  C   UNL     1       3.507   3.815  16.408  0.00  0.00    +0.000 C 
BRANCH  23  24
ATOM     24  C   UNL     1       4.936   4.246  16.180  0.00  0.00    +0.000 A 
ATOM     25  C   UNL     1       5.813   4.396  17.264  0.00  0.00    +0.000 A 
ATOM     26  C   UNL     1       7.155   4.723  17.058  0.00  0.00    +0.000 A 
ATOM     27  C   UNL     1       7.643   4.899  15.766  0.00  0.00    +0.000 A 
ATOM     28  C   UNL     1       6.785   4.759  14.677  0.00  0.00    +0.000 A 
ATOM     29  C   UNL     1       5.441   4.440  14.882  0.00  0.00    +0.000 A 
ENDBRANCH  23  24
ENDBRANCH   9  23
TORSDOF 5
ENDMDL
MODEL 7
REMARK VINA RESULT:      -7.7      1.119      2.135
REMARK  Name = 
REMARK  8 active torsions:
REMARK  status: ('A' for Active; 'I' for Inactive)
REMARK    1  A    between atoms: C_1  and  O_2
REMARK    2  A    between atoms: O_2  and  C_3
REMARK    3  A    between atoms: C_6  and  C_7
REMARK    4  A    between atoms: C_13  and  C_14
REMARK    5  A    between atoms: C_15  and  C_16
REMARK    6  A    between atoms: C_16  and  C_17
REMARK    7  A    between atoms: C_26  and  O_27
REMARK    8  A    between atoms: O_27  and  C_28
REMARK                            x       y       z     vdW  Elec       q    Type
REMARK                         _______ _______ _______ _____ _____    ______ ____
ROOT
ATOM      1  C   UNL     1       1.761   6.751  20.214  0.00  0.00    +0.000 A 
ATOM      2  C   UNL     1       1.209   5.749  20.921  0.00  0.00    +0.000 A 
ATOM      3  C   UNL     1       1.561   4.342  20.578  0.00  0.00    +0.000 A 
ATOM      4  O   UNL     1       1.086   3.373  21.152  0.00  0.00    +0.000 OA
ATOM      5  N   UNL     1       2.485   4.225  19.521  0.00  0.00    +0.000 N 
ATOM      6  N   UNL     1       2.919   3.037  19.037  0.00  0.00    +0.000 NA
ATOM      7  C   UNL     1       3.756   3.368  18.044  0.00  0.00    +0.000 A 
ATOM      8  C   UNL     1       4.397   2.278  17.264  0.00  0.00    +0.000 C 
ATOM      9  C   UNL     1       3.869   4.785  17.866  0.00  0.00    +0.000 A 
ATOM     10  C   UNL     1       3.027   5.291  18.829  0.00  0.00    +0.000 A 
ATOM     11  N   UNL     1       2.647   6.541  19.178  0.00  0.00    +0.000 N 
ATOM     12  H   UNL     1       3.011   7.374  18.722  0.00  0.00    +0.000 HD
ENDROOT
BRANCH   1  16
ATOM     13  C   UNL     1       0.868  10.830  21.125  0.00  0.00    +0.000 A 
ATOM     14  C   UNL     1       0.859   9.848  22.131  0.00  0.00    +0.000 A 
ATOM     15  C   UNL     1       1.153   8.517  21.839  0.00  0.00    +0.000 A 
ATOM     16  C   UNL     1       1.425   8.140  20.525  0.00  0.00    +0.000 A 
ATOM     17  C   UNL     1       1.351   9.097  19.509  0.00  0.00    +0.000 A 
ATOM     18  C   UNL     1       1.067  10.442  19.789  0.00  0.00    +0.000 A 
BRANCH  13  20
ATOM     19  C   UNL     1      -0.563  12.439  22.087  0.00  0.00    +0.000 C 
ATOM     20  O   UNL     1       0.673  12.152  21.432  0.00  0.00    +0.000 OA
ENDBRANCH  13  20
BRANCH  18  21
ATOM     21  O   UNL     1       1.053  11.203  18.653  0.00  0.00    +0.000 OA
ATOM     22  C   UNL     1       2.192  11.979  18.319  0.00  0.00    +0.000 C 
ENDBRANCH  18  21
ENDBRANCH   1  16
BRANCH   9  23
ATOM     23  C   UNL     1       4.618   5.544  16.827  0.00  0.00    +0.000 C 
BRANCH  23  24
ATOM     24  C   UNL     1       5.854   6.131  17.465  0.00  0.00    +0.000 A 
ATOM     25  C   UNL     1       6.552   5.417  18.450  0.00  0.00    +0.000 A 
ATOM     26  C   UNL     1       7.736   5.919  18.994  0.00  0.00    +0.000 A 
ATOM     27  C   UNL     1       8.245   7.139  18.558  0.00  0.00    +0.000 A 
ATOM     28  C   UNL     1       7.563   7.866  17.584  0.00  0.00    +0.000 A 
ATOM     29  C   UNL     1       6.374   7.368  17.045  0.00  0.00    +0.000 A 
ENDBRANCH  23  24
ENDBRANCH   9  23
TORSDOF 5
ENDMDL
MODEL 8
REMARK VINA RESULT:      -7.6      3.221      8.350
REMARK  Name = 
REMARK  8 active torsions:
REMARK  status: ('A' for Active; 'I' for Inactive)
REMARK    1  A    between atoms: C_1  and  O_2
REMARK    2  A    between atoms: O_2  and  C_3
REMARK    3  A    between atoms: C_6  and  C_7
REMARK    4  A    between atoms: C_13  and  C_14
REMARK    5  A    between atoms: C_15  and  C_16
REMARK    6  A    between atoms: C_16  and  C_17
REMARK    7  A    between atoms: C_26  and  O_27
REMARK    8  A    between atoms: O_27  and  C_28
REMARK                            x       y       z     vdW  Elec       q    Type
REMARK                         _______ _______ _______ _____ _____    ______ ____
ROOT
ATOM      1  C   UNL     1       1.227   8.405  20.668  0.00  0.00    +0.000 A 
ATOM      2  C   UNL     1       1.171   8.420  22.011  0.00  0.00    +0.000 A 
ATOM      3  C   UNL     1       0.507   9.565  22.695  0.00  0.00    +0.000 A 
ATOM      4  O   UNL     1       0.434   9.671  23.911  0.00  0.00    +0.000 OA
ATOM      5  N   UNL     1      -0.023  10.529  21.814  0.00  0.00    +0.000 N 
ATOM      6  N   UNL     1      -0.645  11.657  22.228  0.00  0.00    +0.000 NA
ATOM      7  C   UNL     1      -0.972  12.294  21.095  0.00  0.00    +0.000 A 
ATOM      8  C   UNL     1      -1.653  13.610  21.192  0.00  0.00    +0.000 C 
ATOM      9  C   UNL     1      -0.556  11.582  19.924  0.00  0.00    +0.000 A 
ATOM     10  C   UNL     1       0.058  10.462  20.437  0.00  0.00    +0.000 A 
ATOM     11  N   UNL     1       0.694   9.406  19.882  0.00  0.00    +0.000 N 
ATOM     12  H   UNL     1       0.784   9.284  18.876  0.00  0.00    +0.000 HD
ENDROOT
BRANCH   1  16
ATOM     13  C   UNL     1       3.068   5.164  18.578  0.00  0.00    +0.000 A 
ATOM     14  C   UNL     1       2.342   4.939  19.761  0.00  0.00    +0.000 A 
ATOM     15  C   UNL     1       1.737   5.993  20.444  0.00  0.00    +0.000 A 
ATOM     16  C   UNL     1       1.881   7.297  19.973  0.00  0.00    +0.000 A 
ATOM     17  C   UNL     1       2.672   7.534  18.846  0.00  0.00    +0.000 A 
ATOM     18  C   UNL     1       3.279   6.482  18.142  0.00  0.00    +0.000 A 
BRANCH  13  20
ATOM     19  C   UNL     1       2.636   3.093  17.534  0.00  0.00    +0.000 C 
ATOM     20  O   UNL     1       3.580   4.115  17.859  0.00  0.00    +0.000 OA
ENDBRANCH  13  20
BRANCH  18  21
ATOM     21  O   UNL     1       3.997   6.938  17.072  0.00  0.00    +0.000 OA
ATOM     22  C   UNL     1       5.414   6.891  17.111  0.00  0.00    +0.000 C 
ENDBRANCH  18  21
ENDBRANCH   1  16
BRANCH   9  23
ATOM     23  C   UNL     1      -0.650  11.989  18.494  0.00  0.00    +0.000 C 
BRANCH  23  24
ATOM     24  C   UNL     1      -1.889  11.361  17.901  0.00  0.00    +0.000 A 
ATOM     25  C   UNL     1      -3.159  11.861  18.219  0.00  0.00    +0.000 A 
ATOM     26  C   UNL     1      -4.306  11.334  17.620  0.00  0.00    +0.000 A 
ATOM     27  C   UNL     1      -4.200  10.304  16.690  0.00  0.00    +0.000 A 
ATOM     28  C   UNL     1      -2.946   9.791  16.365  0.00  0.00    +0.000 A 
ATOM     29  C   UNL     1      -1.799  10.312  16.969  0.00  0.00    +0.000 A 
ENDBRANCH  23  24
ENDBRANCH   9  23
TORSDOF 5
ENDMDL
MODEL 9
REMARK VINA RESULT:      -7.6      3.076      7.938
REMARK  Name = 
REMARK  8 active torsions:
REMARK  status: ('A' for Active; 'I' for Inactive)
REMARK    1  A    between atoms: C_1  and  O_2
REMARK    2  A    between atoms: O_2  and  C_3
REMARK    3  A    between atoms: C_6  and  C_7
REMARK    4  A    between atoms: C_13  and  C_14
REMARK    5  A    between atoms: C_15  and  C_16
REMARK    6  A    between atoms: C_16  and  C_17
REMARK    7  A    between atoms: C_26  and  O_27
REMARK    8  A    between atoms: O_27  and  C_28
REMARK                            x       y       z     vdW  Elec       q    Type
REMARK                         _______ _______ _______ _____ _____    ______ ____
ROOT
ATOM      1  C   UNL     1       1.268   8.715  20.566  0.00  0.00    +0.000 A 
ATOM      2  C   UNL     1       1.107   8.575  21.893  0.00  0.00    +0.000 A 
ATOM      3  C   UNL     1       0.476   9.682  22.665  0.00  0.00    +0.000 A 
ATOM      4  O   UNL     1       0.315   9.649  23.877  0.00  0.00    +0.000 OA
ATOM      5  N   UNL     1       0.090  10.783  21.875  0.00  0.00    +0.000 N 
ATOM      6  N   UNL     1      -0.479  11.902  22.381  0.00  0.00    +0.000 NA
ATOM      7  C   UNL     1      -0.667  12.692  21.315  0.00  0.00    +0.000 A 
ATOM      8  C   UNL     1      -1.257  14.040  21.526  0.00  0.00    +0.000 C 
ATOM      9  C   UNL     1      -0.212  12.092  20.097  0.00  0.00    +0.000 A 
ATOM     10  C   UNL     1       0.275  10.873  20.509  0.00  0.00    +0.000 A 
ATOM     11  N   UNL     1       0.875   9.841  19.873  0.00  0.00    +0.000 N 
ATOM     12  H   UNL     1       1.035   9.831  18.869  0.00  0.00    +0.000 HD
ENDROOT
BRANCH   1  16
ATOM     13  C   UNL     1       3.172   5.603  18.337  0.00  0.00    +0.000 A 
ATOM     14  C   UNL     1       3.058   6.902  17.810  0.00  0.00    +0.000 A 
ATOM     15  C   UNL     1       2.442   7.920  18.535  0.00  0.00    +0.000 A 
ATOM     16  C   UNL     1       1.894   7.645  19.786  0.00  0.00    +0.000 A 
ATOM     17  C   UNL     1       1.929   6.337  20.277  0.00  0.00    +0.000 A 
ATOM     18  C   UNL     1       2.555   5.304  19.563  0.00  0.00    +0.000 A 
BRANCH  13  20
ATOM     19  C   UNL     1       5.234   4.498  18.039  0.00  0.00    +0.000 C 
ATOM     20  O   UNL     1       3.863   4.630  17.663  0.00  0.00    +0.000 OA
ENDBRANCH  13  20
BRANCH  18  21
ATOM     21  O   UNL     1       2.479   4.112  20.229  0.00  0.00    +0.000 OA
ATOM     22  C   UNL     1       1.211   3.517  20.450  0.00  0.00    +0.000 C 
ENDBRANCH  18  21
ENDBRANCH   1  16
BRANCH   9  23
ATOM     23  C   UNL     1      -0.163  12.671  18.725  0.00  0.00    +0.000 C 
BRANCH  23  24
ATOM     24  C   UNL     1       1.035  13.586  18.639  0.00  0.00    +0.000 A 
ATOM     25  C   UNL     1       2.303  13.068  18.340  0.00  0.00    +0.000 A 
ATOM     26  C   UNL     1       3.403  13.915  18.186  0.00  0.00    +0.000 A 
ATOM     27  C   UNL     1       3.252  15.292  18.322  0.00  0.00    +0.000 A 
ATOM     28  C   UNL     1       2.001  15.824  18.624  0.00  0.00    +0.000 A 
ATOM     29  C   UNL     1       0.901  14.978  18.786  0.00  0.00    +0.000 A 
ENDBRANCH  23  24
ENDBRANCH   9  23
TORSDOF 5
ENDMDL
