MODEL 1
REMARK VINA RESULT:      -7.3      0.000      0.000
REMARK  Name = 
REMARK  6 active torsions:
REMARK  status: ('A' for Active; 'I' for Inactive)
REMARK    1  A    between atoms: C_1  and  C_2
REMARK    2  A    between atoms: C_6  and  C_7
REMARK    3  A    between atoms: C_7  and  C_9
REMARK    4  A    between atoms: N_13  and  C_14
REMARK    5  A    between atoms: C_14  and  C_15
REMARK    6  A    between atoms: C_18  and  O_19
REMARK                            x       y       z     vdW  Elec       q    Type
REMARK                         _______ _______ _______ _____ _____    ______ ____
ROOT
ATOM      1  C   UNL     1       4.406   3.229  18.525  0.00  0.00    +0.000 C 
ATOM      2  C   UNL     1       3.334   2.180  18.180  0.00  0.00    +0.000 C 
ATOM      3  C   UNL     1       1.906   2.723  18.143  0.00  0.00    +0.000 C 
ATOM      4  C   UNL     1       1.583   3.710  19.268  0.00  0.00    +0.000 C 
ATOM      5  N   UNL     1       2.628   4.726  19.398  0.00  0.00    +0.000 NA
ATOM      6  C   UNL     1       3.931   4.125  19.678  0.00  0.00    +0.000 C 
ENDROOT
BRANCH   1   7
ATOM      7  C   UNL     1       4.895   4.053  17.308  0.00  0.00    +0.000 C 
ATOM      8  O   UNL     1       4.506   3.744  16.176  0.00  0.00    +0.000 OA
BRANCH   7  14
ATOM      9  C   UNL     1       4.990   6.934  15.814  0.00  0.00    +0.000 C 
ATOM     10  C   UNL     1       5.904   6.414  16.883  0.00  0.00    +0.000 A 
ATOM     11  C   UNL     1       6.981   7.222  17.387  0.00  0.00    +0.000 A 
ATOM     12  C   UNL     1       7.731   6.582  18.342  0.00  0.00    +0.000 A 
ATOM     13  S   UNL     1       7.151   5.016  18.641  0.00  0.00    +0.000 S 
ATOM     14  C   UNL     1       5.854   5.163  17.516  0.00  0.00    +0.000 A 
ENDBRANCH   7  14
ENDBRANCH   1   7
BRANCH   5  15
ATOM     15  C   UNL     1       2.278   5.838  20.295  0.00  0.00    +0.000 C 
BRANCH  15  16
ATOM     16  C   UNL     1       2.023   7.192  19.664  0.00  0.00    +0.000 A 
ATOM     17  C   UNL     1       1.382   8.219  20.378  0.00  0.00    +0.000 A 
ATOM     18  C   UNL     1       1.137   9.459  19.781  0.00  0.00    +0.000 A 
ATOM     19  C   UNL     1       1.544   9.682  18.471  0.00  0.00    +0.000 A 
ATOM     20  C   UNL     1       2.211   8.694  17.757  0.00  0.00    +0.000 A 
ATOM     21  C   UNL     1       2.449   7.452  18.351  0.00  0.00    +0.000 A 
BRANCH  19  22
ATOM     22  O   UNL     1       1.306  10.868  17.842  0.00  0.00    +0.000 OA
ATOM     23  H   UNL     1       1.802  10.881  17.007  0.00  0.00    +0.000 HD
ENDBRANCH  19  22
ENDBRANCH  15  16
ENDBRANCH   5  15
TORSDOF 5
ENDMDL
MODEL 2
REMARK VINA RESULT:      -7.2      2.009      4.362
REMARK  Name = 
REMARK  6 active torsions:
REMARK  status: ('A' for Active; 'I' for Inactive)
REMARK    1  A    between atoms: C_1  and  C_2
REMARK    2  A    between atoms: C_6  and  C_7
REMARK    3  A    between atoms: C_7  and  C_9
REMARK    4  A    between atoms: N_13  and  C_14
REMARK    5  A    between atoms: C_14  and  C_15
REMARK    6  A    between atoms: C_18  and  O_19
REMARK                            x       y       z     vdW  Elec       q    Type
REMARK                         _______ _______ _______ _____ _____    ______ ____
ROOT
ATOM      1  C   UNL     1       5.201   4.092  17.596  0.00  0.00    +0.000 C 
ATOM      2  C   UNL     1       6.673   4.537  17.660  0.00  0.00    +0.000 C 
ATOM      3  C   UNL     1       6.875   6.003  18.044  0.00  0.00    +0.000 C 
ATOM      4  C   UNL     1       5.879   6.964  17.389  0.00  0.00    +0.000 C 
ATOM      5  N   UNL     1       4.506   6.474  17.517  0.00  0.00    +0.000 NA
ATOM      6  C   UNL     1       4.345   5.159  16.899  0.00  0.00    +0.000 C 
ENDROOT
BRANCH   1   7
ATOM      7  C   UNL     1       4.611   3.673  18.967  0.00  0.00    +0.000 C 
ATOM      8  O   UNL     1       5.354   3.628  19.953  0.00  0.00    +0.000 OA
BRANCH   7  14
ATOM      9  C   UNL     1       2.488   4.377  21.319  0.00  0.00    +0.000 C 
ATOM     10  C   UNL     1       2.254   3.589  20.065  0.00  0.00    +0.000 A 
ATOM     11  C   UNL     1       0.956   3.046  19.769  0.00  0.00    +0.000 A 
ATOM     12  C   UNL     1       0.927   2.334  18.596  0.00  0.00    +0.000 A 
ATOM     13  S   UNL     1       2.447   2.313  17.843  0.00  0.00    +0.000 S 
ATOM     14  C   UNL     1       3.184   3.287  19.058  0.00  0.00    +0.000 A 
ENDBRANCH   7  14
ENDBRANCH   1   7
BRANCH   5  15
ATOM     15  C   UNL     1       3.480   7.450  17.121  0.00  0.00    +0.000 C 
BRANCH  15  16
ATOM     16  C   UNL     1       2.588   8.008  18.211  0.00  0.00    +0.000 A 
ATOM     17  C   UNL     1       1.862   9.196  18.021  0.00  0.00    +0.000 A 
ATOM     18  C   UNL     1       1.054   9.711  19.039  0.00  0.00    +0.000 A 
ATOM     19  C   UNL     1       0.957   9.030  20.247  0.00  0.00    +0.000 A 
ATOM     20  C   UNL     1       1.636   7.836  20.445  0.00  0.00    +0.000 A 
ATOM     21  C   UNL     1       2.450   7.326  19.431  0.00  0.00    +0.000 A 
BRANCH  19  22
ATOM     22  O   UNL     1       0.199   9.508  21.275  0.00  0.00    +0.000 OA
ATOM     23  H   UNL     1      -0.730   9.278  21.107  0.00  0.00    +0.000 HD
ENDBRANCH  19  22
ENDBRANCH  15  16
ENDBRANCH   5  15
TORSDOF 5
ENDMDL
MODEL 3
REMARK VINA RESULT:      -7.2      1.992      4.335
REMARK  Name = 
REMARK  6 active torsions:
REMARK  status: ('A' for Active; 'I' for Inactive)
REMARK    1  A    between atoms: C_1  and  C_2
REMARK    2  A    between atoms: C_6  and  C_7
REMARK    3  A    between atoms: C_7  and  C_9
REMARK    4  A    between atoms: N_13  and  C_14
REMARK    5  A    between atoms: C_14  and  C_15
REMARK    6  A    between atoms: C_18  and  O_19
REMARK                            x       y       z     vdW  Elec       q    Type
REMARK                         _______ _______ _______ _____ _____    ______ ____
ROOT
ATOM      1  C   UNL     1       5.177   4.106  17.571  0.00  0.00    +0.000 C 
ATOM      2  C   UNL     1       6.648   4.559  17.621  0.00  0.00    +0.000 C 
ATOM      3  C   UNL     1       6.845   6.028  17.994  0.00  0.00    +0.000 C 
ATOM      4  C   UNL     1       5.840   6.980  17.338  0.00  0.00    +0.000 C 
ATOM      5  N   UNL     1       4.471   6.484  17.478  0.00  0.00    +0.000 NA
ATOM      6  C   UNL     1       4.312   5.164  16.871  0.00  0.00    +0.000 C 
ENDROOT
BRANCH   1   7
ATOM      7  C   UNL     1       4.599   3.694  18.948  0.00  0.00    +0.000 C 
ATOM      8  O   UNL     1       5.348   3.657  19.929  0.00  0.00    +0.000 OA
BRANCH   7  14
ATOM      9  C   UNL     1       2.495   4.398  21.317  0.00  0.00    +0.000 C 
ATOM     10  C   UNL     1       2.251   3.608  20.066  0.00  0.00    +0.000 A 
ATOM     11  C   UNL     1       0.952   3.062  19.782  0.00  0.00    +0.000 A 
ATOM     12  C   UNL     1       0.914   2.349  18.611  0.00  0.00    +0.000 A 
ATOM     13  S   UNL     1       2.427   2.329  17.845  0.00  0.00    +0.000 S 
ATOM     14  C   UNL     1       3.172   3.306  19.053  0.00  0.00    +0.000 A 
ENDBRANCH   7  14
ENDBRANCH   1   7
BRANCH   5  15
ATOM     15  C   UNL     1       3.437   7.452  17.082  0.00  0.00    +0.000 C 
BRANCH  15  16
ATOM     16  C   UNL     1       2.570   8.037  18.177  0.00  0.00    +0.000 A 
ATOM     17  C   UNL     1       2.419   7.385  19.413  0.00  0.00    +0.000 A 
ATOM     18  C   UNL     1       1.603   7.925  20.412  0.00  0.00    +0.000 A 
ATOM     19  C   UNL     1       0.946   9.129  20.183  0.00  0.00    +0.000 A 
ATOM     20  C   UNL     1       1.108   9.809  18.984  0.00  0.00    +0.000 A 
ATOM     21  C   UNL     1       1.916   9.265  17.983  0.00  0.00    +0.000 A 
BRANCH  19  22
ATOM     22  O   UNL     1       0.123   9.681  21.120  0.00  0.00    +0.000 OA
ATOM     23  H   UNL     1       0.534   9.576  21.994  0.00  0.00    +0.000 HD
ENDBRANCH  19  22
ENDBRANCH  15  16
ENDBRANCH   5  15
TORSDOF 5
ENDMDL
MODEL 4
REMARK VINA RESULT:      -7.2      0.241      1.057
REMARK  Name = 
REMARK  6 active torsions:
REMARK  status: ('A' for Active; 'I' for Inactive)
REMARK    1  A    between atoms: C_1  and  C_2
REMARK    2  A    between atoms: C_6  and  C_7
REMARK    3  A    between atoms: C_7  and  C_9
REMARK    4  A    between atoms: N_13  and  C_14
REMARK    5  A    between atoms: C_14  and  C_15
REMARK    6  A    between atoms: C_18  and  O_19
REMARK                            x       y       z     vdW  Elec       q    Type
REMARK                         _______ _______ _______ _____ _____    ______ ____
ROOT
ATOM      1  C   UNL     1       4.498   3.326  18.861  0.00  0.00    +0.000 C 
ATOM      2  C   UNL     1       3.535   2.155  18.601  0.00  0.00    +0.000 C 
ATOM      3  C   UNL     1       2.063   2.556  18.502  0.00  0.00    +0.000 C 
ATOM      4  C   UNL     1       1.631   3.604  19.531  0.00  0.00    +0.000 C 
ATOM      5  N   UNL     1       2.574   4.721  19.580  0.00  0.00    +0.000 NA
ATOM      6  C   UNL     1       3.922   4.271  19.925  0.00  0.00    +0.000 C 
ENDROOT
BRANCH   1   7
ATOM      7  C   UNL     1       4.930   4.082  17.580  0.00  0.00    +0.000 C 
ATOM      8  O   UNL     1       4.494   3.710  16.485  0.00  0.00    +0.000 OA
BRANCH   7  14
ATOM      9  C   UNL     1       5.050   6.799  15.807  0.00  0.00    +0.000 C 
ATOM     10  C   UNL     1       5.954   6.385  16.930  0.00  0.00    +0.000 A 
ATOM     11  C   UNL     1       7.030   7.235  17.360  0.00  0.00    +0.000 A 
ATOM     12  C   UNL     1       7.769   6.690  18.379  0.00  0.00    +0.000 A 
ATOM     13  S   UNL     1       7.180   5.164  18.829  0.00  0.00    +0.000 S 
ATOM     14  C   UNL     1       5.893   5.204  17.684  0.00  0.00    +0.000 A 
ENDBRANCH   7  14
ENDBRANCH   1   7
BRANCH   5  15
ATOM     15  C   UNL     1       2.107   5.870  20.370  0.00  0.00    +0.000 C 
BRANCH  15  16
ATOM     16  C   UNL     1       1.970   7.199  19.658  0.00  0.00    +0.000 A 
ATOM     17  C   UNL     1       2.436   7.373  18.343  0.00  0.00    +0.000 A 
ATOM     18  C   UNL     1       2.319   8.609  17.701  0.00  0.00    +0.000 A 
ATOM     19  C   UNL     1       1.720   9.673  18.365  0.00  0.00    +0.000 A 
ATOM     20  C   UNL     1       1.219   9.516  19.651  0.00  0.00    +0.000 A 
ATOM     21  C   UNL     1       1.344   8.283  20.296  0.00  0.00    +0.000 A 
BRANCH  19  22
ATOM     22  O   UNL     1       1.605  10.902  17.786  0.00  0.00    +0.000 OA
ATOM     23  H   UNL     1       0.813  10.906  17.224  0.00  0.00    +0.000 HD
ENDBRANCH  19  22
ENDBRANCH  15  16
ENDBRANCH   5  15
TORSDOF 5
ENDMDL
MODEL 5
REMARK VINA RESULT:      -7.1      1.138      1.279
REMARK  Name = 
REMARK  6 active torsions:
REMARK  status: ('A' for Active; 'I' for Inactive)
REMARK    1  A    between atoms: C_1  and  C_2
REMARK    2  A    between atoms: C_6  and  C_7
REMARK    3  A    between atoms: C_7  and  C_9
REMARK    4  A    between atoms: N_13  and  C_14
REMARK    5  A    between atoms: C_14  and  C_15
REMARK    6  A    between atoms: C_18  and  O_19
REMARK                            x       y       z     vdW  Elec       q    Type
REMARK                         _______ _______ _______ _____ _____    ______ ____
ROOT
ATOM      1  C   UNL     1       3.605   2.961  19.055  0.00  0.00    +0.000 C 
ATOM      2  C   UNL     1       2.446   1.950  18.998  0.00  0.00    +0.000 C 
ATOM      3  C   UNL     1       1.054   2.582  19.028  0.00  0.00    +0.000 C 
ATOM      4  C   UNL     1       0.919   3.751  20.008  0.00  0.00    +0.000 C 
ATOM      5  N   UNL     1       2.025   4.697  19.861  0.00  0.00    +0.000 NA
ATOM      6  C   UNL     1       3.317   4.053  20.094  0.00  0.00    +0.000 C 
ENDROOT
BRANCH   1   7
ATOM      7  C   UNL     1       3.992   3.552  17.676  0.00  0.00    +0.000 C 
ATOM      8  O   UNL     1       3.231   3.391  16.717  0.00  0.00    +0.000 OA
BRANCH   7  14
ATOM      9  C   UNL     1       5.897   3.698  15.052  0.00  0.00    +0.000 C 
ATOM     10  C   UNL     1       6.118   4.331  16.393  0.00  0.00    +0.000 A 
ATOM     11  C   UNL     1       7.284   5.133  16.645  0.00  0.00    +0.000 A 
ATOM     12  C   UNL     1       7.338   5.612  17.930  0.00  0.00    +0.000 A 
ATOM     13  S   UNL     1       5.997   5.108  18.839  0.00  0.00    +0.000 S 
ATOM     14  C   UNL     1       5.288   4.254  17.521  0.00  0.00    +0.000 A 
ENDBRANCH   7  14
ENDBRANCH   1   7
BRANCH   5  15
ATOM     15  C   UNL     1       1.843   5.955  20.601  0.00  0.00    +0.000 C 
BRANCH  15  16
ATOM     16  C   UNL     1       1.860   7.243  19.804  0.00  0.00    +0.000 A 
ATOM     17  C   UNL     1       1.273   8.418  20.305  0.00  0.00    +0.000 A 
ATOM     18  C   UNL     1       1.281   9.597  19.555  0.00  0.00    +0.000 A 
ATOM     19  C   UNL     1       1.889   9.611  18.305  0.00  0.00    +0.000 A 
ATOM     20  C   UNL     1       2.507   8.473  17.804  0.00  0.00    +0.000 A 
ATOM     21  C   UNL     1       2.492   7.292  18.550  0.00  0.00    +0.000 A 
BRANCH  19  22
ATOM     22  O   UNL     1       1.900  10.733  17.530  0.00  0.00    +0.000 OA
ATOM     23  H   UNL     1       2.610  11.317  17.841  0.00  0.00    +0.000 HD
ENDBRANCH  19  22
ENDBRANCH  15  16
ENDBRANCH   5  15
TORSDOF 5
ENDMDL
MODEL 6
REMARK VINA RESULT:      -7.0      2.608      5.192
REMARK  Name = 
REMARK  6 active torsions:
REMARK  status: ('A' for Active; 'I' for Inactive)
REMARK    1  A    between atoms: C_1  and  C_2
REMARK    2  A    between atoms: C_6  and  C_7
REMARK    3  A    between atoms: C_7  and  C_9
REMARK    4  A    between atoms: N_13  and  C_14
REMARK    5  A    between atoms: C_14  and  C_15
REMARK    6  A    between atoms: C_18  and  O_19
REMARK                            x       y       z     vdW  Elec       q    Type
REMARK                         _______ _______ _______ _____ _____    ______ ____
ROOT
ATOM      1  C   UNL     1       1.164   4.541  19.587  0.00  0.00    +0.000 C 
ATOM      2  C   UNL     1       0.751   3.338  20.454  0.00  0.00    +0.000 C 
ATOM      3  C   UNL     1       1.822   2.254  20.584  0.00  0.00    +0.000 C 
ATOM      4  C   UNL     1       2.570   1.955  19.282  0.00  0.00    +0.000 C 
ATOM      5  N   UNL     1       3.013   3.188  18.630  0.00  0.00    +0.000 NA
ATOM      6  C   UNL     1       1.886   4.066  18.318  0.00  0.00    +0.000 C 
ENDROOT
BRANCH   1   7
ATOM      7  C   UNL     1       1.972   5.619  20.351  0.00  0.00    +0.000 C 
ATOM      8  O   UNL     1       2.741   5.270  21.252  0.00  0.00    +0.000 OA
BRANCH   7  14
ATOM      9  C   UNL     1       3.117   7.273  17.803  0.00  0.00    +0.000 C 
ATOM     10  C   UNL     1       2.254   7.776  18.922  0.00  0.00    +0.000 A 
ATOM     11  C   UNL     1       1.815   9.144  18.953  0.00  0.00    +0.000 A 
ATOM     12  C   UNL     1       1.056   9.438  20.058  0.00  0.00    +0.000 A 
ATOM     13  S   UNL     1       0.863   8.082  21.059  0.00  0.00    +0.000 S 
ATOM     14  C   UNL     1       1.771   7.050  20.021  0.00  0.00    +0.000 A 
ENDBRANCH   7  14
ENDBRANCH   1   7
BRANCH   5  15
ATOM     15  C   UNL     1       3.935   2.975  17.503  0.00  0.00    +0.000 C 
BRANCH  15  16
ATOM     16  C   UNL     1       4.952   4.060  17.218  0.00  0.00    +0.000 A 
ATOM     17  C   UNL     1       5.150   4.548  15.915  0.00  0.00    +0.000 A 
ATOM     18  C   UNL     1       6.103   5.538  15.660  0.00  0.00    +0.000 A 
ATOM     19  C   UNL     1       6.853   6.055  16.710  0.00  0.00    +0.000 A 
ATOM     20  C   UNL     1       6.651   5.614  18.011  0.00  0.00    +0.000 A 
ATOM     21  C   UNL     1       5.704   4.619  18.265  0.00  0.00    +0.000 A 
BRANCH  19  22
ATOM     22  O   UNL     1       7.809   7.005  16.504  0.00  0.00    +0.000 OA
ATOM     23  H   UNL     1       8.605   6.757  17.002  0.00  0.00    +0.000 HD
ENDBRANCH  19  22
ENDBRANCH  15  16
ENDBRANCH   5  15
TORSDOF 5
ENDMDL
MODEL 7
REMARK VINA RESULT:      -7.0      2.622      5.133
REMARK  Name = 
REMARK  6 active torsions:
REMARK  status: ('A' for Active; 'I' for Inactive)
REMARK    1  A    between atoms: C_1  and  C_2
REMARK    2  A    between atoms: C_6  and  C_7
REMARK    3  A    between atoms: C_7  and  C_9
REMARK    4  A    between atoms: N_13  and  C_14
REMARK    5  A    between atoms: C_14  and  C_15
REMARK    6  A    between atoms: C_18  and  O_19
REMARK                            x       y       z     vdW  Elec       q    Type
REMARK                         _______ _______ _______ _____ _____    ______ ____
ROOT
ATOM      1  C   UNL     1       1.143   4.513  19.642  0.00  0.00    +0.000 C 
ATOM      2  C   UNL     1       0.780   3.291  20.504  0.00  0.00    +0.000 C 
ATOM      3  C   UNL     1       1.875   2.228  20.587  0.00  0.00    +0.000 C 
ATOM      4  C   UNL     1       2.590   1.962  19.259  0.00  0.00    +0.000 C 
ATOM      5  N   UNL     1       2.989   3.212  18.612  0.00  0.00    +0.000 NA
ATOM      6  C   UNL     1       1.836   4.071  18.346  0.00  0.00    +0.000 C 
ENDROOT
BRANCH   1   7
ATOM      7  C   UNL     1       1.951   5.598  20.397  0.00  0.00    +0.000 C 
ATOM      8  O   UNL     1       2.722   5.255  21.300  0.00  0.00    +0.000 OA
BRANCH   7  14
ATOM      9  C   UNL     1       3.113   7.241  17.850  0.00  0.00    +0.000 C 
ATOM     10  C   UNL     1       2.240   7.747  18.959  0.00  0.00    +0.000 A 
ATOM     11  C   UNL     1       1.796   9.114  18.979  0.00  0.00    +0.000 A 
ATOM     12  C   UNL     1       1.026   9.412  20.075  0.00  0.00    +0.000 A 
ATOM     13  S   UNL     1       0.829   8.061  21.083  0.00  0.00    +0.000 S 
ATOM     14  C   UNL     1       1.749   7.026  20.057  0.00  0.00    +0.000 A 
ENDBRANCH   7  14
ENDBRANCH   1   7
BRANCH   5  15
ATOM     15  C   UNL     1       3.880   3.034  17.456  0.00  0.00    +0.000 C 
BRANCH  15  16
ATOM     16  C   UNL     1       4.944   4.086  17.224  0.00  0.00    +0.000 A 
ATOM     17  C   UNL     1       5.690   4.616  18.291  0.00  0.00    +0.000 A 
ATOM     18  C   UNL     1       6.658   5.599  18.068  0.00  0.00    +0.000 A 
ATOM     19  C   UNL     1       6.896   6.046  16.774  0.00  0.00    +0.000 A 
ATOM     20  C   UNL     1       6.197   5.512  15.699  0.00  0.00    +0.000 A 
ATOM     21  C   UNL     1       5.224   4.536  15.922  0.00  0.00    +0.000 A 
BRANCH  19  22
ATOM     22  O   UNL     1       7.815   7.019  16.512  0.00  0.00    +0.000 OA
ATOM     23  H   UNL     1       7.629   7.393  15.636  0.00  0.00    +0.000 HD
ENDBRANCH  19  22
ENDBRANCH  15  16
ENDBRANCH   5  15
TORSDOF 5
ENDMDL
MODEL 8
REMARK VINA RESULT:      -6.9      3.081      6.538
REMARK  Name = 
REMARK  6 active torsions:
REMARK  status: ('A' for Active; 'I' for Inactive)
REMARK    1  A    between atoms: C_1  and  C_2
REMARK    2  A    between atoms: C_6  and  C_7
REMARK    3  A    between atoms: C_7  and  C_9
REMARK    4  A    between atoms: N_13  and  C_14
REMARK    5  A    between atoms: C_14  and  C_15
REMARK    6  A    between atoms: C_18  and  O_19
REMARK                            x       y       z     vdW  Elec       q    Type
REMARK                         _______ _______ _______ _____ _____    ______ ____
ROOT
ATOM      1  C   UNL     1       4.630   5.256  19.630  0.00  0.00    +0.000 C 
ATOM      2  C   UNL     1       3.384   6.141  19.446  0.00  0.00    +0.000 C 
ATOM      3  C   UNL     1       3.075   6.503  17.993  0.00  0.00    +0.000 C 
ATOM      4  C   UNL     1       4.311   6.849  17.158  0.00  0.00    +0.000 C 
ATOM      5  N   UNL     1       5.367   5.852  17.336  0.00  0.00    +0.000 NA
ATOM      6  C   UNL     1       5.777   5.747  18.736  0.00  0.00    +0.000 C 
ENDROOT
BRANCH   1   7
ATOM      7  C   UNL     1       4.356   3.741  19.452  0.00  0.00    +0.000 C 
ATOM      8  O   UNL     1       5.312   2.964  19.353  0.00  0.00    +0.000 OA
BRANCH   7  14
ATOM      9  C   UNL     1       2.175   3.412  21.834  0.00  0.00    +0.000 C 
ATOM     10  C   UNL     1       2.004   3.118  20.373  0.00  0.00    +0.000 A 
ATOM     11  C   UNL     1       0.749   2.638  19.861  0.00  0.00    +0.000 A 
ATOM     12  C   UNL     1       0.777   2.398  18.511  0.00  0.00    +0.000 A 
ATOM     13  S   UNL     1       2.299   2.746  17.848  0.00  0.00    +0.000 S 
ATOM     14  C   UNL     1       2.958   3.259  19.355  0.00  0.00    +0.000 A 
ENDBRANCH   7  14
ENDBRANCH   1   7
BRANCH   5  15
ATOM     15  C   UNL     1       6.488   5.989  16.394  0.00  0.00    +0.000 C 
BRANCH  15  16
ATOM     16  C   UNL     1       6.440   5.164  15.124  0.00  0.00    +0.000 A 
ATOM     17  C   UNL     1       7.435   5.285  14.139  0.00  0.00    +0.000 A 
ATOM     18  C   UNL     1       7.372   4.530  12.964  0.00  0.00    +0.000 A 
ATOM     19  C   UNL     1       6.321   3.641  12.776  0.00  0.00    +0.000 A 
ATOM     20  C   UNL     1       5.346   3.478  13.751  0.00  0.00    +0.000 A 
ATOM     21  C   UNL     1       5.404   4.238  14.921  0.00  0.00    +0.000 A 
BRANCH  19  22
ATOM     22  O   UNL     1       6.208   2.901  11.635  0.00  0.00    +0.000 OA
ATOM     23  H   UNL     1       6.808   3.270  10.967  0.00  0.00    +0.000 HD
ENDBRANCH  19  22
ENDBRANCH  15  16
ENDBRANCH   5  15
TORSDOF 5
ENDMDL
MODEL 9
REMARK VINA RESULT:      -6.9      1.089      1.592
REMARK  Name = 
REMARK  6 active torsions:
REMARK  status: ('A' for Active; 'I' for Inactive)
REMARK    1  A    between atoms: C_1  and  C_2
REMARK    2  A    between atoms: C_6  and  C_7
REMARK    3  A    between atoms: C_7  and  C_9
REMARK    4  A    between atoms: N_13  and  C_14
REMARK    5  A    between atoms: C_14  and  C_15
REMARK    6  A    between atoms: C_18  and  O_19
REMARK                            x       y       z     vdW  Elec       q    Type
REMARK                         _______ _______ _______ _____ _____    ______ ____
ROOT
ATOM      1  C   UNL     1       3.626   3.052  19.027  0.00  0.00    +0.000 C 
ATOM      2  C   UNL     1       2.483   2.023  18.976  0.00  0.00    +0.000 C 
ATOM      3  C   UNL     1       1.082   2.630  19.031  0.00  0.00    +0.000 C 
ATOM      4  C   UNL     1       0.940   3.786  20.025  0.00  0.00    +0.000 C 
ATOM      5  N   UNL     1       2.028   4.753  19.873  0.00  0.00    +0.000 NA
ATOM      6  C   UNL     1       3.334   4.129  20.081  0.00  0.00    +0.000 C 
ENDROOT
BRANCH   1   7
ATOM      7  C   UNL     1       3.984   3.664  17.649  0.00  0.00    +0.000 C 
ATOM      8  O   UNL     1       3.196   3.529  16.708  0.00  0.00    +0.000 OA
BRANCH   7  14
ATOM      9  C   UNL     1       5.786   3.898  14.960  0.00  0.00    +0.000 C 
ATOM     10  C   UNL     1       6.070   4.468  16.317  0.00  0.00    +0.000 A 
ATOM     11  C   UNL     1       7.257   5.243  16.557  0.00  0.00    +0.000 A 
ATOM     12  C   UNL     1       7.370   5.664  17.858  0.00  0.00    +0.000 A 
ATOM     13  S   UNL     1       6.058   5.139  18.797  0.00  0.00    +0.000 S 
ATOM     14  C   UNL     1       5.284   4.354  17.474  0.00  0.00    +0.000 A 
ENDBRANCH   7  14
ENDBRANCH   1   7
BRANCH   5  15
ATOM     15  C   UNL     1       1.834   6.000  20.628  0.00  0.00    +0.000 C 
BRANCH  15  16
ATOM     16  C   UNL     1       1.811   7.296  19.843  0.00  0.00    +0.000 A 
ATOM     17  C   UNL     1       2.389   7.384  18.565  0.00  0.00    +0.000 A 
ATOM     18  C   UNL     1       2.376   8.589  17.856  0.00  0.00    +0.000 A 
ATOM     19  C   UNL     1       1.771   9.707  18.417  0.00  0.00    +0.000 A 
ATOM     20  C   UNL     1       1.162   9.636  19.663  0.00  0.00    +0.000 A 
ATOM     21  C   UNL     1       1.182   8.434  20.375  0.00  0.00    +0.000 A 
BRANCH  19  22
ATOM     22  O   UNL     1       1.755  10.908  17.771  0.00  0.00    +0.000 OA
ATOM     23  H   UNL     1       1.974  10.760  16.837  0.00  0.00    +0.000 HD
ENDBRANCH  19  22
ENDBRANCH  15  16
ENDBRANCH   5  15
TORSDOF 5
ENDMDL
