MODEL 1
REMARK VINA RESULT:      -7.4      0.000      0.000
REMARK  Name = 
REMARK  8 active torsions:
REMARK  status: ('A' for Active; 'I' for Inactive)
REMARK    1  A    between atoms: C_1  and  C_2
REMARK    2  A    between atoms: C_2  and  O_3
REMARK    3  A    between atoms: O_3  and  C_4
REMARK    4  A    between atoms: C_4  and  C_5
REMARK    5  A    between atoms: C_4  and  O_6
REMARK    6  A    between atoms: O_6  and  C_7
REMARK    7  A    between atoms: N_14  and  C_15
REMARK    8  A    between atoms: C_20  and  C_21
REMARK                            x       y       z     vdW  Elec       q    Type
REMARK                         _______ _______ _______ _____ _____    ______ ____
ROOT
ATOM      1  C   UNL     1       0.279  11.582  19.838  0.00  0.00    +0.000 A 
ATOM      2  C   UNL     1       1.012  11.135  18.727  0.00  0.00    +0.000 A 
ATOM      3  C   UNL     1       1.538   9.848  18.632  0.00  0.00    +0.000 A 
ATOM      4  N   UNL     1       2.215   9.512  17.527  0.00  0.00    +0.000 NA
ATOM      5  C   UNL     1       2.717   8.271  17.467  0.00  0.00    +0.000 A 
ATOM      6  N   UNL     1       2.620   7.341  18.417  0.00  0.00    +0.000 NA
ATOM      7  C   UNL     1       1.950   7.684  19.531  0.00  0.00    +0.000 A 
ATOM      8  N   UNL     1       1.950   6.756  20.610  0.00  0.00    +0.000 N 
ATOM      9  C   UNL     1       1.348   8.956  19.697  0.00  0.00    +0.000 A 
ATOM     10  C   UNL     1       0.556   9.381  20.802  0.00  0.00    +0.000 A 
ATOM     11  C   UNL     1       0.015  10.677  20.862  0.00  0.00    +0.000 A 
ATOM     12  O   UNL     1      -0.810  11.055  21.889  0.00  0.00    +0.000 OA
ATOM     13  C   UNL     1      -0.523  10.322  23.076  0.00  0.00    +0.000 C 
ATOM     14  C   UNL     1      -0.633   8.846  22.774  0.00  0.00    +0.000 C 
ATOM     15  O   UNL     1       0.342   8.453  21.806  0.00  0.00    +0.000 OA
ATOM     16  H   UNL     1       1.259   7.051  21.300  0.00  0.00    +0.000 HD
ENDROOT
BRANCH   8  17
ATOM     17  C   UNL     1       1.920   5.348  20.507  0.00  0.00    +0.000 A 
ATOM     18  C   UNL     1       0.711   4.726  20.164  0.00  0.00    +0.000 A 
ATOM     19  C   UNL     1       0.651   3.346  19.962  0.00  0.00    +0.000 A 
ATOM     20  C   UNL     1       1.808   2.584  20.082  0.00  0.00    +0.000 A 
ATOM     21  F   UNL     1       1.734   1.262  19.874  0.00  0.00    +0.000 F 
ATOM     22  C   UNL     1       3.024   3.183  20.395  0.00  0.00    +0.000 A 
ATOM     23  C   UNL     1       3.078   4.567  20.597  0.00  0.00    +0.000 A 
BRANCH  22  24
ATOM     24  C   UNL     1       4.211   2.400  20.492  0.00  0.00    +0.000 C 
ATOM     25  N   UNL     1       5.161   1.732  20.566  0.00  0.00    +0.000 NA
ENDBRANCH  22  24
ENDBRANCH   8  17
BRANCH   1  26
ATOM     26  O   UNL     1      -0.126  12.890  19.770  0.00  0.00    +0.000 OA
BRANCH  26  27
ATOM     27  C   UNL     1       0.655  13.827  19.004  0.00  0.00    +0.000 C 
ATOM     28  C   UNL     1       1.651  14.500  19.953  0.00  0.00    +0.000 C 
BRANCH  27  29
ATOM     29  O   UNL     1      -0.222  14.817  18.430  0.00  0.00    +0.000 OA
BRANCH  29  31
ATOM     30  C   UNL     1      -0.377  17.163  17.902  0.00  0.00    +0.000 C 
ATOM     31  C   UNL     1       0.017  16.130  18.939  0.00  0.00    +0.000 C 
ENDBRANCH  29  31
ENDBRANCH  27  29
ENDBRANCH  26  27
ENDBRANCH   1  26
TORSDOF 6
ENDMDL
MODEL 2
REMARK VINA RESULT:      -7.2      0.835      1.250
REMARK  Name = 
REMARK  8 active torsions:
REMARK  status: ('A' for Active; 'I' for Inactive)
REMARK    1  A    between atoms: C_1  and  C_2
REMARK    2  A    between atoms: C_2  and  O_3
REMARK    3  A    between atoms: O_3  and  C_4
REMARK    4  A    between atoms: C_4  and  C_5
REMARK    5  A    between atoms: C_4  and  O_6
REMARK    6  A    between atoms: O_6  and  C_7
REMARK    7  A    between atoms: N_14  and  C_15
REMARK    8  A    between atoms: C_20  and  C_21
REMARK                            x       y       z     vdW  Elec       q    Type
REMARK                         _______ _______ _______ _____ _____    ______ ____
ROOT
ATOM      1  C   UNL     1       0.294  11.626  19.885  0.00  0.00    +0.000 A 
ATOM      2  C   UNL     1       1.020  11.180  18.769  0.00  0.00    +0.000 A 
ATOM      3  C   UNL     1       1.537   9.890  18.666  0.00  0.00    +0.000 A 
ATOM      4  N   UNL     1       2.208   9.554  17.556  0.00  0.00    +0.000 NA
ATOM      5  C   UNL     1       2.701   8.310  17.489  0.00  0.00    +0.000 A 
ATOM      6  N   UNL     1       2.602   7.377  18.434  0.00  0.00    +0.000 NA
ATOM      7  C   UNL     1       1.939   7.718  19.553  0.00  0.00    +0.000 A 
ATOM      8  N   UNL     1       1.937   6.785  20.628  0.00  0.00    +0.000 N 
ATOM      9  C   UNL     1       1.345   8.994  19.727  0.00  0.00    +0.000 A 
ATOM     10  C   UNL     1       0.560   9.418  20.838  0.00  0.00    +0.000 A 
ATOM     11  C   UNL     1       0.028  10.717  20.907  0.00  0.00    +0.000 A 
ATOM     12  O   UNL     1      -0.790  11.095  21.938  0.00  0.00    +0.000 OA
ATOM     13  C   UNL     1      -0.504  10.355  23.120  0.00  0.00    +0.000 C 
ATOM     14  C   UNL     1      -0.624   8.881  22.812  0.00  0.00    +0.000 C 
ATOM     15  O   UNL     1       0.345   8.487  21.838  0.00  0.00    +0.000 OA
ATOM     16  H   UNL     1       1.251   7.082  21.322  0.00  0.00    +0.000 HD
ENDROOT
BRANCH   8  17
ATOM     17  C   UNL     1       1.898   5.378  20.517  0.00  0.00    +0.000 A 
ATOM     18  C   UNL     1       0.671   4.761  20.235  0.00  0.00    +0.000 A 
ATOM     19  C   UNL     1       0.596   3.383  20.028  0.00  0.00    +0.000 A 
ATOM     20  C   UNL     1       1.756   2.617  20.083  0.00  0.00    +0.000 A 
ATOM     21  F   UNL     1       1.667   1.296  19.871  0.00  0.00    +0.000 F 
ATOM     22  C   UNL     1       2.988   3.211  20.336  0.00  0.00    +0.000 A 
ATOM     23  C   UNL     1       3.057   4.593  20.543  0.00  0.00    +0.000 A 
BRANCH  22  24
ATOM     24  C   UNL     1       4.176   2.424  20.366  0.00  0.00    +0.000 C 
ATOM     25  N   UNL     1       5.156   1.799  20.419  0.00  0.00    +0.000 NA
ENDBRANCH  22  24
ENDBRANCH   8  17
BRANCH   1  26
ATOM     26  O   UNL     1      -0.103  12.937  19.825  0.00  0.00    +0.000 OA
BRANCH  26  27
ATOM     27  C   UNL     1       0.613  13.922  20.594  0.00  0.00    +0.000 C 
ATOM     28  C   UNL     1       0.036  15.299  20.253  0.00  0.00    +0.000 C 
BRANCH  27  29
ATOM     29  O   UNL     1       2.011  13.874  20.241  0.00  0.00    +0.000 OA
BRANCH  29  31
ATOM     30  C   UNL     1       3.555  14.219  18.425  0.00  0.00    +0.000 C 
ATOM     31  C   UNL     1       2.338  14.746  19.158  0.00  0.00    +0.000 C 
ENDBRANCH  29  31
ENDBRANCH  27  29
ENDBRANCH  26  27
ENDBRANCH   1  26
TORSDOF 6
ENDMDL
MODEL 3
REMARK VINA RESULT:      -7.0      1.113      1.720
REMARK  Name = 
REMARK  8 active torsions:
REMARK  status: ('A' for Active; 'I' for Inactive)
REMARK    1  A    between atoms: C_1  and  C_2
REMARK    2  A    between atoms: C_2  and  O_3
REMARK    3  A    between atoms: O_3  and  C_4
REMARK    4  A    between atoms: C_4  and  C_5
REMARK    5  A    between atoms: C_4  and  O_6
REMARK    6  A    between atoms: O_6  and  C_7
REMARK    7  A    between atoms: N_14  and  C_15
REMARK    8  A    between atoms: C_20  and  C_21
REMARK                            x       y       z     vdW  Elec       q    Type
REMARK                         _______ _______ _______ _____ _____    ______ ____
ROOT
ATOM      1  C   UNL     1       0.469  11.492  20.047  0.00  0.00    +0.000 A 
ATOM      2  C   UNL     1       1.166  11.071  18.903  0.00  0.00    +0.000 A 
ATOM      3  C   UNL     1       1.662   9.777  18.750  0.00  0.00    +0.000 A 
ATOM      4  N   UNL     1       2.305   9.467  17.616  0.00  0.00    +0.000 NA
ATOM      5  C   UNL     1       2.779   8.219  17.500  0.00  0.00    +0.000 A 
ATOM      6  N   UNL     1       2.684   7.257  18.418  0.00  0.00    +0.000 NA
ATOM      7  C   UNL     1       2.048   7.573  19.559  0.00  0.00    +0.000 A 
ATOM      8  N   UNL     1       2.054   6.607  20.605  0.00  0.00    +0.000 N 
ATOM      9  C   UNL     1       1.478   8.851  19.786  0.00  0.00    +0.000 A 
ATOM     10  C   UNL     1       0.721   9.252  20.925  0.00  0.00    +0.000 A 
ATOM     11  C   UNL     1       0.210  10.555  21.045  0.00  0.00    +0.000 A 
ATOM     12  O   UNL     1      -0.582  10.913  22.104  0.00  0.00    +0.000 OA
ATOM     13  C   UNL     1      -0.283  10.131  23.256  0.00  0.00    +0.000 C 
ATOM     14  C   UNL     1      -0.431   8.670  22.905  0.00  0.00    +0.000 C 
ATOM     15  O   UNL     1       0.512   8.293  21.899  0.00  0.00    +0.000 OA
ATOM     16  H   UNL     1       1.386   6.891  21.322  0.00  0.00    +0.000 HD
ENDROOT
BRANCH   8  17
ATOM     17  C   UNL     1       1.991   5.204  20.452  0.00  0.00    +0.000 A 
ATOM     18  C   UNL     1       0.762   4.621  20.111  0.00  0.00    +0.000 A 
ATOM     19  C   UNL     1       0.668   3.251  19.861  0.00  0.00    +0.000 A 
ATOM     20  C   UNL     1       1.810   2.461  19.931  0.00  0.00    +0.000 A 
ATOM     21  F   UNL     1       1.703   1.149  19.677  0.00  0.00    +0.000 F 
ATOM     22  C   UNL     1       3.044   3.022  20.241  0.00  0.00    +0.000 A 
ATOM     23  C   UNL     1       3.133   4.396  20.491  0.00  0.00    +0.000 A 
BRANCH  22  24
ATOM     24  C   UNL     1       4.216   2.211  20.286  0.00  0.00    +0.000 C 
ATOM     25  N   UNL     1       5.191   1.576  20.316  0.00  0.00    +0.000 NA
ENDBRANCH  22  24
ENDBRANCH   8  17
BRANCH   1  26
ATOM     26  O   UNL     1       0.091  12.810  20.036  0.00  0.00    +0.000 OA
BRANCH  26  27
ATOM     27  C   UNL     1      -1.073  13.199  19.284  0.00  0.00    +0.000 C 
ATOM     28  C   UNL     1      -1.104  14.728  19.216  0.00  0.00    +0.000 C 
BRANCH  27  29
ATOM     29  O   UNL     1      -2.255  12.713  19.954  0.00  0.00    +0.000 OA
BRANCH  29  31
ATOM     30  C   UNL     1      -2.519  11.323  18.004  0.00  0.00    +0.000 C 
ATOM     31  C   UNL     1      -3.218  12.167  19.051  0.00  0.00    +0.000 C 
ENDBRANCH  29  31
ENDBRANCH  27  29
ENDBRANCH  26  27
ENDBRANCH   1  26
TORSDOF 6
ENDMDL
MODEL 4
REMARK VINA RESULT:      -7.0      4.200      8.215
REMARK  Name = 
REMARK  8 active torsions:
REMARK  status: ('A' for Active; 'I' for Inactive)
REMARK    1  A    between atoms: C_1  and  C_2
REMARK    2  A    between atoms: C_2  and  O_3
REMARK    3  A    between atoms: O_3  and  C_4
REMARK    4  A    between atoms: C_4  and  C_5
REMARK    5  A    between atoms: C_4  and  O_6
REMARK    6  A    between atoms: O_6  and  C_7
REMARK    7  A    between atoms: N_14  and  C_15
REMARK    8  A    between atoms: C_20  and  C_21
REMARK                            x       y       z     vdW  Elec       q    Type
REMARK                         _______ _______ _______ _____ _____    ______ ____
ROOT
ATOM      1  C   UNL     1       4.385   5.118  18.029  0.00  0.00    +0.000 A 
ATOM      2  C   UNL     1       4.282   6.365  17.391  0.00  0.00    +0.000 A 
ATOM      3  C   UNL     1       3.390   7.355  17.799  0.00  0.00    +0.000 A 
ATOM      4  N   UNL     1       3.373   8.517  17.134  0.00  0.00    +0.000 NA
ATOM      5  C   UNL     1       2.499   9.447  17.542  0.00  0.00    +0.000 A 
ATOM      6  N   UNL     1       1.628   9.316  18.543  0.00  0.00    +0.000 NA
ATOM      7  C   UNL     1       1.638   8.145  19.202  0.00  0.00    +0.000 A 
ATOM      8  N   UNL     1       0.628   7.934  20.184  0.00  0.00    +0.000 N 
ATOM      9  C   UNL     1       2.538   7.098  18.883  0.00  0.00    +0.000 A 
ATOM     10  C   UNL     1       2.676   5.858  19.572  0.00  0.00    +0.000 A 
ATOM     11  C   UNL     1       3.601   4.886  19.157  0.00  0.00    +0.000 A 
ATOM     12  O   UNL     1       3.784   3.730  19.868  0.00  0.00    +0.000 OA
ATOM     13  C   UNL     1       2.601   3.365  20.570  0.00  0.00    +0.000 C 
ATOM     14  C   UNL     1       2.185   4.516  21.456  0.00  0.00    +0.000 C 
ATOM     15  O   UNL     1       1.858   5.666  20.671  0.00  0.00    +0.000 OA
ATOM     16  H   UNL     1       0.866   7.106  20.729  0.00  0.00    +0.000 HD
ENDROOT
BRANCH   8  17
ATOM     17  C   UNL     1       0.078   8.908  21.045  0.00  0.00    +0.000 A 
ATOM     18  C   UNL     1       0.244   8.751  22.428  0.00  0.00    +0.000 A 
ATOM     19  C   UNL     1      -0.202   9.731  23.316  0.00  0.00    +0.000 A 
ATOM     20  C   UNL     1      -0.800  10.885  22.820  0.00  0.00    +0.000 A 
ATOM     21  F   UNL     1      -1.213  11.821  23.687  0.00  0.00    +0.000 F 
ATOM     22  C   UNL     1      -0.951  11.074  21.451  0.00  0.00    +0.000 A 
ATOM     23  C   UNL     1      -0.502  10.088  20.565  0.00  0.00    +0.000 A 
BRANCH  22  24
ATOM     24  C   UNL     1      -1.542  12.270  20.948  0.00  0.00    +0.000 C 
ATOM     25  N   UNL     1      -2.009  13.264  20.563  0.00  0.00    +0.000 NA
ENDBRANCH  22  24
ENDBRANCH   8  17
BRANCH   1  26
ATOM     26  O   UNL     1       5.291   4.258  17.464  0.00  0.00    +0.000 OA
BRANCH  26  27
ATOM     27  C   UNL     1       6.324   4.787  16.612  0.00  0.00    +0.000 C 
ATOM     28  C   UNL     1       6.262   4.044  15.275  0.00  0.00    +0.000 C 
BRANCH  27  29
ATOM     29  O   UNL     1       7.608   4.574  17.234  0.00  0.00    +0.000 OA
BRANCH  29  31
ATOM     30  C   UNL     1       7.794   6.759  18.231  0.00  0.00    +0.000 C 
ATOM     31  C   UNL     1       7.742   5.264  18.477  0.00  0.00    +0.000 C 
ENDBRANCH  29  31
ENDBRANCH  27  29
ENDBRANCH  26  27
ENDBRANCH   1  26
TORSDOF 6
ENDMDL
MODEL 5
REMARK VINA RESULT:      -6.9      5.417      9.077
REMARK  Name = 
REMARK  8 active torsions:
REMARK  status: ('A' for Active; 'I' for Inactive)
REMARK    1  A    between atoms: C_1  and  C_2
REMARK    2  A    between atoms: C_2  and  O_3
REMARK    3  A    between atoms: O_3  and  C_4
REMARK    4  A    between atoms: C_4  and  C_5
REMARK    5  A    between atoms: C_4  and  O_6
REMARK    6  A    between atoms: O_6  and  C_7
REMARK    7  A    between atoms: N_14  and  C_15
REMARK    8  A    between atoms: C_20  and  C_21
REMARK                            x       y       z     vdW  Elec       q    Type
REMARK                         _______ _______ _______ _____ _____    ______ ____
ROOT
ATOM      1  C   UNL     1       5.800   4.177  15.757  0.00  0.00    +0.000 A 
ATOM      2  C   UNL     1       4.582   3.517  15.984  0.00  0.00    +0.000 A 
ATOM      3  C   UNL     1       3.605   4.003  16.851  0.00  0.00    +0.000 A 
ATOM      4  N   UNL     1       2.469   3.307  16.994  0.00  0.00    +0.000 NA
ATOM      5  C   UNL     1       1.552   3.793  17.840  0.00  0.00    +0.000 A 
ATOM      6  N   UNL     1       1.672   4.901  18.571  0.00  0.00    +0.000 NA
ATOM      7  C   UNL     1       2.817   5.593  18.436  0.00  0.00    +0.000 A 
ATOM      8  N   UNL     1       3.022   6.702  19.305  0.00  0.00    +0.000 N 
ATOM      9  C   UNL     1       3.847   5.195  17.548  0.00  0.00    +0.000 A 
ATOM     10  C   UNL     1       5.055   5.902  17.280  0.00  0.00    +0.000 A 
ATOM     11  C   UNL     1       6.013   5.403  16.382  0.00  0.00    +0.000 A 
ATOM     12  O   UNL     1       7.136   6.123  16.069  0.00  0.00    +0.000 OA
ATOM     13  C   UNL     1       7.510   6.984  17.140  0.00  0.00    +0.000 C 
ATOM     14  C   UNL     1       6.340   7.876  17.479  0.00  0.00    +0.000 C 
ATOM     15  O   UNL     1       5.231   7.103  17.944  0.00  0.00    +0.000 OA
ATOM     16  H   UNL     1       3.821   7.240  18.970  0.00  0.00    +0.000 HD
ENDROOT
BRANCH   8  17
ATOM     17  C   UNL     1       2.033   7.595  19.774  0.00  0.00    +0.000 A 
ATOM     18  C   UNL     1       1.424   7.333  21.009  0.00  0.00    +0.000 A 
ATOM     19  C   UNL     1       0.507   8.230  21.557  0.00  0.00    +0.000 A 
ATOM     20  C   UNL     1       0.209   9.407  20.878  0.00  0.00    +0.000 A 
ATOM     21  F   UNL     1      -0.666  10.263  21.425  0.00  0.00    +0.000 F 
ATOM     22  C   UNL     1       0.821   9.700  19.664  0.00  0.00    +0.000 A 
ATOM     23  C   UNL     1       1.739   8.796  19.119  0.00  0.00    +0.000 A 
BRANCH  22  24
ATOM     24  C   UNL     1       0.530  10.920  18.985  0.00  0.00    +0.000 C 
ATOM     25  N   UNL     1       0.321  11.911  18.413  0.00  0.00    +0.000 NA
ENDBRANCH  22  24
ENDBRANCH   8  17
BRANCH   1  26
ATOM     26  O   UNL     1       6.653   3.529  14.900  0.00  0.00    +0.000 OA
BRANCH  26  27
ATOM     27  C   UNL     1       6.522   3.747  13.483  0.00  0.00    +0.000 C 
ATOM     28  C   UNL     1       7.364   4.970  13.112  0.00  0.00    +0.000 C 
BRANCH  27  29
ATOM     29  O   UNL     1       5.136   3.990  13.167  0.00  0.00    +0.000 OA
BRANCH  29  31
ATOM     30  C   UNL     1       5.605   2.186  11.641  0.00  0.00    +0.000 C 
ATOM     31  C   UNL     1       4.737   3.393  11.932  0.00  0.00    +0.000 C 
ENDBRANCH  29  31
ENDBRANCH  27  29
ENDBRANCH  26  27
ENDBRANCH   1  26
TORSDOF 6
ENDMDL
MODEL 6
REMARK VINA RESULT:      -6.9      5.448      8.973
REMARK  Name = 
REMARK  8 active torsions:
REMARK  status: ('A' for Active; 'I' for Inactive)
REMARK    1  A    between atoms: C_1  and  C_2
REMARK    2  A    between atoms: C_2  and  O_3
REMARK    3  A    between atoms: O_3  and  C_4
REMARK    4  A    between atoms: C_4  and  C_5
REMARK    5  A    between atoms: C_4  and  O_6
REMARK    6  A    between atoms: O_6  and  C_7
REMARK    7  A    between atoms: N_14  and  C_15
REMARK    8  A    between atoms: C_20  and  C_21
REMARK                            x       y       z     vdW  Elec       q    Type
REMARK                         _______ _______ _______ _____ _____    ______ ____
ROOT
ATOM      1  C   UNL     1       5.922   4.316  15.866  0.00  0.00    +0.000 A 
ATOM      2  C   UNL     1       4.666   3.717  16.051  0.00  0.00    +0.000 A 
ATOM      3  C   UNL     1       3.654   4.295  16.816  0.00  0.00    +0.000 A 
ATOM      4  N   UNL     1       2.484   3.651  16.925  0.00  0.00    +0.000 NA
ATOM      5  C   UNL     1       1.533   4.227  17.672  0.00  0.00    +0.000 A 
ATOM      6  N   UNL     1       1.648   5.378  18.334  0.00  0.00    +0.000 NA
ATOM      7  C   UNL     1       2.826   6.018  18.234  0.00  0.00    +0.000 A 
ATOM      8  N   UNL     1       3.017   7.176  19.039  0.00  0.00    +0.000 N 
ATOM      9  C   UNL     1       3.897   5.523  17.447  0.00  0.00    +0.000 A 
ATOM     10  C   UNL     1       5.147   6.167  17.217  0.00  0.00    +0.000 A 
ATOM     11  C   UNL     1       6.142   5.574  16.422  0.00  0.00    +0.000 A 
ATOM     12  O   UNL     1       7.311   6.230  16.141  0.00  0.00    +0.000 OA
ATOM     13  C   UNL     1       7.648   7.148  17.176  0.00  0.00    +0.000 C 
ATOM     14  C   UNL     1       6.494   8.103  17.374  0.00  0.00    +0.000 C 
ATOM     15  O   UNL     1       5.327   7.403  17.811  0.00  0.00    +0.000 OA
ATOM     16  H   UNL     1       3.858   7.661  18.726  0.00  0.00    +0.000 HD
ENDROOT
BRANCH   8  17
ATOM     17  C   UNL     1       2.036   8.133  19.379  0.00  0.00    +0.000 A 
ATOM     18  C   UNL     1       1.464   8.901  18.354  0.00  0.00    +0.000 A 
ATOM     19  C   UNL     1       0.429   9.795  18.626  0.00  0.00    +0.000 A 
ATOM     20  C   UNL     1      -0.055   9.911  19.925  0.00  0.00    +0.000 A 
ATOM     21  F   UNL     1      -1.057  10.767  20.167  0.00  0.00    +0.000 F 
ATOM     22  C   UNL     1       0.479   9.140  20.953  0.00  0.00    +0.000 A 
ATOM     23  C   UNL     1       1.518   8.245  20.675  0.00  0.00    +0.000 A 
BRANCH  22  24
ATOM     24  C   UNL     1      -0.038   9.245  22.278  0.00  0.00    +0.000 C 
ATOM     25  N   UNL     1      -0.465   9.364  23.353  0.00  0.00    +0.000 NA
ENDBRANCH  22  24
ENDBRANCH   8  17
BRANCH   1  26
ATOM     26  O   UNL     1       6.803   3.581  15.116  0.00  0.00    +0.000 OA
BRANCH  26  27
ATOM     27  C   UNL     1       6.797   3.729  13.683  0.00  0.00    +0.000 C 
ATOM     28  C   UNL     1       7.454   5.068  13.342  0.00  0.00    +0.000 C 
BRANCH  27  29
ATOM     29  O   UNL     1       5.434   3.716  13.212  0.00  0.00    +0.000 OA
BRANCH  29  31
ATOM     30  C   UNL     1       3.996   3.393  11.306  0.00  0.00    +0.000 C 
ATOM     31  C   UNL     1       5.273   2.971  12.004  0.00  0.00    +0.000 C 
ENDBRANCH  29  31
ENDBRANCH  27  29
ENDBRANCH  26  27
ENDBRANCH   1  26
TORSDOF 6
ENDMDL
MODEL 7
REMARK VINA RESULT:      -6.9      1.098      1.308
REMARK  Name = 
REMARK  8 active torsions:
REMARK  status: ('A' for Active; 'I' for Inactive)
REMARK    1  A    between atoms: C_1  and  C_2
REMARK    2  A    between atoms: C_2  and  O_3
REMARK    3  A    between atoms: O_3  and  C_4
REMARK    4  A    between atoms: C_4  and  C_5
REMARK    5  A    between atoms: C_4  and  O_6
REMARK    6  A    between atoms: O_6  and  C_7
REMARK    7  A    between atoms: N_14  and  C_15
REMARK    8  A    between atoms: C_20  and  C_21
REMARK                            x       y       z     vdW  Elec       q    Type
REMARK                         _______ _______ _______ _____ _____    ______ ____
ROOT
ATOM      1  C   UNL     1       0.340  11.512  19.959  0.00  0.00    +0.000 A 
ATOM      2  C   UNL     1       1.064  11.089  18.832  0.00  0.00    +0.000 A 
ATOM      3  C   UNL     1       1.587   9.804  18.704  0.00  0.00    +0.000 A 
ATOM      4  N   UNL     1       2.256   9.491  17.586  0.00  0.00    +0.000 NA
ATOM      5  C   UNL     1       2.754   8.251  17.494  0.00  0.00    +0.000 A 
ATOM      6  N   UNL     1       2.662   7.300  18.424  0.00  0.00    +0.000 NA
ATOM      7  C   UNL     1       2.001   7.618  19.550  0.00  0.00    +0.000 A 
ATOM      8  N   UNL     1       2.007   6.666  20.608  0.00  0.00    +0.000 N 
ATOM      9  C   UNL     1       1.403   8.888  19.750  0.00  0.00    +0.000 A 
ATOM     10  C   UNL     1       0.619   9.289  20.870  0.00  0.00    +0.000 A 
ATOM     11  C   UNL     1       0.082  10.584  20.964  0.00  0.00    +0.000 A 
ATOM     12  O   UNL     1      -0.735  10.940  22.005  0.00  0.00    +0.000 OA
ATOM     13  C   UNL     1      -0.441  10.179  23.173  0.00  0.00    +0.000 C 
ATOM     14  C   UNL     1      -0.556   8.710  22.838  0.00  0.00    +0.000 C 
ATOM     15  O   UNL     1       0.411   8.339  21.854  0.00  0.00    +0.000 OA
ATOM     16  H   UNL     1       1.322   6.947  21.310  0.00  0.00    +0.000 HD
ENDROOT
BRANCH   8  17
ATOM     17  C   UNL     1       1.973   5.261  20.472  0.00  0.00    +0.000 A 
ATOM     18  C   UNL     1       0.755   4.647  20.148  0.00  0.00    +0.000 A 
ATOM     19  C   UNL     1       0.688   3.272  19.915  0.00  0.00    +0.000 A 
ATOM     20  C   UNL     1       1.848   2.508  19.986  0.00  0.00    +0.000 A 
ATOM     21  F   UNL     1       1.768   1.191  19.749  0.00  0.00    +0.000 F 
ATOM     22  C   UNL     1       3.072   3.099  20.281  0.00  0.00    +0.000 A 
ATOM     23  C   UNL     1       3.133   4.478  20.514  0.00  0.00    +0.000 A 
BRANCH  22  24
ATOM     24  C   UNL     1       4.261   2.314  20.328  0.00  0.00    +0.000 C 
ATOM     25  N   UNL     1       5.213   1.645  20.370  0.00  0.00    +0.000 NA
ENDBRANCH  22  24
ENDBRANCH   8  17
BRANCH   1  26
ATOM     26  O   UNL     1      -0.063  12.822  19.924  0.00  0.00    +0.000 OA
BRANCH  26  27
ATOM     27  C   UNL     1       0.777  13.830  20.518  0.00  0.00    +0.000 C 
ATOM     28  C   UNL     1       2.224  13.540  20.113  0.00  0.00    +0.000 C 
BRANCH  27  29
ATOM     29  O   UNL     1       0.647  13.768  21.953  0.00  0.00    +0.000 OA
BRANCH  29  31
ATOM     30  C   UNL     1      -0.627  15.811  21.856  0.00  0.00    +0.000 C 
ATOM     31  C   UNL     1      -0.537  14.411  22.430  0.00  0.00    +0.000 C 
ENDBRANCH  29  31
ENDBRANCH  27  29
ENDBRANCH  26  27
ENDBRANCH   1  26
TORSDOF 6
ENDMDL
MODEL 8
REMARK VINA RESULT:      -6.6      1.248      1.454
REMARK  Name = 
REMARK  8 active torsions:
REMARK  status: ('A' for Active; 'I' for Inactive)
REMARK    1  A    between atoms: C_1  and  C_2
REMARK    2  A    between atoms: C_2  and  O_3
REMARK    3  A    between atoms: O_3  and  C_4
REMARK    4  A    between atoms: C_4  and  C_5
REMARK    5  A    between atoms: C_4  and  O_6
REMARK    6  A    between atoms: O_6  and  C_7
REMARK    7  A    between atoms: N_14  and  C_15
REMARK    8  A    between atoms: C_20  and  C_21
REMARK                            x       y       z     vdW  Elec       q    Type
REMARK                         _______ _______ _______ _____ _____    ______ ____
ROOT
ATOM      1  C   UNL     1       0.422  11.472  19.802  0.00  0.00    +0.000 A 
ATOM      2  C   UNL     1       1.147  11.020  18.687  0.00  0.00    +0.000 A 
ATOM      3  C   UNL     1       1.660   9.728  18.588  0.00  0.00    +0.000 A 
ATOM      4  N   UNL     1       2.329   9.387  17.479  0.00  0.00    +0.000 NA
ATOM      5  C   UNL     1       2.818   8.142  17.414  0.00  0.00    +0.000 A 
ATOM      6  N   UNL     1       2.716   7.211  18.362  0.00  0.00    +0.000 NA
ATOM      7  C   UNL     1       2.054   7.558  19.480  0.00  0.00    +0.000 A 
ATOM      8  N   UNL     1       2.049   6.627  20.558  0.00  0.00    +0.000 N 
ATOM      9  C   UNL     1       1.465   8.836  19.651  0.00  0.00    +0.000 A 
ATOM     10  C   UNL     1       0.682   9.266  20.761  0.00  0.00    +0.000 A 
ATOM     11  C   UNL     1       0.154  10.566  20.826  0.00  0.00    +0.000 A 
ATOM     12  O   UNL     1      -0.663  10.950  21.857  0.00  0.00    +0.000 OA
ATOM     13  C   UNL     1      -0.379  10.212  23.041  0.00  0.00    +0.000 C 
ATOM     14  C   UNL     1      -0.504   8.738  22.737  0.00  0.00    +0.000 C 
ATOM     15  O   UNL     1       0.464   8.338  21.763  0.00  0.00    +0.000 OA
ATOM     16  H   UNL     1       1.365   6.928  21.251  0.00  0.00    +0.000 HD
ENDROOT
BRANCH   8  17
ATOM     17  C   UNL     1       2.005   5.220  20.451  0.00  0.00    +0.000 A 
ATOM     18  C   UNL     1       0.785   4.609  20.128  0.00  0.00    +0.000 A 
ATOM     19  C   UNL     1       0.709   3.231  19.923  0.00  0.00    +0.000 A 
ATOM     20  C   UNL     1       1.861   2.459  20.021  0.00  0.00    +0.000 A 
ATOM     21  F   UNL     1       1.772   1.138  19.811  0.00  0.00    +0.000 F 
ATOM     22  C   UNL     1       3.087   3.046  20.315  0.00  0.00    +0.000 A 
ATOM     23  C   UNL     1       3.158   4.429  20.519  0.00  0.00    +0.000 A 
BRANCH  22  24
ATOM     24  C   UNL     1       4.270   2.252  20.389  0.00  0.00    +0.000 C 
ATOM     25  N   UNL     1       5.217   1.579  20.434  0.00  0.00    +0.000 NA
ENDBRANCH  22  24
ENDBRANCH   8  17
BRANCH   1  26
ATOM     26  O   UNL     1       0.030  12.784  19.739  0.00  0.00    +0.000 OA
BRANCH  26  27
ATOM     27  C   UNL     1      -1.344  13.119  20.010  0.00  0.00    +0.000 C 
ATOM     28  C   UNL     1      -2.218  12.409  18.973  0.00  0.00    +0.000 C 
BRANCH  27  29
ATOM     29  O   UNL     1      -1.514  14.547  19.901  0.00  0.00    +0.000 OA
BRANCH  29  31
ATOM     30  C   UNL     1      -3.325  15.299  21.299  0.00  0.00    +0.000 C 
ATOM     31  C   UNL     1      -1.824  15.165  21.151  0.00  0.00    +0.000 C 
ENDBRANCH  29  31
ENDBRANCH  27  29
ENDBRANCH  26  27
ENDBRANCH   1  26
TORSDOF 6
ENDMDL
MODEL 9
REMARK VINA RESULT:      -6.5      1.664      2.228
REMARK  Name = 
REMARK  8 active torsions:
REMARK  status: ('A' for Active; 'I' for Inactive)
REMARK    1  A    between atoms: C_1  and  C_2
REMARK    2  A    between atoms: C_2  and  O_3
REMARK    3  A    between atoms: O_3  and  C_4
REMARK    4  A    between atoms: C_4  and  C_5
REMARK    5  A    between atoms: C_4  and  O_6
REMARK    6  A    between atoms: O_6  and  C_7
REMARK    7  A    between atoms: N_14  and  C_15
REMARK    8  A    between atoms: C_20  and  C_21
REMARK                            x       y       z     vdW  Elec       q    Type
REMARK                         _______ _______ _______ _____ _____    ______ ____
ROOT
ATOM      1  C   UNL     1       0.069  11.702  20.084  0.00  0.00    +0.000 A 
ATOM      2  C   UNL     1       0.803  11.408  18.924  0.00  0.00    +0.000 A 
ATOM      3  C   UNL     1       1.407  10.172  18.701  0.00  0.00    +0.000 A 
ATOM      4  N   UNL     1       2.078   9.983  17.557  0.00  0.00    +0.000 NA
ATOM      5  C   UNL     1       2.656   8.788  17.373  0.00  0.00    +0.000 A 
ATOM      6  N   UNL     1       2.640   7.771  18.234  0.00  0.00    +0.000 NA
ATOM      7  C   UNL     1       1.976   7.965  19.386  0.00  0.00    +0.000 A 
ATOM      8  N   UNL     1       2.060   6.944  20.375  0.00  0.00    +0.000 N 
ATOM      9  C   UNL     1       1.299   9.175  19.681  0.00  0.00    +0.000 A 
ATOM     10  C   UNL     1       0.507   9.444  20.835  0.00  0.00    +0.000 A 
ATOM     11  C   UNL     1      -0.113  10.691  21.024  0.00  0.00    +0.000 A 
ATOM     12  O   UNL     1      -0.935  10.919  22.096  0.00  0.00    +0.000 OA
ATOM     13  C   UNL     1      -0.575  10.100  23.204  0.00  0.00    +0.000 C 
ATOM     14  C   UNL     1      -0.598   8.654  22.769  0.00  0.00    +0.000 C 
ATOM     15  O   UNL     1       0.377   8.416  21.751  0.00  0.00    +0.000 OA
ATOM     16  H   UNL     1       1.369   7.130  21.101  0.00  0.00    +0.000 HD
ENDROOT
BRANCH   8  17
ATOM     17  C   UNL     1       2.117   5.553  20.141  0.00  0.00    +0.000 A 
ATOM     18  C   UNL     1       1.183   4.726  20.781  0.00  0.00    +0.000 A 
ATOM     19  C   UNL     1       1.140   3.357  20.514  0.00  0.00    +0.000 A 
ATOM     20  C   UNL     1       2.023   2.811  19.587  0.00  0.00    +0.000 A 
ATOM     21  F   UNL     1       1.961   1.496  19.335  0.00  0.00    +0.000 F 
ATOM     22  C   UNL     1       2.941   3.617  18.921  0.00  0.00    +0.000 A 
ATOM     23  C   UNL     1       2.979   4.989  19.193  0.00  0.00    +0.000 A 
BRANCH  22  24
ATOM     24  C   UNL     1       3.826   3.055  17.954  0.00  0.00    +0.000 C 
ATOM     25  N   UNL     1       4.522   2.577  17.154  0.00  0.00    +0.000 NA
ENDBRANCH  22  24
ENDBRANCH   8  17
BRANCH   1  26
ATOM     26  O   UNL     1      -0.419  12.981  20.145  0.00  0.00    +0.000 OA
BRANCH  26  27
ATOM     27  C   UNL     1      -1.664  13.289  19.489  0.00  0.00    +0.000 C 
ATOM     28  C   UNL     1      -2.777  13.241  20.539  0.00  0.00    +0.000 C 
BRANCH  27  29
ATOM     29  O   UNL     1      -1.914  12.308  18.463  0.00  0.00    +0.000 OA
BRANCH  29  31
ATOM     30  C   UNL     1      -3.226  10.390  17.830  0.00  0.00    +0.000 C 
ATOM     31  C   UNL     1      -3.207  11.710  18.572  0.00  0.00    +0.000 C 
ENDBRANCH  29  31
ENDBRANCH  27  29
ENDBRANCH  26  27
ENDBRANCH   1  26
TORSDOF 6
ENDMDL
