MODEL 1
REMARK VINA RESULT:      -8.2      0.000      0.000
REMARK  Name = 
REMARK  11 active torsions:
REMARK  status: ('A' for Active; 'I' for Inactive)
REMARK    1  A    between atoms: C_1  and  C_2
REMARK    2  A    between atoms: C_2  and  C_3
REMARK    3  A    between atoms: C_10  and  C_11
REMARK    4  A    between atoms: N_13  and  C_14
REMARK    5  A    between atoms: C_17  and  C_18
REMARK    6  A    between atoms: C_21  and  N_22
REMARK    7  A    between atoms: N_22  and  C_23
REMARK    8  A    between atoms: C_23  and  C_24
REMARK    9  A    between atoms: C_24  and  C_25
REMARK   10  A    between atoms: C_25  and  O_26
REMARK   11  A    between atoms: O_26  and  C_27
REMARK                            x       y       z     vdW  Elec       q    Type
REMARK                         _______ _______ _______ _____ _____    ______ ____
ROOT
ATOM      1  C   UNL     1       1.935   7.845  19.432  0.00  0.00    +0.000 A 
ATOM      2  C   UNL     1       1.770   8.401  18.159  0.00  0.00    +0.000 A 
ATOM      3  C   UNL     1       1.253   9.698  18.015  0.00  0.00    +0.000 A 
ATOM      4  C   UNL     1       0.884  10.454  19.144  0.00  0.00    +0.000 A 
ATOM      5  C   UNL     1       0.992   9.888  20.434  0.00  0.00    +0.000 A 
ATOM      6  C   UNL     1       1.507   8.580  20.542  0.00  0.00    +0.000 A 
ENDROOT
BRANCH   1  17
ATOM      7  C   UNL     1       5.606   5.440  16.079  0.00  0.00    +0.000 C 
ATOM      8  O   UNL     1       5.197   6.315  15.315  0.00  0.00    +0.000 OA
ATOM      9  N   UNL     1       5.391   5.500  17.452  0.00  0.00    +0.000 N 
ATOM     10  C   UNL     1       5.960   4.544  18.419  0.00  0.00    +0.000 C 
ATOM     11  C   UNL     1       4.852   3.839  19.197  0.00  0.00    +0.000 C 
ATOM     12  O   UNL     1       4.967   2.690  19.610  0.00  0.00    +0.000 OA
ATOM     13  C   UNL     1       3.739   4.701  19.539  0.00  0.00    +0.000 A 
ATOM     14  C   UNL     1       2.636   4.540  20.385  0.00  0.00    +0.000 A 
ATOM     15  C   UNL     1       2.294   3.377  21.245  0.00  0.00    +0.000 C 
ATOM     16  N   UNL     1       1.847   5.622  20.363  0.00  0.00    +0.000 NA
ATOM     17  N   UNL     1       2.483   6.532  19.570  0.00  0.00    +0.000 N 
ATOM     18  C   UNL     1       3.625   5.975  19.009  0.00  0.00    +0.000 A 
ATOM     19  C   UNL     1       4.538   6.573  17.994  0.00  0.00    +0.000 C 
BRANCH   7  21
ATOM     20  C   UNL     1       6.189   3.961  14.088  0.00  0.00    +0.000 C 
ATOM     21  C   UNL     1       6.369   4.224  15.571  0.00  0.00    +0.000 C 
ENDBRANCH   7  21
ENDBRANCH   1  17
BRANCH   4  22
ATOM     22  C   UNL     1       0.365  11.851  18.966  0.00  0.00    +0.000 C 
ATOM     23  N   UNL     1      -0.605  12.059  18.026  0.00  0.00    +0.000 N 
ATOM     24  O   UNL     1       0.826  12.804  19.586  0.00  0.00    +0.000 OA
ATOM     25  H   UNL     1      -0.826  11.389  17.304  0.00  0.00    +0.000 HD
ATOM     26  H   UNL     1      -0.846  13.029  17.850  0.00  0.00    +0.000 HD
ENDBRANCH   4  22
BRANCH   5  27
ATOM     27  N   UNL     1       0.498  10.530  21.584  0.00  0.00    +0.000 N 
ATOM     28  H   UNL     1       1.260  10.987  22.107  0.00  0.00    +0.000 HD
BRANCH  27  29
ATOM     29  C   UNL     1      -0.446   9.835  22.454  0.00  0.00    +0.000 C 
BRANCH  29  30
ATOM     30  C   UNL     1      -1.307  10.857  23.189  0.00  0.00    +0.000 C 
BRANCH  30  31
ATOM     31  C   UNL     1      -1.298  12.191  22.453  0.00  0.00    +0.000 C 
BRANCH  31  32
ATOM     32  O   UNL     1      -0.337  13.051  23.059  0.00  0.00    +0.000 OA
ATOM     33  C   UNL     1      -0.765  14.407  23.029  0.00  0.00    +0.000 C 
ENDBRANCH  31  32
ENDBRANCH  30  31
ENDBRANCH  29  30
ENDBRANCH  27  29
ENDBRANCH   5  27
TORSDOF 8
ENDMDL
MODEL 2
REMARK VINA RESULT:      -7.4      1.822      8.367
REMARK  Name = 
REMARK  11 active torsions:
REMARK  status: ('A' for Active; 'I' for Inactive)
REMARK    1  A    between atoms: C_1  and  C_2
REMARK    2  A    between atoms: C_2  and  C_3
REMARK    3  A    between atoms: C_10  and  C_11
REMARK    4  A    between atoms: N_13  and  C_14
REMARK    5  A    between atoms: C_17  and  C_18
REMARK    6  A    between atoms: C_21  and  N_22
REMARK    7  A    between atoms: N_22  and  C_23
REMARK    8  A    between atoms: C_23  and  C_24
REMARK    9  A    between atoms: C_24  and  C_25
REMARK   10  A    between atoms: C_25  and  O_26
REMARK   11  A    between atoms: O_26  and  C_27
REMARK                            x       y       z     vdW  Elec       q    Type
REMARK                         _______ _______ _______ _____ _____    ______ ____
ROOT
ATOM      1  C   UNL     1       2.098   7.057  19.966  0.00  0.00    +0.000 A 
ATOM      2  C   UNL     1       1.862   5.769  20.458  0.00  0.00    +0.000 A 
ATOM      3  C   UNL     1       2.536   4.668  19.908  0.00  0.00    +0.000 A 
ATOM      4  C   UNL     1       3.450   4.838  18.851  0.00  0.00    +0.000 A 
ATOM      5  C   UNL     1       3.660   6.125  18.305  0.00  0.00    +0.000 A 
ATOM      6  C   UNL     1       2.960   7.207  18.875  0.00  0.00    +0.000 A 
ENDROOT
BRANCH   1  17
ATOM      7  C   UNL     1       2.157  12.260  18.113  0.00  0.00    +0.000 C 
ATOM      8  O   UNL     1       3.163  11.843  17.538  0.00  0.00    +0.000 OA
ATOM      9  N   UNL     1       1.208  11.399  18.657  0.00  0.00    +0.000 N 
ATOM     10  C   UNL     1      -0.067  11.845  19.248  0.00  0.00    +0.000 C 
ATOM     11  C   UNL     1      -0.166  11.408  20.707  0.00  0.00    +0.000 C 
ATOM     12  O   UNL     1      -0.775  12.061  21.549  0.00  0.00    +0.000 OA
ATOM     13  C   UNL     1       0.373  10.088  20.961  0.00  0.00    +0.000 A 
ATOM     14  C   UNL     1       0.318   9.234  22.067  0.00  0.00    +0.000 A 
ATOM     15  C   UNL     1      -0.379   9.445  23.362  0.00  0.00    +0.000 C 
ATOM     16  N   UNL     1       0.998   8.103  21.840  0.00  0.00    +0.000 NA
ATOM     17  N   UNL     1       1.424   8.176  20.546  0.00  0.00    +0.000 N 
ATOM     18  C   UNL     1       1.097   9.408  19.995  0.00  0.00    +0.000 A 
ATOM     19  C   UNL     1       1.478   9.951  18.660  0.00  0.00    +0.000 C 
BRANCH   7  21
ATOM     20  C   UNL     1       2.523  14.356  19.513  0.00  0.00    +0.000 C 
ATOM     21  C   UNL     1       1.886  13.749  18.277  0.00  0.00    +0.000 C 
ENDBRANCH   7  21
ENDBRANCH   1  17
BRANCH   4  22
ATOM     22  C   UNL     1       4.184   3.649  18.303  0.00  0.00    +0.000 C 
ATOM     23  N   UNL     1       4.990   2.947  19.156  0.00  0.00    +0.000 N 
ATOM     24  O   UNL     1       4.131   3.335  17.120  0.00  0.00    +0.000 OA
ATOM     25  H   UNL     1       5.292   3.305  20.050  0.00  0.00    +0.000 HD
ATOM     26  H   UNL     1       5.560   2.225  18.727  0.00  0.00    +0.000 HD
ENDBRANCH   4  22
BRANCH   5  27
ATOM     27  N   UNL     1       4.439   6.338  17.153  0.00  0.00    +0.000 N 
ATOM     28  H   UNL     1       4.527   5.470  16.603  0.00  0.00    +0.000 HD
BRANCH  27  29
ATOM     29  C   UNL     1       5.695   7.073  17.252  0.00  0.00    +0.000 C 
BRANCH  29  30
ATOM     30  C   UNL     1       6.744   6.201  17.933  0.00  0.00    +0.000 C 
BRANCH  30  31
ATOM     31  C   UNL     1       7.245   5.125  16.977  0.00  0.00    +0.000 C 
BRANCH  31  32
ATOM     32  O   UNL     1       7.244   5.644  15.650  0.00  0.00    +0.000 OA
ATOM     33  C   UNL     1       6.820   4.663  14.712  0.00  0.00    +0.000 C 
ENDBRANCH  31  32
ENDBRANCH  30  31
ENDBRANCH  29  30
ENDBRANCH  27  29
ENDBRANCH   5  27
TORSDOF 8
ENDMDL
MODEL 3
REMARK VINA RESULT:      -7.4      1.531      2.571
REMARK  Name = 
REMARK  11 active torsions:
REMARK  status: ('A' for Active; 'I' for Inactive)
REMARK    1  A    between atoms: C_1  and  C_2
REMARK    2  A    between atoms: C_2  and  C_3
REMARK    3  A    between atoms: C_10  and  C_11
REMARK    4  A    between atoms: N_13  and  C_14
REMARK    5  A    between atoms: C_17  and  C_18
REMARK    6  A    between atoms: C_21  and  N_22
REMARK    7  A    between atoms: N_22  and  C_23
REMARK    8  A    between atoms: C_23  and  C_24
REMARK    9  A    between atoms: C_24  and  C_25
REMARK   10  A    between atoms: C_25  and  O_26
REMARK   11  A    between atoms: O_26  and  C_27
REMARK                            x       y       z     vdW  Elec       q    Type
REMARK                         _______ _______ _______ _____ _____    ______ ____
ROOT
ATOM      1  C   UNL     1       1.724   7.649  20.048  0.00  0.00    +0.000 A 
ATOM      2  C   UNL     1       1.076   8.068  21.214  0.00  0.00    +0.000 A 
ATOM      3  C   UNL     1       0.469   9.332  21.271  0.00  0.00    +0.000 A 
ATOM      4  C   UNL     1       0.510  10.200  20.163  0.00  0.00    +0.000 A 
ATOM      5  C   UNL     1       1.207   9.815  18.995  0.00  0.00    +0.000 A 
ATOM      6  C   UNL     1       1.812   8.542  18.975  0.00  0.00    +0.000 A 
ENDROOT
BRANCH   1  17
ATOM      7  C   UNL     1       5.417   5.882  16.341  0.00  0.00    +0.000 C 
ATOM      8  O   UNL     1       4.964   6.840  15.714  0.00  0.00    +0.000 OA
ATOM      9  N   UNL     1       5.224   5.739  17.711  0.00  0.00    +0.000 N 
ATOM     10  C   UNL     1       5.844   4.677  18.525  0.00  0.00    +0.000 C 
ATOM     11  C   UNL     1       4.775   3.828  19.209  0.00  0.00    +0.000 C 
ATOM     12  O   UNL     1       4.938   2.637  19.453  0.00  0.00    +0.000 OA
ATOM     13  C   UNL     1       3.639   4.591  19.684  0.00  0.00    +0.000 A 
ATOM     14  C   UNL     1       2.558   4.271  20.512  0.00  0.00    +0.000 A 
ATOM     15  C   UNL     1       2.272   2.986  21.202  0.00  0.00    +0.000 C 
ATOM     16  N   UNL     1       1.731   5.315  20.654  0.00  0.00    +0.000 NA
ATOM     17  N   UNL     1       2.320   6.351  19.991  0.00  0.00    +0.000 N 
ATOM     18  C   UNL     1       3.471   5.922  19.342  0.00  0.00    +0.000 A 
ATOM     19  C   UNL     1       4.345   6.691  18.411  0.00  0.00    +0.000 C 
BRANCH   7  21
ATOM     20  C   UNL     1       5.612   4.313  14.343  0.00  0.00    +0.000 C 
ATOM     21  C   UNL     1       6.213   4.779  15.656  0.00  0.00    +0.000 C 
ENDBRANCH   7  21
ENDBRANCH   1  17
BRANCH   4  22
ATOM     22  C   UNL     1      -0.176  11.533  20.237  0.00  0.00    +0.000 C 
ATOM     23  N   UNL     1       0.086  12.329  21.316  0.00  0.00    +0.000 N 
ATOM     24  O   UNL     1      -0.998  11.892  19.402  0.00  0.00    +0.000 OA
ATOM     25  H   UNL     1       0.526  11.989  22.159  0.00  0.00    +0.000 HD
ATOM     26  H   UNL     1      -0.481  13.167  21.393  0.00  0.00    +0.000 HD
ENDBRANCH   4  22
BRANCH   5  27
ATOM     27  N   UNL     1       1.415  10.694  17.917  0.00  0.00    +0.000 N 
ATOM     28  H   UNL     1       1.279  10.210  17.016  0.00  0.00    +0.000 HD
BRANCH  27  29
ATOM     29  C   UNL     1       2.577  11.577  17.914  0.00  0.00    +0.000 C 
BRANCH  29  30
ATOM     30  C   UNL     1       2.118  13.023  18.062  0.00  0.00    +0.000 C 
BRANCH  30  31
ATOM     31  C   UNL     1       2.815  13.686  19.242  0.00  0.00    +0.000 C 
BRANCH  31  32
ATOM     32  O   UNL     1       1.859  14.433  19.990  0.00  0.00    +0.000 OA
ATOM     33  C   UNL     1       2.467  15.097  21.091  0.00  0.00    +0.000 C 
ENDBRANCH  31  32
ENDBRANCH  30  31
ENDBRANCH  29  30
ENDBRANCH  27  29
ENDBRANCH   5  27
TORSDOF 8
ENDMDL
MODEL 4
REMARK VINA RESULT:      -7.3      2.047      3.235
REMARK  Name = 
REMARK  11 active torsions:
REMARK  status: ('A' for Active; 'I' for Inactive)
REMARK    1  A    between atoms: C_1  and  C_2
REMARK    2  A    between atoms: C_2  and  C_3
REMARK    3  A    between atoms: C_10  and  C_11
REMARK    4  A    between atoms: N_13  and  C_14
REMARK    5  A    between atoms: C_17  and  C_18
REMARK    6  A    between atoms: C_21  and  N_22
REMARK    7  A    between atoms: N_22  and  C_23
REMARK    8  A    between atoms: C_23  and  C_24
REMARK    9  A    between atoms: C_24  and  C_25
REMARK   10  A    between atoms: C_25  and  O_26
REMARK   11  A    between atoms: O_26  and  C_27
REMARK                            x       y       z     vdW  Elec       q    Type
REMARK                         _______ _______ _______ _____ _____    ______ ____
ROOT
ATOM      1  C   UNL     1       1.642   7.578  20.412  0.00  0.00    +0.000 A 
ATOM      2  C   UNL     1       1.661   8.181  21.674  0.00  0.00    +0.000 A 
ATOM      3  C   UNL     1       1.218   9.503  21.834  0.00  0.00    +0.000 A 
ATOM      4  C   UNL     1       0.758  10.245  20.730  0.00  0.00    +0.000 A 
ATOM      5  C   UNL     1       0.782   9.671  19.438  0.00  0.00    +0.000 A 
ATOM      6  C   UNL     1       1.241   8.344  19.313  0.00  0.00    +0.000 A 
ENDROOT
BRANCH   1  17
ATOM      7  C   UNL     1       5.077   5.625  16.554  0.00  0.00    +0.000 C 
ATOM      8  O   UNL     1       4.744   6.672  15.998  0.00  0.00    +0.000 OA
ATOM      9  N   UNL     1       4.873   5.415  17.915  0.00  0.00    +0.000 N 
ATOM     10  C   UNL     1       5.360   4.233  18.649  0.00  0.00    +0.000 C 
ATOM     11  C   UNL     1       4.197   3.478  19.287  0.00  0.00    +0.000 C 
ATOM     12  O   UNL     1       4.213   2.262  19.450  0.00  0.00    +0.000 OA
ATOM     13  C   UNL     1       3.165   4.340  19.825  0.00  0.00    +0.000 A 
ATOM     14  C   UNL     1       2.055   4.100  20.643  0.00  0.00    +0.000 A 
ATOM     15  C   UNL     1       1.616   2.816  21.249  0.00  0.00    +0.000 C 
ATOM     16  N   UNL     1       1.363   5.225  20.862  0.00  0.00    +0.000 NA
ATOM     17  N   UNL     1       2.074   6.224  20.263  0.00  0.00    +0.000 N 
ATOM     18  C   UNL     1       3.161   5.702  19.574  0.00  0.00    +0.000 A 
ATOM     19  C   UNL     1       4.119   6.419  18.686  0.00  0.00    +0.000 C 
BRANCH   7  21
ATOM     20  C   UNL     1       6.992   4.881  15.047  0.00  0.00    +0.000 C 
ATOM     21  C   UNL     1       5.730   4.482  15.789  0.00  0.00    +0.000 C 
ENDBRANCH   7  21
ENDBRANCH   1  17
BRANCH   4  22
ATOM     22  C   UNL     1       0.257  11.646  20.931  0.00  0.00    +0.000 C 
ATOM     23  N   UNL     1      -0.964  11.809  21.523  0.00  0.00    +0.000 N 
ATOM     24  O   UNL     1       0.874  12.626  20.529  0.00  0.00    +0.000 OA
ATOM     25  H   UNL     1      -1.633  11.060  21.624  0.00  0.00    +0.000 HD
ATOM     26  H   UNL     1      -1.323  12.758  21.537  0.00  0.00    +0.000 HD
ENDBRANCH   4  22
BRANCH   5  27
ATOM     27  N   UNL     1       0.483  10.409  18.279  0.00  0.00    +0.000 N 
ATOM     28  H   UNL     1       0.497  11.421  18.473  0.00  0.00    +0.000 HD
BRANCH  27  29
ATOM     29  C   UNL     1      -0.639  10.012  17.435  0.00  0.00    +0.000 C 
BRANCH  29  30
ATOM     30  C   UNL     1      -1.949  10.294  18.163  0.00  0.00    +0.000 C 
BRANCH  30  31
ATOM     31  C   UNL     1      -3.138   9.979  17.264  0.00  0.00    +0.000 C 
BRANCH  31  32
ATOM     32  O   UNL     1      -2.665   9.684  15.952  0.00  0.00    +0.000 OA
ATOM     33  C   UNL     1      -3.360  10.441  14.970  0.00  0.00    +0.000 C 
ENDBRANCH  31  32
ENDBRANCH  30  31
ENDBRANCH  29  30
ENDBRANCH  27  29
ENDBRANCH   5  27
TORSDOF 8
ENDMDL
MODEL 5
REMARK VINA RESULT:      -7.1      3.178      7.767
REMARK  Name = 
REMARK  11 active torsions:
REMARK  status: ('A' for Active; 'I' for Inactive)
REMARK    1  A    between atoms: C_1  and  C_2
REMARK    2  A    between atoms: C_2  and  C_3
REMARK    3  A    between atoms: C_10  and  C_11
REMARK    4  A    between atoms: N_13  and  C_14
REMARK    5  A    between atoms: C_17  and  C_18
REMARK    6  A    between atoms: C_21  and  N_22
REMARK    7  A    between atoms: N_22  and  C_23
REMARK    8  A    between atoms: C_23  and  C_24
REMARK    9  A    between atoms: C_24  and  C_25
REMARK   10  A    between atoms: C_25  and  O_26
REMARK   11  A    between atoms: O_26  and  C_27
REMARK                            x       y       z     vdW  Elec       q    Type
REMARK                         _______ _______ _______ _____ _____    ______ ____
ROOT
ATOM      1  C   UNL     1       5.323   4.086  17.505  0.00  0.00    +0.000 A 
ATOM      2  C   UNL     1       5.091   3.371  16.325  0.00  0.00    +0.000 A 
ATOM      3  C   UNL     1       5.778   3.707  15.148  0.00  0.00    +0.000 A 
ATOM      4  C   UNL     1       6.700   4.770  15.132  0.00  0.00    +0.000 A 
ATOM      5  C   UNL     1       6.906   5.538  16.301  0.00  0.00    +0.000 A 
ATOM      6  C   UNL     1       6.194   5.179  17.462  0.00  0.00    +0.000 A 
ENDROOT
BRANCH   1  17
ATOM      7  C   UNL     1       1.681   7.176  20.277  0.00  0.00    +0.000 C 
ATOM      8  O   UNL     1       2.231   8.068  19.630  0.00  0.00    +0.000 OA
ATOM      9  N   UNL     1       1.801   5.833  19.933  0.00  0.00    +0.000 N 
ATOM     10  C   UNL     1       1.068   4.742  20.601  0.00  0.00    +0.000 C 
ATOM     11  C   UNL     1       2.040   3.732  21.207  0.00  0.00    +0.000 C 
ATOM     12  O   UNL     1       1.779   3.096  22.223  0.00  0.00    +0.000 OA
ATOM     13  C   UNL     1       3.206   3.480  20.387  0.00  0.00    +0.000 A 
ATOM     14  C   UNL     1       4.222   2.520  20.447  0.00  0.00    +0.000 A 
ATOM     15  C   UNL     1       4.381   1.404  21.416  0.00  0.00    +0.000 C 
ATOM     16  N   UNL     1       5.117   2.699  19.467  0.00  0.00    +0.000 NA
ATOM     17  N   UNL     1       4.636   3.723  18.704  0.00  0.00    +0.000 N 
ATOM     18  C   UNL     1       3.487   4.256  19.275  0.00  0.00    +0.000 A 
ATOM     19  C   UNL     1       2.715   5.456  18.842  0.00  0.00    +0.000 C 
BRANCH   7  21
ATOM     20  C   UNL     1       0.088   8.799  21.426  0.00  0.00    +0.000 C 
ATOM     21  C   UNL     1       0.837   7.482  21.507  0.00  0.00    +0.000 C 
ENDBRANCH   7  21
ENDBRANCH   1  17
BRANCH   4  22
ATOM     22  C   UNL     1       7.447   5.088  13.870  0.00  0.00    +0.000 C 
ATOM     23  N   UNL     1       7.021   4.503  12.710  0.00  0.00    +0.000 N 
ATOM     24  O   UNL     1       8.449   5.795  13.863  0.00  0.00    +0.000 OA
ATOM     25  H   UNL     1       6.393   3.714  12.688  0.00  0.00    +0.000 HD
ATOM     26  H   UNL     1       7.618   4.646  11.901  0.00  0.00    +0.000 HD
ENDBRANCH   4  22
BRANCH   5  27
ATOM     27  N   UNL     1       7.694   6.704  16.308  0.00  0.00    +0.000 N 
ATOM     28  H   UNL     1       8.688   6.475  16.458  0.00  0.00    +0.000 HD
BRANCH  27  29
ATOM     29  C   UNL     1       7.261   7.867  17.075  0.00  0.00    +0.000 C 
BRANCH  29  30
ATOM     30  C   UNL     1       8.260   8.139  18.195  0.00  0.00    +0.000 C 
BRANCH  30  31
ATOM     31  C   UNL     1       8.591   9.625  18.265  0.00  0.00    +0.000 C 
BRANCH  31  32
ATOM     32  O   UNL     1       9.329   9.882  19.457  0.00  0.00    +0.000 OA
ATOM     33  C   UNL     1       9.735  11.243  19.530  0.00  0.00    +0.000 C 
ENDBRANCH  31  32
ENDBRANCH  30  31
ENDBRANCH  29  30
ENDBRANCH  27  29
ENDBRANCH   5  27
TORSDOF 8
ENDMDL
MODEL 6
REMARK VINA RESULT:      -7.1      2.069      8.486
REMARK  Name = 
REMARK  11 active torsions:
REMARK  status: ('A' for Active; 'I' for Inactive)
REMARK    1  A    between atoms: C_1  and  C_2
REMARK    2  A    between atoms: C_2  and  C_3
REMARK    3  A    between atoms: C_10  and  C_11
REMARK    4  A    between atoms: N_13  and  C_14
REMARK    5  A    between atoms: C_17  and  C_18
REMARK    6  A    between atoms: C_21  and  N_22
REMARK    7  A    between atoms: N_22  and  C_23
REMARK    8  A    between atoms: C_23  and  C_24
REMARK    9  A    between atoms: C_24  and  C_25
REMARK   10  A    between atoms: C_25  and  O_26
REMARK   11  A    between atoms: O_26  and  C_27
REMARK                            x       y       z     vdW  Elec       q    Type
REMARK                         _______ _______ _______ _____ _____    ______ ____
ROOT
ATOM      1  C   UNL     1       1.526   8.972  19.631  0.00  0.00    +0.000 A 
ATOM      2  C   UNL     1       1.974   9.173  18.322  0.00  0.00    +0.000 A 
ATOM      3  C   UNL     1       2.658   8.153  17.644  0.00  0.00    +0.000 A 
ATOM      4  C   UNL     1       2.913   6.918  18.271  0.00  0.00    +0.000 A 
ATOM      5  C   UNL     1       2.515   6.717  19.612  0.00  0.00    +0.000 A 
ATOM      6  C   UNL     1       1.838   7.766  20.266  0.00  0.00    +0.000 A 
ENDROOT
BRANCH   1  17
ATOM      7  C   UNL     1       1.856  14.393  18.625  0.00  0.00    +0.000 C 
ATOM      8  O   UNL     1       2.911  14.038  18.097  0.00  0.00    +0.000 OA
ATOM      9  N   UNL     1       0.843  13.489  18.929  0.00  0.00    +0.000 N 
ATOM     10  C   UNL     1      -0.480  13.878  19.449  0.00  0.00    +0.000 C 
ATOM     11  C   UNL     1      -0.740  13.227  20.805  0.00  0.00    +0.000 C 
ATOM     12  O   UNL     1      -1.424  13.762  21.671  0.00  0.00    +0.000 OA
ATOM     13  C   UNL     1      -0.249  11.868  20.904  0.00  0.00    +0.000 A 
ATOM     14  C   UNL     1      -0.433  10.856  21.853  0.00  0.00    +0.000 A 
ATOM     15  C   UNL     1      -1.260  10.888  23.087  0.00  0.00    +0.000 C 
ATOM     16  N   UNL     1       0.251   9.753  21.523  0.00  0.00    +0.000 NA
ATOM     17  N   UNL     1       0.811  10.010  20.307  0.00  0.00    +0.000 N 
ATOM     18  C   UNL     1       0.562  11.321  19.923  0.00  0.00    +0.000 A 
ATOM     19  C   UNL     1       1.090  12.050  18.735  0.00  0.00    +0.000 C 
BRANCH   7  21
ATOM     20  C   UNL     1       2.222  16.844  18.036  0.00  0.00    +0.000 C 
ATOM     21  C   UNL     1       1.591  15.847  18.990  0.00  0.00    +0.000 C 
ENDBRANCH   7  21
ENDBRANCH   1  17
BRANCH   4  22
ATOM     22  C   UNL     1       3.615   5.829  17.513  0.00  0.00    +0.000 C 
ATOM     23  N   UNL     1       4.838   6.114  16.971  0.00  0.00    +0.000 N 
ATOM     24  O   UNL     1       3.104   4.733  17.318  0.00  0.00    +0.000 OA
ATOM     25  H   UNL     1       5.185   7.055  16.857  0.00  0.00    +0.000 HD
ATOM     26  H   UNL     1       5.229   5.397  16.368  0.00  0.00    +0.000 HD
ENDBRANCH   4  22
BRANCH   5  27
ATOM     27  N   UNL     1       2.874   5.569  20.342  0.00  0.00    +0.000 N 
ATOM     28  H   UNL     1       3.498   4.962  19.789  0.00  0.00    +0.000 HD
BRANCH  27  29
ATOM     29  C   UNL     1       1.853   4.819  21.066  0.00  0.00    +0.000 C 
BRANCH  29  30
ATOM     30  C   UNL     1       1.247   3.765  20.146  0.00  0.00    +0.000 C 
BRANCH  30  31
ATOM     31  C   UNL     1       1.949   2.426  20.334  0.00  0.00    +0.000 C 
BRANCH  31  32
ATOM     32  O   UNL     1       3.241   2.489  19.736  0.00  0.00    +0.000 OA
ATOM     33  C   UNL     1       3.321   1.652  18.589  0.00  0.00    +0.000 C 
ENDBRANCH  31  32
ENDBRANCH  30  31
ENDBRANCH  29  30
ENDBRANCH  27  29
ENDBRANCH   5  27
TORSDOF 8
ENDMDL
MODEL 7
REMARK VINA RESULT:      -7.1      2.047      8.123
REMARK  Name = 
REMARK  11 active torsions:
REMARK  status: ('A' for Active; 'I' for Inactive)
REMARK    1  A    between atoms: C_1  and  C_2
REMARK    2  A    between atoms: C_2  and  C_3
REMARK    3  A    between atoms: C_10  and  C_11
REMARK    4  A    between atoms: N_13  and  C_14
REMARK    5  A    between atoms: C_17  and  C_18
REMARK    6  A    between atoms: C_21  and  N_22
REMARK    7  A    between atoms: N_22  and  C_23
REMARK    8  A    between atoms: C_23  and  C_24
REMARK    9  A    between atoms: C_24  and  C_25
REMARK   10  A    between atoms: C_25  and  O_26
REMARK   11  A    between atoms: O_26  and  C_27
REMARK                            x       y       z     vdW  Elec       q    Type
REMARK                         _______ _______ _______ _____ _____    ______ ____
ROOT
ATOM      1  C   UNL     1       2.047   7.039  20.025  0.00  0.00    +0.000 A 
ATOM      2  C   UNL     1       2.009   5.797  20.665  0.00  0.00    +0.000 A 
ATOM      3  C   UNL     1       2.704   4.702  20.127  0.00  0.00    +0.000 A 
ATOM      4  C   UNL     1       3.439   4.833  18.934  0.00  0.00    +0.000 A 
ATOM      5  C   UNL     1       3.444   6.067  18.244  0.00  0.00    +0.000 A 
ATOM      6  C   UNL     1       2.729   7.143  18.808  0.00  0.00    +0.000 A 
ENDROOT
BRANCH   1  17
ATOM      7  C   UNL     1       2.088  12.236  18.155  0.00  0.00    +0.000 C 
ATOM      8  O   UNL     1       3.105  11.826  17.596  0.00  0.00    +0.000 OA
ATOM      9  N   UNL     1       1.139  11.369  18.688  0.00  0.00    +0.000 N 
ATOM     10  C   UNL     1      -0.149  11.806  19.259  0.00  0.00    +0.000 C 
ATOM     11  C   UNL     1      -0.265  11.373  20.719  0.00  0.00    +0.000 C 
ATOM     12  O   UNL     1      -0.892  12.023  21.549  0.00  0.00    +0.000 OA
ATOM     13  C   UNL     1       0.282  10.059  20.984  0.00  0.00    +0.000 A 
ATOM     14  C   UNL     1       0.218   9.208  22.093  0.00  0.00    +0.000 A 
ATOM     15  C   UNL     1      -0.499   9.417  23.377  0.00  0.00    +0.000 C 
ATOM     16  N   UNL     1       0.911   8.082  21.879  0.00  0.00    +0.000 NA
ATOM     17  N   UNL     1       1.355   8.154  20.591  0.00  0.00    +0.000 N 
ATOM     18  C   UNL     1       1.025   9.382  20.032  0.00  0.00    +0.000 A 
ATOM     19  C   UNL     1       1.421   9.923  18.700  0.00  0.00    +0.000 C 
BRANCH   7  21
ATOM     20  C   UNL     1       2.455  14.351  19.528  0.00  0.00    +0.000 C 
ATOM     21  C   UNL     1       1.801  13.723  18.310  0.00  0.00    +0.000 C 
ENDBRANCH   7  21
ENDBRANCH   1  17
BRANCH   4  22
ATOM     22  C   UNL     1       4.202   3.657  18.397  0.00  0.00    +0.000 C 
ATOM     23  N   UNL     1       5.159   3.097  19.197  0.00  0.00    +0.000 N 
ATOM     24  O   UNL     1       4.037   3.235  17.258  0.00  0.00    +0.000 OA
ATOM     25  H   UNL     1       5.531   3.555  20.016  0.00  0.00    +0.000 HD
ATOM     26  H   UNL     1       5.733   2.383  18.760  0.00  0.00    +0.000 HD
ENDBRANCH   4  22
BRANCH   5  27
ATOM     27  N   UNL     1       4.029   6.219  16.974  0.00  0.00    +0.000 N 
ATOM     28  H   UNL     1       4.148   5.305  16.512  0.00  0.00    +0.000 HD
BRANCH  27  29
ATOM     29  C   UNL     1       5.188   7.090  16.808  0.00  0.00    +0.000 C 
BRANCH  29  30
ATOM     30  C   UNL     1       6.430   6.395  17.354  0.00  0.00    +0.000 C 
BRANCH  30  31
ATOM     31  C   UNL     1       7.533   7.410  17.626  0.00  0.00    +0.000 C 
BRANCH  31  32
ATOM     32  O   UNL     1       8.280   6.994  18.766  0.00  0.00    +0.000 OA
ATOM     33  C   UNL     1       7.820   5.741  19.256  0.00  0.00    +0.000 C 
ENDBRANCH  31  32
ENDBRANCH  30  31
ENDBRANCH  29  30
ENDBRANCH  27  29
ENDBRANCH   5  27
TORSDOF 8
ENDMDL
MODEL 8
REMARK VINA RESULT:      -7.0      1.128      1.537
REMARK  Name = 
REMARK  11 active torsions:
REMARK  status: ('A' for Active; 'I' for Inactive)
REMARK    1  A    between atoms: C_1  and  C_2
REMARK    2  A    between atoms: C_2  and  C_3
REMARK    3  A    between atoms: C_10  and  C_11
REMARK    4  A    between atoms: N_13  and  C_14
REMARK    5  A    between atoms: C_17  and  C_18
REMARK    6  A    between atoms: C_21  and  N_22
REMARK    7  A    between atoms: N_22  and  C_23
REMARK    8  A    between atoms: C_23  and  C_24
REMARK    9  A    between atoms: C_24  and  C_25
REMARK   10  A    between atoms: C_25  and  O_26
REMARK   11  A    between atoms: O_26  and  C_27
REMARK                            x       y       z     vdW  Elec       q    Type
REMARK                         _______ _______ _______ _____ _____    ______ ____
ROOT
ATOM      1  C   UNL     1       1.891   8.407  19.068  0.00  0.00    +0.000 A 
ATOM      2  C   UNL     1       2.334   9.159  17.975  0.00  0.00    +0.000 A 
ATOM      3  C   UNL     1       1.832  10.451  17.756  0.00  0.00    +0.000 A 
ATOM      4  C   UNL     1       0.871  11.005  18.621  0.00  0.00    +0.000 A 
ATOM      5  C   UNL     1       0.372  10.239  19.699  0.00  0.00    +0.000 A 
ATOM      6  C   UNL     1       0.891   8.943  19.885  0.00  0.00    +0.000 A 
ENDROOT
BRANCH   1  17
ATOM      7  C   UNL     1       5.576   5.758  15.920  0.00  0.00    +0.000 C 
ATOM      8  O   UNL     1       5.185   6.585  15.097  0.00  0.00    +0.000 OA
ATOM      9  N   UNL     1       5.346   5.908  17.284  0.00  0.00    +0.000 N 
ATOM     10  C   UNL     1       5.895   5.011  18.318  0.00  0.00    +0.000 C 
ATOM     11  C   UNL     1       4.771   4.368  19.126  0.00  0.00    +0.000 C 
ATOM     12  O   UNL     1       4.870   3.246  19.613  0.00  0.00    +0.000 OA
ATOM     13  C   UNL     1       3.663   5.260  19.398  0.00  0.00    +0.000 A 
ATOM     14  C   UNL     1       2.549   5.164  20.240  0.00  0.00    +0.000 A 
ATOM     15  C   UNL     1       2.186   4.062  21.168  0.00  0.00    +0.000 C 
ATOM     16  N   UNL     1       1.771   6.249  20.138  0.00  0.00    +0.000 NA
ATOM     17  N   UNL     1       2.425   7.101  19.297  0.00  0.00    +0.000 N 
ATOM     18  C   UNL     1       3.568   6.498  18.786  0.00  0.00    +0.000 A 
ATOM     19  C   UNL     1       4.498   7.021  17.746  0.00  0.00    +0.000 C 
BRANCH   7  21
ATOM     20  C   UNL     1       6.024   4.044  14.089  0.00  0.00    +0.000 C 
ATOM     21  C   UNL     1       6.333   4.505  15.501  0.00  0.00    +0.000 C 
ENDBRANCH   7  21
ENDBRANCH   1  17
BRANCH   4  22
ATOM     22  C   UNL     1       0.374  12.402  18.386  0.00  0.00    +0.000 C 
ATOM     23  N   UNL     1      -0.733  12.564  17.600  0.00  0.00    +0.000 N 
ATOM     24  O   UNL     1       0.961  13.387  18.818  0.00  0.00    +0.000 OA
ATOM     25  H   UNL     1      -1.094  11.837  16.999  0.00  0.00    +0.000 HD
ATOM     26  H   UNL     1      -0.970  13.522  17.366  0.00  0.00    +0.000 HD
ENDBRANCH   4  22
BRANCH   5  27
ATOM     27  N   UNL     1      -0.696  10.675  20.504  0.00  0.00    +0.000 N 
ATOM     28  H   UNL     1      -1.500  10.964  19.926  0.00  0.00    +0.000 HD
BRANCH  27  29
ATOM     29  C   UNL     1      -0.443  11.589  21.614  0.00  0.00    +0.000 C 
BRANCH  29  30
ATOM     30  C   UNL     1      -1.155  11.083  22.863  0.00  0.00    +0.000 C 
BRANCH  30  31
ATOM     31  C   UNL     1      -0.682   9.679  23.215  0.00  0.00    +0.000 C 
BRANCH  31  32
ATOM     32  O   UNL     1       0.599   9.760  23.835  0.00  0.00    +0.000 OA
ATOM     33  C   UNL     1       1.593   9.109  23.055  0.00  0.00    +0.000 C 
ENDBRANCH  31  32
ENDBRANCH  30  31
ENDBRANCH  29  30
ENDBRANCH  27  29
ENDBRANCH   5  27
TORSDOF 8
ENDMDL
MODEL 9
REMARK VINA RESULT:      -6.9      2.051      7.984
REMARK  Name = 
REMARK  11 active torsions:
REMARK  status: ('A' for Active; 'I' for Inactive)
REMARK    1  A    between atoms: C_1  and  C_2
REMARK    2  A    between atoms: C_2  and  C_3
REMARK    3  A    between atoms: C_10  and  C_11
REMARK    4  A    between atoms: N_13  and  C_14
REMARK    5  A    between atoms: C_17  and  C_18
REMARK    6  A    between atoms: C_21  and  N_22
REMARK    7  A    between atoms: N_22  and  C_23
REMARK    8  A    between atoms: C_23  and  C_24
REMARK    9  A    between atoms: C_24  and  C_25
REMARK   10  A    between atoms: C_25  and  O_26
REMARK   11  A    between atoms: O_26  and  C_27
REMARK                            x       y       z     vdW  Elec       q    Type
REMARK                         _______ _______ _______ _____ _____    ______ ____
ROOT
ATOM      1  C   UNL     1       2.593   7.302  19.052  0.00  0.00    +0.000 A 
ATOM      2  C   UNL     1       3.347   7.791  17.981  0.00  0.00    +0.000 A 
ATOM      3  C   UNL     1       4.194   6.932  17.263  0.00  0.00    +0.000 A 
ATOM      4  C   UNL     1       4.306   5.574  17.613  0.00  0.00    +0.000 A 
ATOM      5  C   UNL     1       3.592   5.075  18.727  0.00  0.00    +0.000 A 
ATOM      6  C   UNL     1       2.758   5.966  19.431  0.00  0.00    +0.000 A 
ENDROOT
BRANCH   1  17
ATOM      7  C   UNL     1       2.045  12.745  18.289  0.00  0.00    +0.000 C 
ATOM      8  O   UNL     1       3.145  12.590  17.759  0.00  0.00    +0.000 OA
ATOM      9  N   UNL     1       1.190  11.676  18.542  0.00  0.00    +0.000 N 
ATOM     10  C   UNL     1      -0.182  11.822  19.062  0.00  0.00    +0.000 C 
ATOM     11  C   UNL     1      -0.338  11.076  20.386  0.00  0.00    +0.000 C 
ATOM     12  O   UNL     1      -1.104  11.453  21.266  0.00  0.00    +0.000 OA
ATOM     13  C   UNL     1       0.366   9.811  20.430  0.00  0.00    +0.000 A 
ATOM     14  C   UNL     1       0.344   8.741  21.331  0.00  0.00    +0.000 A 
ATOM     15  C   UNL     1      -0.483   8.583  22.556  0.00  0.00    +0.000 C 
ATOM     16  N   UNL     1       1.199   7.779  20.962  0.00  0.00    +0.000 NA
ATOM     17  N   UNL     1       1.716   8.178  19.764  0.00  0.00    +0.000 N 
ATOM     18  C   UNL     1       1.259   9.448  19.436  0.00  0.00    +0.000 A 
ATOM     19  C   UNL     1       1.667  10.306  18.287  0.00  0.00    +0.000 C 
BRANCH   7  21
ATOM     20  C   UNL     1       2.152  14.617  20.013  0.00  0.00    +0.000 C 
ATOM     21  C   UNL     1       1.546  14.119  18.715  0.00  0.00    +0.000 C 
ENDBRANCH   7  21
ENDBRANCH   1  17
BRANCH   4  22
ATOM     22  C   UNL     1       5.192   4.668  16.809  0.00  0.00    +0.000 C 
ATOM     23  N   UNL     1       6.409   4.332  17.333  0.00  0.00    +0.000 N 
ATOM     24  O   UNL     1       4.885   4.280  15.687  0.00  0.00    +0.000 OA
ATOM     25  H   UNL     1       6.832   4.826  18.105  0.00  0.00    +0.000 HD
ATOM     26  H   UNL     1       7.028   3.818  16.715  0.00  0.00    +0.000 HD
ENDBRANCH   4  22
BRANCH   5  27
ATOM     27  N   UNL     1       3.779   3.771  19.220  0.00  0.00    +0.000 N 
ATOM     28  H   UNL     1       4.730   3.653  19.599  0.00  0.00    +0.000 HD
BRANCH  27  29
ATOM     29  C   UNL     1       3.341   2.625  18.429  0.00  0.00    +0.000 C 
BRANCH  29  30
ATOM     30  C   UNL     1       1.851   2.750  18.132  0.00  0.00    +0.000 C 
BRANCH  30  31
ATOM     31  C   UNL     1       1.029   2.210  19.296  0.00  0.00    +0.000 C 
BRANCH  31  32
ATOM     32  O   UNL     1       0.910   3.221  20.293  0.00  0.00    +0.000 OA
ATOM     33  C   UNL     1       1.369   2.757  21.557  0.00  0.00    +0.000 C 
ENDBRANCH  31  32
ENDBRANCH  30  31
ENDBRANCH  29  30
ENDBRANCH  27  29
ENDBRANCH   5  27
TORSDOF 8
ENDMDL
