MODEL 1
REMARK VINA RESULT:      -8.7      0.000      0.000
REMARK  Name = 
REMARK  8 active torsions:
REMARK  status: ('A' for Active; 'I' for Inactive)
REMARK    1  A    between atoms: C_1  and  O_2
REMARK    2  A    between atoms: O_2  and  C_3
REMARK    3  A    between atoms: C_6  and  C_7
REMARK    4  A    between atoms: C_7  and  C_8
REMARK    5  A    between atoms: N_10  and  C_11
REMARK    6  A    between atoms: C_15  and  C_16
REMARK    7  A    between atoms: C_24  and  O_25
REMARK    8  A    between atoms: O_25  and  C_26
REMARK                            x       y       z     vdW  Elec       q    Type
REMARK                         _______ _______ _______ _____ _____    ______ ____
ROOT
ATOM      1  C   UNL     1       3.627   5.386  18.688  0.00  0.00    +0.000 C 
ATOM      2  O   UNL     1       4.188   5.589  19.763  0.00  0.00    +0.000 OA
ATOM      3  N   UNL     1       2.608   6.168  18.150  0.00  0.00    +0.000 N 
ATOM      4  H   UNL     1       1.960   5.692  17.532  0.00  0.00    +0.000 HD
ENDROOT
BRANCH   3   5
ATOM      5  C   UNL     1       2.162   7.356  18.760  0.00  0.00    +0.000 A 
ATOM      6  C   UNL     1       1.910   8.466  17.952  0.00  0.00    +0.000 A 
ATOM      7  C   UNL     1       1.298   9.608  18.489  0.00  0.00    +0.000 A 
ATOM      8  C   UNL     1       0.970   9.672  19.848  0.00  0.00    +0.000 A 
ATOM      9  C   UNL     1       0.096  10.700  20.436  0.00  0.00    +0.000 A 
ATOM     10  C   UNL     1      -0.353  11.917  19.685  0.00  0.00    +0.000 C 
ATOM     11  C   UNL     1      -0.354  10.485  21.681  0.00  0.00    +0.000 A 
ATOM     12  C   UNL     1       0.332   9.569  22.601  0.00  0.00    +0.000 A 
ATOM     13  O   UNL     1       0.213   9.713  23.813  0.00  0.00    +0.000 OA
ATOM     14  O   UNL     1       1.145   8.606  22.043  0.00  0.00    +0.000 OA
ATOM     15  C   UNL     1       1.359   8.596  20.653  0.00  0.00    +0.000 A 
ATOM     16  C   UNL     1       1.940   7.442  20.130  0.00  0.00    +0.000 A 
ENDBRANCH   3   5
BRANCH   1  17
ATOM     17  C   UNL     1       4.004   4.209  17.806  0.00  0.00    +0.000 C 
BRANCH  17  21
ATOM     18  C   UNL     1       7.022   5.083  14.801  0.00  0.00    +0.000 A 
ATOM     19  C   UNL     1       6.100   4.021  14.624  0.00  0.00    +0.000 A 
ATOM     20  C   UNL     1       5.114   3.751  15.571  0.00  0.00    +0.000 A 
ATOM     21  C   UNL     1       5.027   4.515  16.739  0.00  0.00    +0.000 A 
ATOM     22  C   UNL     1       5.978   5.526  16.942  0.00  0.00    +0.000 A 
ATOM     23  C   UNL     1       6.970   5.823  15.990  0.00  0.00    +0.000 A 
BRANCH  18  25
ATOM     24  C   UNL     1       7.649   5.052  12.521  0.00  0.00    +0.000 C 
ATOM     25  O   UNL     1       7.966   5.371  13.869  0.00  0.00    +0.000 OA
ENDBRANCH  18  25
BRANCH  23  26
ATOM     26  O   UNL     1       7.791   6.836  16.411  0.00  0.00    +0.000 OA
ATOM     27  C   UNL     1       7.567   7.426  17.680  0.00  0.00    +0.000 C 
ENDBRANCH  23  26
ENDBRANCH  17  21
ENDBRANCH   1  17
TORSDOF 5
ENDMDL
MODEL 2
REMARK VINA RESULT:      -8.6      1.091      1.108
REMARK  Name = 
REMARK  8 active torsions:
REMARK  status: ('A' for Active; 'I' for Inactive)
REMARK    1  A    between atoms: C_1  and  O_2
REMARK    2  A    between atoms: O_2  and  C_3
REMARK    3  A    between atoms: C_6  and  C_7
REMARK    4  A    between atoms: C_7  and  C_8
REMARK    5  A    between atoms: N_10  and  C_11
REMARK    6  A    between atoms: C_15  and  C_16
REMARK    7  A    between atoms: C_24  and  O_25
REMARK    8  A    between atoms: O_25  and  C_26
REMARK                            x       y       z     vdW  Elec       q    Type
REMARK                         _______ _______ _______ _____ _____    ______ ____
ROOT
ATOM      1  C   UNL     1       2.435   4.722  18.303  0.00  0.00    +0.000 C 
ATOM      2  O   UNL     1       1.314   4.511  18.761  0.00  0.00    +0.000 OA
ATOM      3  N   UNL     1       3.046   5.969  18.208  0.00  0.00    +0.000 N 
ATOM      4  H   UNL     1       3.723   6.078  17.461  0.00  0.00    +0.000 HD
ENDROOT
BRANCH   3   5
ATOM      5  C   UNL     1       2.459   7.143  18.720  0.00  0.00    +0.000 A 
ATOM      6  C   UNL     1       2.081   8.145  17.825  0.00  0.00    +0.000 A 
ATOM      7  C   UNL     1       1.336   9.247  18.271  0.00  0.00    +0.000 A 
ATOM      8  C   UNL     1       0.997   9.382  19.622  0.00  0.00    +0.000 A 
ATOM      9  C   UNL     1       0.005  10.344  20.128  0.00  0.00    +0.000 A 
ATOM     10  C   UNL     1      -0.582  11.434  19.282  0.00  0.00    +0.000 C 
ATOM     11  C   UNL     1      -0.422  10.181  21.389  0.00  0.00    +0.000 A 
ATOM     12  C   UNL     1       0.363   9.431  22.377  0.00  0.00    +0.000 A 
ATOM     13  O   UNL     1       0.223   9.658  23.574  0.00  0.00    +0.000 OA
ATOM     14  O   UNL     1       1.288   8.528  21.895  0.00  0.00    +0.000 OA
ATOM     15  C   UNL     1       1.507   8.430  20.510  0.00  0.00    +0.000 A 
ATOM     16  C   UNL     1       2.223   7.313  20.080  0.00  0.00    +0.000 A 
ENDBRANCH   3   5
BRANCH   1  17
ATOM     17  C   UNL     1       3.299   3.593  17.771  0.00  0.00    +0.000 C 
BRANCH  17  21
ATOM     18  C   UNL     1       6.774   4.790  15.448  0.00  0.00    +0.000 A 
ATOM     19  C   UNL     1       5.573   4.385  14.812  0.00  0.00    +0.000 A 
ATOM     20  C   UNL     1       4.447   4.024  15.550  0.00  0.00    +0.000 A 
ATOM     21  C   UNL     1       4.486   4.032  16.947  0.00  0.00    +0.000 A 
ATOM     22  C   UNL     1       5.693   4.374  17.576  0.00  0.00    +0.000 A 
ATOM     23  C   UNL     1       6.834   4.756  16.847  0.00  0.00    +0.000 A 
BRANCH  18  25
ATOM     24  C   UNL     1       7.748   5.131  13.319  0.00  0.00    +0.000 C 
ATOM     25  O   UNL     1       7.865   5.172  14.735  0.00  0.00    +0.000 OA
ENDBRANCH  18  25
BRANCH  23  26
ATOM     26  O   UNL     1       7.893   5.031  17.671  0.00  0.00    +0.000 OA
ATOM     27  C   UNL     1       7.661   5.703  18.897  0.00  0.00    +0.000 C 
ENDBRANCH  23  26
ENDBRANCH  17  21
ENDBRANCH   1  17
TORSDOF 5
ENDMDL
MODEL 3
REMARK VINA RESULT:      -8.5      1.302      1.505
REMARK  Name = 
REMARK  8 active torsions:
REMARK  status: ('A' for Active; 'I' for Inactive)
REMARK    1  A    between atoms: C_1  and  O_2
REMARK    2  A    between atoms: O_2  and  C_3
REMARK    3  A    between atoms: C_6  and  C_7
REMARK    4  A    between atoms: C_7  and  C_8
REMARK    5  A    between atoms: N_10  and  C_11
REMARK    6  A    between atoms: C_15  and  C_16
REMARK    7  A    between atoms: C_24  and  O_25
REMARK    8  A    between atoms: O_25  and  C_26
REMARK                            x       y       z     vdW  Elec       q    Type
REMARK                         _______ _______ _______ _____ _____    ______ ____
ROOT
ATOM      1  C   UNL     1       2.517   5.097  19.700  0.00  0.00    +0.000 C 
ATOM      2  O   UNL     1       1.865   5.098  20.743  0.00  0.00    +0.000 OA
ATOM      3  N   UNL     1       2.673   6.186  18.847  0.00  0.00    +0.000 N 
ATOM      4  H   UNL     1       2.837   5.967  17.871  0.00  0.00    +0.000 HD
ENDROOT
BRANCH   3   5
ATOM      5  C   UNL     1       2.156   7.462  19.142  0.00  0.00    +0.000 A 
ATOM      6  C   UNL     1       2.004   8.378  18.100  0.00  0.00    +0.000 A 
ATOM      7  C   UNL     1       1.331   9.589  18.316  0.00  0.00    +0.000 A 
ATOM      8  C   UNL     1       0.841   9.920  19.584  0.00  0.00    +0.000 A 
ATOM      9  C   UNL     1      -0.097  11.024  19.841  0.00  0.00    +0.000 A 
ATOM     10  C   UNL     1      -0.453  12.051  18.808  0.00  0.00    +0.000 C 
ATOM     11  C   UNL     1      -0.694  11.057  21.042  0.00  0.00    +0.000 A 
ATOM     12  C   UNL     1      -0.124  10.364  22.205  0.00  0.00    +0.000 A 
ATOM     13  O   UNL     1      -0.388  10.749  23.339  0.00  0.00    +0.000 OA
ATOM     14  O   UNL     1       0.751   9.328  21.956  0.00  0.00    +0.000 OA
ATOM     15  C   UNL     1       1.131   9.041  20.633  0.00  0.00    +0.000 A 
ATOM     16  C   UNL     1       1.771   7.819  20.430  0.00  0.00    +0.000 A 
ENDBRANCH   3   5
BRANCH   1  17
ATOM     17  C   UNL     1       3.244   3.854  19.220  0.00  0.00    +0.000 C 
BRANCH  17  21
ATOM     18  C   UNL     1       6.479   4.511  16.392  0.00  0.00    +0.000 A 
ATOM     19  C   UNL     1       5.168   4.208  15.945  0.00  0.00    +0.000 A 
ATOM     20  C   UNL     1       4.121   4.021  16.846  0.00  0.00    +0.000 A 
ATOM     21  C   UNL     1       4.348   4.106  18.222  0.00  0.00    +0.000 A 
ATOM     22  C   UNL     1       5.658   4.346  18.665  0.00  0.00    +0.000 A 
ATOM     23  C   UNL     1       6.724   4.553  17.771  0.00  0.00    +0.000 A 
BRANCH  18  25
ATOM     24  C   UNL     1       7.152   4.815  14.144  0.00  0.00    +0.000 C 
ATOM     25  O   UNL     1       7.498   4.724  15.519  0.00  0.00    +0.000 OA
ENDBRANCH  18  25
BRANCH  23  26
ATOM     26  O   UNL     1       7.908   4.753  18.430  0.00  0.00    +0.000 OA
ATOM     27  C   UNL     1       8.058   5.900  19.249  0.00  0.00    +0.000 C 
ENDBRANCH  23  26
ENDBRANCH  17  21
ENDBRANCH   1  17
TORSDOF 5
ENDMDL
MODEL 4
REMARK VINA RESULT:      -8.0      2.011      2.662
REMARK  Name = 
REMARK  8 active torsions:
REMARK  status: ('A' for Active; 'I' for Inactive)
REMARK    1  A    between atoms: C_1  and  O_2
REMARK    2  A    between atoms: O_2  and  C_3
REMARK    3  A    between atoms: C_6  and  C_7
REMARK    4  A    between atoms: C_7  and  C_8
REMARK    5  A    between atoms: N_10  and  C_11
REMARK    6  A    between atoms: C_15  and  C_16
REMARK    7  A    between atoms: C_24  and  O_25
REMARK    8  A    between atoms: O_25  and  C_26
REMARK                            x       y       z     vdW  Elec       q    Type
REMARK                         _______ _______ _______ _____ _____    ______ ____
ROOT
ATOM      1  C   UNL     1       2.334   5.114  19.589  0.00  0.00    +0.000 C 
ATOM      2  O   UNL     1       1.195   4.869  19.197  0.00  0.00    +0.000 OA
ATOM      3  N   UNL     1       2.770   6.341  20.081  0.00  0.00    +0.000 N 
ATOM      4  H   UNL     1       3.756   6.545  19.958  0.00  0.00    +0.000 HD
ENDROOT
BRANCH   3   5
ATOM      5  C   UNL     1       1.905   7.436  20.264  0.00  0.00    +0.000 A 
ATOM      6  C   UNL     1       1.081   7.454  21.391  0.00  0.00    +0.000 A 
ATOM      7  C   UNL     1       0.337   8.601  21.705  0.00  0.00    +0.000 A 
ATOM      8  C   UNL     1       0.374   9.728  20.875  0.00  0.00    +0.000 A 
ATOM      9  C   UNL     1      -0.148  11.048  21.259  0.00  0.00    +0.000 A 
ATOM     10  C   UNL     1      -0.977  11.275  22.488  0.00  0.00    +0.000 C 
ATOM     11  C   UNL     1       0.196  12.093  20.491  0.00  0.00    +0.000 A 
ATOM     12  C   UNL     1       0.640  11.914  19.103  0.00  0.00    +0.000 A 
ATOM     13  O   UNL     1       0.515  12.829  18.295  0.00  0.00    +0.000 OA
ATOM     14  O   UNL     1       1.133  10.675  18.752  0.00  0.00    +0.000 OA
ATOM     15  C   UNL     1       1.103   9.625  19.686  0.00  0.00    +0.000 A 
ATOM     16  C   UNL     1       1.872   8.505  19.374  0.00  0.00    +0.000 A 
ENDBRANCH   3   5
BRANCH   1  17
ATOM     17  C   UNL     1       3.423   4.056  19.572  0.00  0.00    +0.000 C 
BRANCH  17  21
ATOM     18  C   UNL     1       6.463   4.474  16.492  0.00  0.00    +0.000 A 
ATOM     19  C   UNL     1       5.127   4.133  16.160  0.00  0.00    +0.000 A 
ATOM     20  C   UNL     1       4.142   4.021  17.140  0.00  0.00    +0.000 A 
ATOM     21  C   UNL     1       4.458   4.224  18.486  0.00  0.00    +0.000 A 
ATOM     22  C   UNL     1       5.792   4.502  18.820  0.00  0.00    +0.000 A 
ATOM     23  C   UNL     1       6.796   4.633  17.844  0.00  0.00    +0.000 A 
BRANCH  18  25
ATOM     24  C   UNL     1       6.972   4.828  14.209  0.00  0.00    +0.000 C 
ATOM     25  O   UNL     1       7.421   4.614  15.540  0.00  0.00    +0.000 OA
ENDBRANCH  18  25
BRANCH  23  26
ATOM     26  O   UNL     1       8.019   4.890  18.405  0.00  0.00    +0.000 OA
ATOM     27  C   UNL     1       8.107   5.802  19.486  0.00  0.00    +0.000 C 
ENDBRANCH  23  26
ENDBRANCH  17  21
ENDBRANCH   1  17
TORSDOF 5
ENDMDL
MODEL 5
REMARK VINA RESULT:      -8.0      3.830      5.460
REMARK  Name = 
REMARK  8 active torsions:
REMARK  status: ('A' for Active; 'I' for Inactive)
REMARK    1  A    between atoms: C_1  and  O_2
REMARK    2  A    between atoms: O_2  and  C_3
REMARK    3  A    between atoms: C_6  and  C_7
REMARK    4  A    between atoms: C_7  and  C_8
REMARK    5  A    between atoms: N_10  and  C_11
REMARK    6  A    between atoms: C_15  and  C_16
REMARK    7  A    between atoms: C_24  and  O_25
REMARK    8  A    between atoms: O_25  and  C_26
REMARK                            x       y       z     vdW  Elec       q    Type
REMARK                         _______ _______ _______ _____ _____    ______ ____
ROOT
ATOM      1  C   UNL     1       2.147   8.970  18.127  0.00  0.00    +0.000 C 
ATOM      2  O   UNL     1       2.203   9.896  17.321  0.00  0.00    +0.000 OA
ATOM      3  N   UNL     1       1.384   8.961  19.292  0.00  0.00    +0.000 N 
ATOM      4  H   UNL     1       1.735   8.385  20.049  0.00  0.00    +0.000 HD
ENDROOT
BRANCH   3   5
ATOM      5  C   UNL     1       0.507  10.008  19.633  0.00  0.00    +0.000 A 
ATOM      6  C   UNL     1      -0.596  10.248  18.812  0.00  0.00    +0.000 A 
ATOM      7  C   UNL     1      -1.587  11.158  19.208  0.00  0.00    +0.000 A 
ATOM      8  C   UNL     1      -1.467  11.872  20.406  0.00  0.00    +0.000 A 
ATOM      9  C   UNL     1      -2.565  12.631  21.024  0.00  0.00    +0.000 A 
ATOM     10  C   UNL     1      -3.863  12.908  20.326  0.00  0.00    +0.000 C 
ATOM     11  C   UNL     1      -2.397  13.032  22.294  0.00  0.00    +0.000 A 
ATOM     12  C   UNL     1      -1.061  13.159  22.891  0.00  0.00    +0.000 A 
ATOM     13  O   UNL     1      -0.880  13.923  23.833  0.00  0.00    +0.000 OA
ATOM     14  O   UNL     1      -0.039  12.441  22.308  0.00  0.00    +0.000 OA
ATOM     15  C   UNL     1      -0.285  11.706  21.135  0.00  0.00    +0.000 A 
ATOM     16  C   UNL     1       0.695  10.783  20.772  0.00  0.00    +0.000 A 
ENDBRANCH   3   5
BRANCH   1  17
ATOM     17  C   UNL     1       2.940   7.691  17.924  0.00  0.00    +0.000 C 
BRANCH  17  21
ATOM     18  C   UNL     1       1.456   4.156  19.972  0.00  0.00    +0.000 A 
ATOM     19  C   UNL     1       1.768   5.339  20.688  0.00  0.00    +0.000 A 
ATOM     20  C   UNL     1       2.220   6.484  20.035  0.00  0.00    +0.000 A 
ATOM     21  C   UNL     1       2.400   6.483  18.649  0.00  0.00    +0.000 A 
ATOM     22  C   UNL     1       2.149   5.294  17.949  0.00  0.00    +0.000 A 
ATOM     23  C   UNL     1       1.677   4.133  18.589  0.00  0.00    +0.000 A 
BRANCH  18  25
ATOM     24  C   UNL     1       1.743   2.567  21.702  0.00  0.00    +0.000 C 
ATOM     25  O   UNL     1       0.986   3.046  20.598  0.00  0.00    +0.000 OA
ENDBRANCH  18  25
BRANCH  23  26
ATOM     26  O   UNL     1       1.519   3.096  17.708  0.00  0.00    +0.000 OA
ATOM     27  C   UNL     1       2.530   2.107  17.616  0.00  0.00    +0.000 C 
ENDBRANCH  23  26
ENDBRANCH  17  21
ENDBRANCH   1  17
TORSDOF 5
ENDMDL
MODEL 6
REMARK VINA RESULT:      -7.9      3.220      9.151
REMARK  Name = 
REMARK  8 active torsions:
REMARK  status: ('A' for Active; 'I' for Inactive)
REMARK    1  A    between atoms: C_1  and  O_2
REMARK    2  A    between atoms: O_2  and  C_3
REMARK    3  A    between atoms: C_6  and  C_7
REMARK    4  A    between atoms: C_7  and  C_8
REMARK    5  A    between atoms: N_10  and  C_11
REMARK    6  A    between atoms: C_15  and  C_16
REMARK    7  A    between atoms: C_24  and  O_25
REMARK    8  A    between atoms: O_25  and  C_26
REMARK                            x       y       z     vdW  Elec       q    Type
REMARK                         _______ _______ _______ _____ _____    ______ ____
ROOT
ATOM      1  C   UNL     1       1.353   9.589  18.930  0.00  0.00    +0.000 C 
ATOM      2  O   UNL     1       1.119   8.982  19.973  0.00  0.00    +0.000 OA
ATOM      3  N   UNL     1       2.143   9.119  17.884  0.00  0.00    +0.000 N 
ATOM      4  H   UNL     1       2.602   9.826  17.320  0.00  0.00    +0.000 HD
ENDROOT
BRANCH   3   5
ATOM      5  C   UNL     1       2.701   7.826  17.876  0.00  0.00    +0.000 A 
ATOM      6  C   UNL     1       1.901   6.752  18.270  0.00  0.00    +0.000 A 
ATOM      7  C   UNL     1       2.357   5.435  18.109  0.00  0.00    +0.000 A 
ATOM      8  C   UNL     1       3.632   5.177  17.593  0.00  0.00    +0.000 A 
ATOM      9  C   UNL     1       4.083   3.851  17.143  0.00  0.00    +0.000 A 
ATOM     10  C   UNL     1       3.307   2.594  17.395  0.00  0.00    +0.000 C 
ATOM     11  C   UNL     1       5.215   3.799  16.423  0.00  0.00    +0.000 A 
ATOM     12  C   UNL     1       6.212   4.875  16.476  0.00  0.00    +0.000 A 
ATOM     13  O   UNL     1       7.385   4.639  16.207  0.00  0.00    +0.000 OA
ATOM     14  O   UNL     1       5.780   6.116  16.895  0.00  0.00    +0.000 OA
ATOM     15  C   UNL     1       4.456   6.278  17.337  0.00  0.00    +0.000 A 
ATOM     16  C   UNL     1       4.008   7.593  17.462  0.00  0.00    +0.000 A 
ENDBRANCH   3   5
BRANCH   1  17
ATOM     17  C   UNL     1       0.782  10.972  18.672  0.00  0.00    +0.000 C 
BRANCH  17  21
ATOM     18  C   UNL     1      -3.514  10.988  18.007  0.00  0.00    +0.000 A 
ATOM     19  C   UNL     1      -2.942  11.677  19.106  0.00  0.00    +0.000 A 
ATOM     20  C   UNL     1      -1.564  11.697  19.311  0.00  0.00    +0.000 A 
ATOM     21  C   UNL     1      -0.710  11.012  18.442  0.00  0.00    +0.000 A 
ATOM     22  C   UNL     1      -1.281  10.281  17.390  0.00  0.00    +0.000 A 
ATOM     23  C   UNL     1      -2.669  10.262  17.158  0.00  0.00    +0.000 A 
BRANCH  18  25
ATOM     24  C   UNL     1      -5.382  12.100  17.072  0.00  0.00    +0.000 C 
ATOM     25  O   UNL     1      -4.854  10.989  17.785  0.00  0.00    +0.000 OA
ENDBRANCH  18  25
BRANCH  23  26
ATOM     26  O   UNL     1      -2.994   9.471  16.088  0.00  0.00    +0.000 OA
ATOM     27  C   UNL     1      -3.066  10.050  14.797  0.00  0.00    +0.000 C 
ENDBRANCH  23  26
ENDBRANCH  17  21
ENDBRANCH   1  17
TORSDOF 5
ENDMDL
MODEL 7
REMARK VINA RESULT:      -7.9      1.698      2.270
REMARK  Name = 
REMARK  8 active torsions:
REMARK  status: ('A' for Active; 'I' for Inactive)
REMARK    1  A    between atoms: C_1  and  O_2
REMARK    2  A    between atoms: O_2  and  C_3
REMARK    3  A    between atoms: C_6  and  C_7
REMARK    4  A    between atoms: C_7  and  C_8
REMARK    5  A    between atoms: N_10  and  C_11
REMARK    6  A    between atoms: C_15  and  C_16
REMARK    7  A    between atoms: C_24  and  O_25
REMARK    8  A    between atoms: O_25  and  C_26
REMARK                            x       y       z     vdW  Elec       q    Type
REMARK                         _______ _______ _______ _____ _____    ______ ____
ROOT
ATOM      1  C   UNL     1       2.774   4.966  18.950  0.00  0.00    +0.000 C 
ATOM      2  O   UNL     1       1.612   4.568  18.977  0.00  0.00    +0.000 OA
ATOM      3  N   UNL     1       3.181   6.281  19.161  0.00  0.00    +0.000 N 
ATOM      4  H   UNL     1       4.042   6.559  18.704  0.00  0.00    +0.000 HD
ENDROOT
BRANCH   3   5
ATOM      5  C   UNL     1       2.284   7.304  19.523  0.00  0.00    +0.000 A 
ATOM      6  C   UNL     1       1.574   7.176  20.718  0.00  0.00    +0.000 A 
ATOM      7  C   UNL     1       0.808   8.247  21.203  0.00  0.00    +0.000 A 
ATOM      8  C   UNL     1       0.708   9.441  20.480  0.00  0.00    +0.000 A 
ATOM      9  C   UNL     1       0.161  10.691  21.030  0.00  0.00    +0.000 A 
ATOM     10  C   UNL     1      -0.555  10.762  22.346  0.00  0.00    +0.000 C 
ATOM     11  C   UNL     1       0.376  11.816  20.331  0.00  0.00    +0.000 A 
ATOM     12  C   UNL     1       0.692  11.784  18.898  0.00  0.00    +0.000 A 
ATOM     13  O   UNL     1       0.444  12.756  18.192  0.00  0.00    +0.000 OA
ATOM     14  O   UNL     1       1.209  10.611  18.391  0.00  0.00    +0.000 OA
ATOM     15  C   UNL     1       1.323   9.484  19.224  0.00  0.00    +0.000 A 
ATOM     16  C   UNL     1       2.112   8.442  18.741  0.00  0.00    +0.000 A 
ENDBRANCH   3   5
BRANCH   1  17
ATOM     17  C   UNL     1       3.929   4.022  18.668  0.00  0.00    +0.000 C 
BRANCH  17  21
ATOM     18  C   UNL     1       6.619   5.203  15.463  0.00  0.00    +0.000 A 
ATOM     19  C   UNL     1       5.503   4.367  15.210  0.00  0.00    +0.000 A 
ATOM     20  C   UNL     1       4.622   4.005  16.227  0.00  0.00    +0.000 A 
ATOM     21  C   UNL     1       4.836   4.444  17.537  0.00  0.00    +0.000 A 
ATOM     22  C   UNL     1       5.975   5.221  17.798  0.00  0.00    +0.000 A 
ATOM     23  C   UNL     1       6.866   5.609  16.781  0.00  0.00    +0.000 A 
BRANCH  18  25
ATOM     24  C   UNL     1       7.348   4.895  13.234  0.00  0.00    +0.000 C 
ATOM     25  O   UNL     1       7.465   5.584  14.471  0.00  0.00    +0.000 OA
ENDBRANCH  18  25
BRANCH  23  26
ATOM     26  O   UNL     1       7.908   6.348  17.274  0.00  0.00    +0.000 OA
ATOM     27  C   UNL     1       7.698   7.713  17.593  0.00  0.00    +0.000 C 
ENDBRANCH  23  26
ENDBRANCH  17  21
ENDBRANCH   1  17
TORSDOF 5
ENDMDL
MODEL 8
REMARK VINA RESULT:      -7.8      1.898      2.633
REMARK  Name = 
REMARK  8 active torsions:
REMARK  status: ('A' for Active; 'I' for Inactive)
REMARK    1  A    between atoms: C_1  and  O_2
REMARK    2  A    between atoms: O_2  and  C_3
REMARK    3  A    between atoms: C_6  and  C_7
REMARK    4  A    between atoms: C_7  and  C_8
REMARK    5  A    between atoms: N_10  and  C_11
REMARK    6  A    between atoms: C_15  and  C_16
REMARK    7  A    between atoms: C_24  and  O_25
REMARK    8  A    between atoms: O_25  and  C_26
REMARK                            x       y       z     vdW  Elec       q    Type
REMARK                         _______ _______ _______ _____ _____    ______ ____
ROOT
ATOM      1  C   UNL     1       2.863   6.772  18.952  0.00  0.00    +0.000 C 
ATOM      2  O   UNL     1       2.570   7.340  17.902  0.00  0.00    +0.000 OA
ATOM      3  N   UNL     1       2.439   7.156  20.221  0.00  0.00    +0.000 N 
ATOM      4  H   UNL     1       3.056   6.913  20.989  0.00  0.00    +0.000 HD
ENDROOT
BRANCH   3   5
ATOM      5  C   UNL     1       1.536   8.216  20.432  0.00  0.00    +0.000 A 
ATOM      6  C   UNL     1       0.931   8.337  21.683  0.00  0.00    +0.000 A 
ATOM      7  C   UNL     1       0.166   9.472  21.992  0.00  0.00    +0.000 A 
ATOM      8  C   UNL     1      -0.038  10.478  21.040  0.00  0.00    +0.000 A 
ATOM      9  C   UNL     1      -0.587  11.807  21.354  0.00  0.00    +0.000 A 
ATOM     10  C   UNL     1      -1.195  12.148  22.681  0.00  0.00    +0.000 C 
ATOM     11  C   UNL     1      -0.473  12.757  20.413  0.00  0.00    +0.000 A 
ATOM     12  C   UNL     1      -0.274  12.419  18.998  0.00  0.00    +0.000 A 
ATOM     13  O   UNL     1      -0.616  13.209  18.125  0.00  0.00    +0.000 OA
ATOM     14  O   UNL     1       0.245  11.174  18.713  0.00  0.00    +0.000 OA
ATOM     15  C   UNL     1       0.470  10.259  19.756  0.00  0.00    +0.000 A 
ATOM     16  C   UNL     1       1.257   9.152  19.441  0.00  0.00    +0.000 A 
ENDBRANCH   3   5
BRANCH   1  17
ATOM     17  C   UNL     1       3.756   5.545  18.967  0.00  0.00    +0.000 C 
BRANCH  17  21
ATOM     18  C   UNL     1       6.515   5.178  15.627  0.00  0.00    +0.000 A 
ATOM     19  C   UNL     1       5.411   4.299  15.763  0.00  0.00    +0.000 A 
ATOM     20  C   UNL     1       4.508   4.427  16.817  0.00  0.00    +0.000 A 
ATOM     21  C   UNL     1       4.687   5.419  17.785  0.00  0.00    +0.000 A 
ATOM     22  C   UNL     1       5.813   6.250  17.683  0.00  0.00    +0.000 A 
ATOM     23  C   UNL     1       6.726   6.146  16.618  0.00  0.00    +0.000 A 
BRANCH  18  25
ATOM     24  C   UNL     1       6.892   4.459  13.405  0.00  0.00    +0.000 C 
ATOM     25  O   UNL     1       7.382   5.079  14.586  0.00  0.00    +0.000 OA
ENDBRANCH  18  25
BRANCH  23  26
ATOM     26  O   UNL     1       7.750   7.047  16.737  0.00  0.00    +0.000 OA
ATOM     27  C   UNL     1       7.749   7.957  17.825  0.00  0.00    +0.000 C 
ENDBRANCH  23  26
ENDBRANCH  17  21
ENDBRANCH   1  17
TORSDOF 5
ENDMDL
MODEL 9
REMARK VINA RESULT:      -7.7      2.174      8.969
REMARK  Name = 
REMARK  8 active torsions:
REMARK  status: ('A' for Active; 'I' for Inactive)
REMARK    1  A    between atoms: C_1  and  O_2
REMARK    2  A    between atoms: O_2  and  C_3
REMARK    3  A    between atoms: C_6  and  C_7
REMARK    4  A    between atoms: C_7  and  C_8
REMARK    5  A    between atoms: N_10  and  C_11
REMARK    6  A    between atoms: C_15  and  C_16
REMARK    7  A    between atoms: C_24  and  O_25
REMARK    8  A    between atoms: O_25  and  C_26
REMARK                            x       y       z     vdW  Elec       q    Type
REMARK                         _______ _______ _______ _____ _____    ______ ____
ROOT
ATOM      1  C   UNL     1       1.941   7.464  20.180  0.00  0.00    +0.000 C 
ATOM      2  O   UNL     1       2.264   8.248  19.290  0.00  0.00    +0.000 OA
ATOM      3  N   UNL     1       2.277   6.114  20.226  0.00  0.00    +0.000 N 
ATOM      4  H   UNL     1       1.632   5.511  20.725  0.00  0.00    +0.000 HD
ENDROOT
BRANCH   3   5
ATOM      5  C   UNL     1       3.118   5.508  19.273  0.00  0.00    +0.000 A 
ATOM      6  C   UNL     1       2.578   5.152  18.037  0.00  0.00    +0.000 A 
ATOM      7  C   UNL     1       3.413   4.712  17.000  0.00  0.00    +0.000 A 
ATOM      8  C   UNL     1       4.793   4.581  17.199  0.00  0.00    +0.000 A 
ATOM      9  C   UNL     1       5.765   4.392  16.111  0.00  0.00    +0.000 A 
ATOM     10  C   UNL     1       5.364   4.093  14.698  0.00  0.00    +0.000 C 
ATOM     11  C   UNL     1       7.063   4.558  16.410  0.00  0.00    +0.000 A 
ATOM     12  C   UNL     1       7.555   4.450  17.790  0.00  0.00    +0.000 A 
ATOM     13  O   UNL     1       8.725   4.153  18.002  0.00  0.00    +0.000 OA
ATOM     14  O   UNL     1       6.638   4.634  18.803  0.00  0.00    +0.000 OA
ATOM     15  C   UNL     1       5.280   4.818  18.488  0.00  0.00    +0.000 A 
ATOM     16  C   UNL     1       4.469   5.285  19.521  0.00  0.00    +0.000 A 
ENDBRANCH   3   5
BRANCH   1  17
ATOM     17  C   UNL     1       1.106   7.912  21.366  0.00  0.00    +0.000 C 
BRANCH  17  21
ATOM     18  C   UNL     1      -0.991  11.680  20.810  0.00  0.00    +0.000 A 
ATOM     19  C   UNL     1      -0.511  11.292  22.086  0.00  0.00    +0.000 A 
ATOM     20  C   UNL     1       0.184  10.097  22.267  0.00  0.00    +0.000 A 
ATOM     21  C   UNL     1       0.405   9.237  21.188  0.00  0.00    +0.000 A 
ATOM     22  C   UNL     1      -0.124   9.593  19.937  0.00  0.00    +0.000 A 
ATOM     23  C   UNL     1      -0.814  10.801  19.733  0.00  0.00    +0.000 A 
BRANCH  18  25
ATOM     24  C   UNL     1      -3.058  12.790  20.506  0.00  0.00    +0.000 C 
ATOM     25  O   UNL     1      -1.643  12.856  20.621  0.00  0.00    +0.000 OA
ENDBRANCH  18  25
BRANCH  23  26
ATOM     26  O   UNL     1      -1.249  10.925  18.440  0.00  0.00    +0.000 OA
ATOM     27  C   UNL     1      -2.254  10.049  17.961  0.00  0.00    +0.000 C 
ENDBRANCH  23  26
ENDBRANCH  17  21
ENDBRANCH   1  17
TORSDOF 5
ENDMDL
