MODEL 1
REMARK VINA RESULT:      -8.5      0.000      0.000
REMARK  Name = 
REMARK  6 active torsions:
REMARK  status: ('A' for Active; 'I' for Inactive)
REMARK    1  A    between atoms: N_1  and  C_2
REMARK    2  A    between atoms: C_2  and  C_3
REMARK    3  A    between atoms: C_2  and  C_24
REMARK    4  A    between atoms: C_3  and  C_4
REMARK    5  A    between atoms: C_11  and  C_13
REMARK    6  A    between atoms: C_24  and  C_25
REMARK                            x       y       z     vdW  Elec       q    Type
REMARK                         _______ _______ _______ _____ _____    ______ ____
ROOT
ATOM      1  C   UNL     1       1.297   8.085  20.486  0.00  0.00    +0.000 C 
ATOM      2  O   UNL     1       0.767   8.025  21.587  0.00  0.00    +0.000 OA
ATOM      3  N   UNL     1       2.095   7.040  20.061  0.00  0.00    +0.000 N 
ATOM      4  C   UNL     1       2.340   5.887  20.926  0.00  0.00    +0.000 C 
ATOM      5  C   UNL     1       1.522   4.640  20.554  0.00  0.00    +0.000 C 
ATOM      6  C   UNL     1       1.494   4.233  19.069  0.00  0.00    +0.000 C 
ATOM      7  N   UNL     1       2.670   4.667  18.306  0.00  0.00    +0.000 N 
ATOM      8  C   UNL     1       3.588   3.747  17.814  0.00  0.00    +0.000 C 
ATOM      9  O   UNL     1       3.405   2.555  18.023  0.00  0.00    +0.000 OA
ATOM     10  C   UNL     1       2.603   6.048  17.813  0.00  0.00    +0.000 C 
ATOM     11  C   UNL     1       2.921   7.118  18.860  0.00  0.00    +0.000 C 
ENDROOT
BRANCH   8  12
ATOM     12  C   UNL     1       4.806   4.116  17.001  0.00  0.00    +0.000 A 
ATOM     13  C   UNL     1       6.007   4.589  17.606  0.00  0.00    +0.000 A 
ATOM     14  C   UNL     1       7.123   4.959  16.850  0.00  0.00    +0.000 A 
ATOM     15  C   UNL     1       7.038   4.833  15.476  0.00  0.00    +0.000 A 
ATOM     16  C   UNL     1       5.933   4.353  14.871  0.00  0.00    +0.000 A 
ATOM     17  C   UNL     1       4.800   3.965  15.588  0.00  0.00    +0.000 A 
ATOM     18  O   UNL     1       6.139   4.340  13.550  0.00  0.00    +0.000 OA
ATOM     19  C   UNL     1       7.418   4.843  13.316  0.00  0.00    +0.000 C 
ATOM     20  O   UNL     1       7.960   5.136  14.564  0.00  0.00    +0.000 OA
ENDBRANCH   8  12
BRANCH   1  21
ATOM     21  C   UNL     1       0.993   9.328  19.649  0.00  0.00    +0.000 C 
BRANCH  21  22
ATOM     22  C   UNL     1      -0.323   9.995  20.091  0.00  0.00    +0.000 C 
BRANCH  22  23
ATOM     23  N   UNL     1      -1.216  10.205  18.946  0.00  0.00    +0.000 NA
ATOM     24  H   UNL     1      -2.214  10.110  19.242  0.00  0.00    +0.000 HD
ATOM     25  H   UNL     1      -1.014   9.518  18.184  0.00  0.00    +0.000 HD
ENDBRANCH  22  23
BRANCH  22  26
ATOM     26  C   UNL     1      -0.028  11.353  20.767  0.00  0.00    +0.000 C 
BRANCH  26  27
ATOM     27  C   UNL     1      -1.223  11.873  21.513  0.00  0.00    +0.000 A 
ATOM     28  C   UNL     1      -2.052  12.827  20.903  0.00  0.00    +0.000 A 
ATOM     29  C   UNL     1      -3.168  13.325  21.576  0.00  0.00    +0.000 A 
ATOM     30  F   UNL     1      -3.956  14.251  20.976  0.00  0.00    +0.000 F 
ATOM     31  C   UNL     1      -3.470  12.868  22.862  0.00  0.00    +0.000 A 
ATOM     32  F   UNL     1      -4.555  13.349  23.516  0.00  0.00    +0.000 F 
ATOM     33  C   UNL     1      -2.653  11.912  23.476  0.00  0.00    +0.000 A 
ATOM     34  C   UNL     1      -1.533  11.413  22.808  0.00  0.00    +0.000 A 
ATOM     35  F   UNL     1      -0.754  10.486  23.425  0.00  0.00    +0.000 F 
ENDBRANCH  26  27
ENDBRANCH  22  26
ENDBRANCH  21  22
ENDBRANCH   1  21
TORSDOF 6
ENDMDL
MODEL 2
REMARK VINA RESULT:      -8.3      2.043      2.674
REMARK  Name = 
REMARK  6 active torsions:
REMARK  status: ('A' for Active; 'I' for Inactive)
REMARK    1  A    between atoms: N_1  and  C_2
REMARK    2  A    between atoms: C_2  and  C_3
REMARK    3  A    between atoms: C_2  and  C_24
REMARK    4  A    between atoms: C_3  and  C_4
REMARK    5  A    between atoms: C_11  and  C_13
REMARK    6  A    between atoms: C_24  and  C_25
REMARK                            x       y       z     vdW  Elec       q    Type
REMARK                         _______ _______ _______ _____ _____    ______ ____
ROOT
ATOM      1  C   UNL     1       1.282   7.957  20.548  0.00  0.00    +0.000 C 
ATOM      2  O   UNL     1       0.762   7.878  21.653  0.00  0.00    +0.000 OA
ATOM      3  N   UNL     1       2.099   6.933  20.109  0.00  0.00    +0.000 N 
ATOM      4  C   UNL     1       2.377   5.780  20.963  0.00  0.00    +0.000 C 
ATOM      5  C   UNL     1       1.584   4.518  20.589  0.00  0.00    +0.000 C 
ATOM      6  C   UNL     1       1.553   4.120  19.101  0.00  0.00    +0.000 C 
ATOM      7  N   UNL     1       2.712   4.586  18.332  0.00  0.00    +0.000 N 
ATOM      8  C   UNL     1       3.646   3.690  17.826  0.00  0.00    +0.000 C 
ATOM      9  O   UNL     1       3.491   2.493  18.027  0.00  0.00    +0.000 OA
ATOM     10  C   UNL     1       2.610   5.969  17.850  0.00  0.00    +0.000 C 
ATOM     11  C   UNL     1       2.913   7.038  18.902  0.00  0.00    +0.000 C 
ENDROOT
BRANCH   8  12
ATOM     12  C   UNL     1       4.849   4.092  17.005  0.00  0.00    +0.000 A 
ATOM     13  C   UNL     1       6.020   4.647  17.598  0.00  0.00    +0.000 A 
ATOM     14  C   UNL     1       7.120   5.045  16.834  0.00  0.00    +0.000 A 
ATOM     15  C   UNL     1       7.050   4.867  15.465  0.00  0.00    +0.000 A 
ATOM     16  C   UNL     1       5.975   4.311  14.873  0.00  0.00    +0.000 A 
ATOM     17  C   UNL     1       4.858   3.891  15.599  0.00  0.00    +0.000 A 
ATOM     18  O   UNL     1       6.189   4.263  13.554  0.00  0.00    +0.000 OA
ATOM     19  C   UNL     1       7.442   4.822  13.308  0.00  0.00    +0.000 C 
ATOM     20  O   UNL     1       7.961   5.185  14.547  0.00  0.00    +0.000 OA
ENDBRANCH   8  12
BRANCH   1  21
ATOM     21  C   UNL     1       0.944   9.199  19.722  0.00  0.00    +0.000 C 
BRANCH  21  22
ATOM     22  C   UNL     1       0.537  10.379  20.625  0.00  0.00    +0.000 C 
BRANCH  22  23
ATOM     23  N   UNL     1      -0.603  10.021  21.477  0.00  0.00    +0.000 NA
ATOM     24  H   UNL     1      -0.267   9.668  22.402  0.00  0.00    +0.000 HD
ATOM     25  H   UNL     1      -1.195   9.289  21.021  0.00  0.00    +0.000 HD
ENDBRANCH  22  23
BRANCH  22  26
ATOM     26  C   UNL     1       0.164  11.604  19.759  0.00  0.00    +0.000 C 
BRANCH  26  27
ATOM     27  C   UNL     1      -1.144  11.405  19.050  0.00  0.00    +0.000 A 
ATOM     28  C   UNL     1      -1.200  10.542  17.944  0.00  0.00    +0.000 A 
ATOM     29  C   UNL     1      -2.404  10.340  17.268  0.00  0.00    +0.000 A 
ATOM     30  F   UNL     1      -2.442   9.508  16.198  0.00  0.00    +0.000 F 
ATOM     31  C   UNL     1      -3.563  10.994  17.695  0.00  0.00    +0.000 A 
ATOM     32  F   UNL     1      -4.734  10.797  17.041  0.00  0.00    +0.000 F 
ATOM     33  C   UNL     1      -3.518  11.851  18.800  0.00  0.00    +0.000 A 
ATOM     34  C   UNL     1      -2.316  12.059  19.479  0.00  0.00    +0.000 A 
ATOM     35  F   UNL     1      -2.296  12.897  20.548  0.00  0.00    +0.000 F 
ENDBRANCH  26  27
ENDBRANCH  22  26
ENDBRANCH  21  22
ENDBRANCH   1  21
TORSDOF 6
ENDMDL
MODEL 3
REMARK VINA RESULT:      -8.2      3.075      3.932
REMARK  Name = 
REMARK  6 active torsions:
REMARK  status: ('A' for Active; 'I' for Inactive)
REMARK    1  A    between atoms: N_1  and  C_2
REMARK    2  A    between atoms: C_2  and  C_3
REMARK    3  A    between atoms: C_2  and  C_24
REMARK    4  A    between atoms: C_3  and  C_4
REMARK    5  A    between atoms: C_11  and  C_13
REMARK    6  A    between atoms: C_24  and  C_25
REMARK                            x       y       z     vdW  Elec       q    Type
REMARK                         _______ _______ _______ _____ _____    ______ ____
ROOT
ATOM      1  C   UNL     1       0.958   8.515  20.282  0.00  0.00    +0.000 C 
ATOM      2  O   UNL     1       0.454   8.559  21.396  0.00  0.00    +0.000 OA
ATOM      3  N   UNL     1       1.860   7.512  19.986  0.00  0.00    +0.000 N 
ATOM      4  C   UNL     1       2.244   6.529  20.998  0.00  0.00    +0.000 C 
ATOM      5  C   UNL     1       1.564   5.161  20.832  0.00  0.00    +0.000 C 
ATOM      6  C   UNL     1       1.560   4.543  19.421  0.00  0.00    +0.000 C 
ATOM      7  N   UNL     1       2.670   4.986  18.569  0.00  0.00    +0.000 N 
ATOM      8  C   UNL     1       3.676   4.109  18.185  0.00  0.00    +0.000 C 
ATOM      9  O   UNL     1       3.629   2.947  18.566  0.00  0.00    +0.000 OA
ATOM     10  C   UNL     1       2.443   6.266  17.887  0.00  0.00    +0.000 C 
ATOM     11  C   UNL     1       2.655   7.504  18.762  0.00  0.00    +0.000 C 
ENDROOT
BRANCH   8  12
ATOM     12  C   UNL     1       4.834   4.485  17.291  0.00  0.00    +0.000 A 
ATOM     13  C   UNL     1       5.943   5.245  17.766  0.00  0.00    +0.000 A 
ATOM     14  C   UNL     1       6.999   5.618  16.929  0.00  0.00    +0.000 A 
ATOM     15  C   UNL     1       6.949   5.208  15.611  0.00  0.00    +0.000 A 
ATOM     16  C   UNL     1       5.936   4.456  15.135  0.00  0.00    +0.000 A 
ATOM     17  C   UNL     1       4.866   4.054  15.938  0.00  0.00    +0.000 A 
ATOM     18  O   UNL     1       6.157   4.210  13.840  0.00  0.00    +0.000 OA
ATOM     19  C   UNL     1       7.348   4.841  13.485  0.00  0.00    +0.000 C 
ATOM     20  O   UNL     1       7.825   5.457  14.639  0.00  0.00    +0.000 OA
ENDBRANCH   8  12
BRANCH   1  21
ATOM     21  C   UNL     1       0.506   9.584  19.287  0.00  0.00    +0.000 C 
BRANCH  21  22
ATOM     22  C   UNL     1       1.149  10.949  19.598  0.00  0.00    +0.000 C 
BRANCH  22  23
ATOM     23  N   UNL     1       1.038  11.269  21.025  0.00  0.00    +0.000 NA
ATOM     24  H   UNL     1       1.948  11.094  21.509  0.00  0.00    +0.000 HD
ATOM     25  H   UNL     1       0.289  10.697  21.479  0.00  0.00    +0.000 HD
ENDBRANCH  22  23
BRANCH  22  26
ATOM     26  C   UNL     1       0.464  12.059  18.769  0.00  0.00    +0.000 C 
BRANCH  26  27
ATOM     27  C   UNL     1       1.328  13.283  18.659  0.00  0.00    +0.000 A 
ATOM     28  C   UNL     1       2.683  13.139  18.324  0.00  0.00    +0.000 A 
ATOM     29  C   UNL     1       3.506  14.260  18.215  0.00  0.00    +0.000 A 
ATOM     30  F   UNL     1       4.814  14.105  17.896  0.00  0.00    +0.000 F 
ATOM     31  C   UNL     1       2.980  15.536  18.435  0.00  0.00    +0.000 A 
ATOM     32  F   UNL     1       3.777  16.627  18.329  0.00  0.00    +0.000 F 
ATOM     33  C   UNL     1       1.628  15.691  18.764  0.00  0.00    +0.000 A 
ATOM     34  C   UNL     1       0.801  14.572  18.876  0.00  0.00    +0.000 A 
ATOM     35  F   UNL     1      -0.507  14.746  19.198  0.00  0.00    +0.000 F 
ENDBRANCH  26  27
ENDBRANCH  22  26
ENDBRANCH  21  22
ENDBRANCH   1  21
TORSDOF 6
ENDMDL
MODEL 4
REMARK VINA RESULT:      -8.1      1.590      1.842
REMARK  Name = 
REMARK  6 active torsions:
REMARK  status: ('A' for Active; 'I' for Inactive)
REMARK    1  A    between atoms: N_1  and  C_2
REMARK    2  A    between atoms: C_2  and  C_3
REMARK    3  A    between atoms: C_2  and  C_24
REMARK    4  A    between atoms: C_3  and  C_4
REMARK    5  A    between atoms: C_11  and  C_13
REMARK    6  A    between atoms: C_24  and  C_25
REMARK                            x       y       z     vdW  Elec       q    Type
REMARK                         _______ _______ _______ _____ _____    ______ ____
ROOT
ATOM      1  C   UNL     1       0.822   9.172  19.697  0.00  0.00    +0.000 C 
ATOM      2  O   UNL     1       0.321   9.425  20.785  0.00  0.00    +0.000 OA
ATOM      3  N   UNL     1       1.760   8.162  19.603  0.00  0.00    +0.000 N 
ATOM      4  C   UNL     1       2.185   7.423  20.790  0.00  0.00    +0.000 C 
ATOM      5  C   UNL     1       1.556   6.026  20.916  0.00  0.00    +0.000 C 
ATOM      6  C   UNL     1       1.569   5.131  19.663  0.00  0.00    +0.000 C 
ATOM      7  N   UNL     1       2.657   5.430  18.724  0.00  0.00    +0.000 N 
ATOM      8  C   UNL     1       3.694   4.529  18.517  0.00  0.00    +0.000 C 
ATOM      9  O   UNL     1       3.693   3.469  19.128  0.00  0.00    +0.000 OA
ATOM     10  C   UNL     1       2.379   6.533  17.797  0.00  0.00    +0.000 C 
ATOM     11  C   UNL     1       2.549   7.931  18.397  0.00  0.00    +0.000 C 
ENDROOT
BRANCH   8  12
ATOM     12  C   UNL     1       4.833   4.755  17.550  0.00  0.00    +0.000 A 
ATOM     13  C   UNL     1       5.995   5.497  17.909  0.00  0.00    +0.000 A 
ATOM     14  C   UNL     1       7.035   5.731  17.004  0.00  0.00    +0.000 A 
ATOM     15  C   UNL     1       6.913   5.197  15.735  0.00  0.00    +0.000 A 
ATOM     16  C   UNL     1       5.847   4.458  15.371  0.00  0.00    +0.000 A 
ATOM     17  C   UNL     1       4.791   4.193  16.246  0.00  0.00    +0.000 A 
ATOM     18  O   UNL     1       6.004   4.075  14.100  0.00  0.00    +0.000 OA
ATOM     19  C   UNL     1       7.209   4.605  13.644  0.00  0.00    +0.000 C 
ATOM     20  O   UNL     1       7.762   5.304  14.713  0.00  0.00    +0.000 OA
ENDBRANCH   8  12
BRANCH   1  21
ATOM     21  C   UNL     1       0.326   9.997  18.510  0.00  0.00    +0.000 C 
BRANCH  21  22
ATOM     22  C   UNL     1      -1.152  10.394  18.680  0.00  0.00    +0.000 C 
BRANCH  22  23
ATOM     23  N   UNL     1      -1.969   9.870  17.579  0.00  0.00    +0.000 NA
ATOM     24  H   UNL     1      -2.278  10.649  16.954  0.00  0.00    +0.000 HD
ATOM     25  H   UNL     1      -2.808   9.364  17.945  0.00  0.00    +0.000 HD
ENDBRANCH  22  23
BRANCH  22  26
ATOM     26  C   UNL     1      -1.286  11.934  18.728  0.00  0.00    +0.000 C 
BRANCH  26  27
ATOM     27  C   UNL     1      -1.200  12.455  20.134  0.00  0.00    +0.000 A 
ATOM     28  C   UNL     1      -2.298  12.294  20.994  0.00  0.00    +0.000 A 
ATOM     29  C   UNL     1      -2.243  12.769  22.304  0.00  0.00    +0.000 A 
ATOM     30  F   UNL     1      -3.313  12.612  23.121  0.00  0.00    +0.000 F 
ATOM     31  C   UNL     1      -1.087  13.403  22.769  0.00  0.00    +0.000 A 
ATOM     32  F   UNL     1      -1.031  13.863  24.043  0.00  0.00    +0.000 F 
ATOM     33  C   UNL     1       0.015  13.562  21.922  0.00  0.00    +0.000 A 
ATOM     34  C   UNL     1      -0.036  13.091  20.609  0.00  0.00    +0.000 A 
ATOM     35  F   UNL     1       1.046  13.258  19.804  0.00  0.00    +0.000 F 
ENDBRANCH  26  27
ENDBRANCH  22  26
ENDBRANCH  21  22
ENDBRANCH   1  21
TORSDOF 6
ENDMDL
MODEL 5
REMARK VINA RESULT:      -8.1      1.724      1.962
REMARK  Name = 
REMARK  6 active torsions:
REMARK  status: ('A' for Active; 'I' for Inactive)
REMARK    1  A    between atoms: N_1  and  C_2
REMARK    2  A    between atoms: C_2  and  C_3
REMARK    3  A    between atoms: C_2  and  C_24
REMARK    4  A    between atoms: C_3  and  C_4
REMARK    5  A    between atoms: C_11  and  C_13
REMARK    6  A    between atoms: C_24  and  C_25
REMARK                            x       y       z     vdW  Elec       q    Type
REMARK                         _______ _______ _______ _____ _____    ______ ____
ROOT
ATOM      1  C   UNL     1       0.566   9.520  19.498  0.00  0.00    +0.000 C 
ATOM      2  O   UNL     1       0.045   9.861  20.552  0.00  0.00    +0.000 OA
ATOM      3  N   UNL     1       1.543   8.544  19.510  0.00  0.00    +0.000 N 
ATOM      4  C   UNL     1       1.985   7.943  20.768  0.00  0.00    +0.000 C 
ATOM      5  C   UNL     1       1.409   6.542  21.029  0.00  0.00    +0.000 C 
ATOM      6  C   UNL     1       1.469   5.529  19.871  0.00  0.00    +0.000 C 
ATOM      7  N   UNL     1       2.554   5.775  18.914  0.00  0.00    +0.000 N 
ATOM      8  C   UNL     1       3.628   4.900  18.804  0.00  0.00    +0.000 C 
ATOM      9  O   UNL     1       3.661   3.907  19.518  0.00  0.00    +0.000 OA
ATOM     10  C   UNL     1       2.243   6.769  17.880  0.00  0.00    +0.000 C 
ATOM     11  C   UNL     1       2.353   8.226  18.338  0.00  0.00    +0.000 C 
ENDROOT
BRANCH   8  12
ATOM     12  C   UNL     1       4.767   5.073  17.827  0.00  0.00    +0.000 A 
ATOM     13  C   UNL     1       5.922   5.846  18.139  0.00  0.00    +0.000 A 
ATOM     14  C   UNL     1       6.962   6.030  17.223  0.00  0.00    +0.000 A 
ATOM     15  C   UNL     1       6.847   5.417  15.990  0.00  0.00    +0.000 A 
ATOM     16  C   UNL     1       5.787   4.647  15.672  0.00  0.00    +0.000 A 
ATOM     17  C   UNL     1       4.731   4.430  16.560  0.00  0.00    +0.000 A 
ATOM     18  O   UNL     1       5.949   4.187  14.428  0.00  0.00    +0.000 OA
ATOM     19  C   UNL     1       7.152   4.697  13.941  0.00  0.00    +0.000 C 
ATOM     20  O   UNL     1       7.696   5.465  14.965  0.00  0.00    +0.000 OA
ENDBRANCH   8  12
BRANCH   1  21
ATOM     21  C   UNL     1       0.051  10.203  18.231  0.00  0.00    +0.000 C 
BRANCH  21  22
ATOM     22  C   UNL     1      -1.479  10.376  18.269  0.00  0.00    +0.000 C 
BRANCH  22  23
ATOM     23  N   UNL     1      -2.108   9.759  17.095  0.00  0.00    +0.000 NA
ATOM     24  H   UNL     1      -1.764   8.780  16.972  0.00  0.00    +0.000 HD
ATOM     25  H   UNL     1      -1.904  10.310  16.230  0.00  0.00    +0.000 HD
ENDBRANCH  22  23
BRANCH  22  26
ATOM     26  C   UNL     1      -1.842  11.878  18.314  0.00  0.00    +0.000 C 
BRANCH  26  27
ATOM     27  C   UNL     1      -2.844  12.175  19.392  0.00  0.00    +0.000 A 
ATOM     28  C   UNL     1      -4.214  12.075  19.103  0.00  0.00    +0.000 A 
ATOM     29  C   UNL     1      -5.164  12.346  20.088  0.00  0.00    +0.000 A 
ATOM     30  F   UNL     1      -6.484  12.251  19.792  0.00  0.00    +0.000 F 
ATOM     31  C   UNL     1      -4.754  12.711  21.373  0.00  0.00    +0.000 A 
ATOM     32  F   UNL     1      -5.676  12.972  22.332  0.00  0.00    +0.000 F 
ATOM     33  C   UNL     1      -3.390  12.807  21.673  0.00  0.00    +0.000 A 
ATOM     34  C   UNL     1      -2.435  12.540  20.691  0.00  0.00    +0.000 A 
ATOM     35  F   UNL     1      -1.118  12.641  21.005  0.00  0.00    +0.000 F 
ENDBRANCH  26  27
ENDBRANCH  22  26
ENDBRANCH  21  22
ENDBRANCH   1  21
TORSDOF 6
ENDMDL
MODEL 6
REMARK VINA RESULT:      -8.1      2.968      3.683
REMARK  Name = 
REMARK  6 active torsions:
REMARK  status: ('A' for Active; 'I' for Inactive)
REMARK    1  A    between atoms: N_1  and  C_2
REMARK    2  A    between atoms: C_2  and  C_3
REMARK    3  A    between atoms: C_2  and  C_24
REMARK    4  A    between atoms: C_3  and  C_4
REMARK    5  A    between atoms: C_11  and  C_13
REMARK    6  A    between atoms: C_24  and  C_25
REMARK                            x       y       z     vdW  Elec       q    Type
REMARK                         _______ _______ _______ _____ _____    ______ ____
ROOT
ATOM      1  C   UNL     1       0.976   8.325  20.443  0.00  0.00    +0.000 C 
ATOM      2  O   UNL     1       0.459   8.305  21.552  0.00  0.00    +0.000 OA
ATOM      3  N   UNL     1       1.861   7.325  20.091  0.00  0.00    +0.000 N 
ATOM      4  C   UNL     1       2.212   6.269  21.039  0.00  0.00    +0.000 C 
ATOM      5  C   UNL     1       1.507   4.930  20.774  0.00  0.00    +0.000 C 
ATOM      6  C   UNL     1       1.507   4.407  19.325  0.00  0.00    +0.000 C 
ATOM      7  N   UNL     1       2.636   4.883  18.517  0.00  0.00    +0.000 N 
ATOM      8  C   UNL     1       3.629   4.012  18.086  0.00  0.00    +0.000 C 
ATOM      9  O   UNL     1       3.553   2.828  18.388  0.00  0.00    +0.000 OA
ATOM     10  C   UNL     1       2.444   6.210  17.920  0.00  0.00    +0.000 C 
ATOM     11  C   UNL     1       2.671   7.382  18.878  0.00  0.00    +0.000 C 
ENDROOT
BRANCH   8  12
ATOM     12  C   UNL     1       4.806   4.422  17.232  0.00  0.00    +0.000 A 
ATOM     13  C   UNL     1       5.890   5.186  17.752  0.00  0.00    +0.000 A 
ATOM     14  C   UNL     1       6.963   5.590  16.953  0.00  0.00    +0.000 A 
ATOM     15  C   UNL     1       6.955   5.207  15.625  0.00  0.00    +0.000 A 
ATOM     16  C   UNL     1       5.966   4.453  15.107  0.00  0.00    +0.000 A 
ATOM     17  C   UNL     1       4.880   4.020  15.871  0.00  0.00    +0.000 A 
ATOM     18  O   UNL     1       6.224   4.237  13.814  0.00  0.00    +0.000 OA
ATOM     19  C   UNL     1       7.416   4.892  13.504  0.00  0.00    +0.000 C 
ATOM     20  O   UNL     1       7.853   5.488  14.683  0.00  0.00    +0.000 OA
ENDBRANCH   8  12
BRANCH   1  21
ATOM     21  C   UNL     1       0.559   9.468  19.517  0.00  0.00    +0.000 C 
BRANCH  21  22
ATOM     22  C   UNL     1       1.115  10.818  20.005  0.00  0.00    +0.000 C 
BRANCH  22  23
ATOM     23  N   UNL     1       0.829  11.021  21.430  0.00  0.00    +0.000 NA
ATOM     24  H   UNL     1       0.627  12.029  21.620  0.00  0.00    +0.000 HD
ATOM     25  H   UNL     1       1.635  10.711  22.020  0.00  0.00    +0.000 HD
ENDBRANCH  22  23
BRANCH  22  26
ATOM     26  C   UNL     1       0.494  11.975  19.188  0.00  0.00    +0.000 C 
BRANCH  26  27
ATOM     27  C   UNL     1       1.427  13.146  19.087  0.00  0.00    +0.000 A 
ATOM     28  C   UNL     1       1.111  14.336  19.764  0.00  0.00    +0.000 A 
ATOM     29  C   UNL     1       1.963  15.438  19.685  0.00  0.00    +0.000 A 
ATOM     30  F   UNL     1       1.642  16.582  20.339  0.00  0.00    +0.000 F 
ATOM     31  C   UNL     1       3.140  15.360  18.936  0.00  0.00    +0.000 A 
ATOM     32  F   UNL     1       3.969  16.430  18.860  0.00  0.00    +0.000 F 
ATOM     33  C   UNL     1       3.466  14.178  18.263  0.00  0.00    +0.000 A 
ATOM     34  C   UNL     1       2.617  13.072  18.336  0.00  0.00    +0.000 A 
ATOM     35  F   UNL     1       2.954  11.935  17.674  0.00  0.00    +0.000 F 
ENDBRANCH  26  27
ENDBRANCH  22  26
ENDBRANCH  21  22
ENDBRANCH   1  21
TORSDOF 6
ENDMDL
MODEL 7
REMARK VINA RESULT:      -8.0      1.555      2.004
REMARK  Name = 
REMARK  6 active torsions:
REMARK  status: ('A' for Active; 'I' for Inactive)
REMARK    1  A    between atoms: N_1  and  C_2
REMARK    2  A    between atoms: C_2  and  C_3
REMARK    3  A    between atoms: C_2  and  C_24
REMARK    4  A    between atoms: C_3  and  C_4
REMARK    5  A    between atoms: C_11  and  C_13
REMARK    6  A    between atoms: C_24  and  C_25
REMARK                            x       y       z     vdW  Elec       q    Type
REMARK                         _______ _______ _______ _____ _____    ______ ____
ROOT
ATOM      1  C   UNL     1       1.282   7.784  20.644  0.00  0.00    +0.000 C 
ATOM      2  O   UNL     1       0.755   7.655  21.741  0.00  0.00    +0.000 OA
ATOM      3  N   UNL     1       2.087   6.772  20.157  0.00  0.00    +0.000 N 
ATOM      4  C   UNL     1       2.343   5.572  20.952  0.00  0.00    +0.000 C 
ATOM      5  C   UNL     1       1.535   4.343  20.508  0.00  0.00    +0.000 C 
ATOM      6  C   UNL     1       1.507   4.024  19.002  0.00  0.00    +0.000 C 
ATOM      7  N   UNL     1       2.677   4.512  18.264  0.00  0.00    +0.000 N 
ATOM      8  C   UNL     1       3.601   3.630  17.717  0.00  0.00    +0.000 C 
ATOM      9  O   UNL     1       3.428   2.426  17.855  0.00  0.00    +0.000 OA
ATOM     10  C   UNL     1       2.598   5.919  17.853  0.00  0.00    +0.000 C 
ATOM     11  C   UNL     1       2.910   6.928  18.962  0.00  0.00    +0.000 C 
ENDROOT
BRANCH   8  12
ATOM     12  C   UNL     1       4.815   4.056  16.924  0.00  0.00    +0.000 A 
ATOM     13  C   UNL     1       5.965   4.623  17.546  0.00  0.00    +0.000 A 
ATOM     14  C   UNL     1       7.075   5.044  16.808  0.00  0.00    +0.000 A 
ATOM     15  C   UNL     1       7.035   4.877  15.436  0.00  0.00    +0.000 A 
ATOM     16  C   UNL     1       5.980   4.310  14.817  0.00  0.00    +0.000 A 
ATOM     17  C   UNL     1       4.856   3.867  15.517  0.00  0.00    +0.000 A 
ATOM     18  O   UNL     1       6.223   4.276  13.503  0.00  0.00    +0.000 OA
ATOM     19  C   UNL     1       7.472   4.855  13.287  0.00  0.00    +0.000 C 
ATOM     20  O   UNL     1       7.960   5.216  14.540  0.00  0.00    +0.000 OA
ENDBRANCH   8  12
BRANCH   1  21
ATOM     21  C   UNL     1       0.966   9.071  19.883  0.00  0.00    +0.000 C 
BRANCH  21  22
ATOM     22  C   UNL     1       0.637  10.227  20.846  0.00  0.00    +0.000 C 
BRANCH  22  23
ATOM     23  N   UNL     1      -0.556   9.921  21.645  0.00  0.00    +0.000 NA
ATOM     24  H   UNL     1      -1.175   9.253  21.132  0.00  0.00    +0.000 HD
ATOM     25  H   UNL     1      -1.091  10.792  21.865  0.00  0.00    +0.000 HD
ENDBRANCH  22  23
BRANCH  22  26
ATOM     26  C   UNL     1       0.398  11.530  20.050  0.00  0.00    +0.000 C 
BRANCH  26  27
ATOM     27  C   UNL     1      -1.054  11.723  19.722  0.00  0.00    +0.000 A 
ATOM     28  C   UNL     1      -1.853  12.499  20.576  0.00  0.00    +0.000 A 
ATOM     29  C   UNL     1      -3.206  12.694  20.293  0.00  0.00    +0.000 A 
ATOM     30  F   UNL     1      -3.966  13.441  21.130  0.00  0.00    +0.000 F 
ATOM     31  C   UNL     1      -3.769  12.120  19.150  0.00  0.00    +0.000 A 
ATOM     32  F   UNL     1      -5.082  12.309  18.872  0.00  0.00    +0.000 F 
ATOM     33  C   UNL     1      -2.980  11.349  18.289  0.00  0.00    +0.000 A 
ATOM     34  C   UNL     1      -1.626  11.149  18.569  0.00  0.00    +0.000 A 
ATOM     35  F   UNL     1      -0.880  10.397  17.720  0.00  0.00    +0.000 F 
ENDBRANCH  26  27
ENDBRANCH  22  26
ENDBRANCH  21  22
ENDBRANCH   1  21
TORSDOF 6
ENDMDL
MODEL 8
REMARK VINA RESULT:      -7.9      4.804     11.456
REMARK  Name = 
REMARK  6 active torsions:
REMARK  status: ('A' for Active; 'I' for Inactive)
REMARK    1  A    between atoms: N_1  and  C_2
REMARK    2  A    between atoms: C_2  and  C_3
REMARK    3  A    between atoms: C_2  and  C_24
REMARK    4  A    between atoms: C_3  and  C_4
REMARK    5  A    between atoms: C_11  and  C_13
REMARK    6  A    between atoms: C_24  and  C_25
REMARK                            x       y       z     vdW  Elec       q    Type
REMARK                         _______ _______ _______ _____ _____    ______ ____
ROOT
ATOM      1  C   UNL     1       1.611  10.406  18.336  0.00  0.00    +0.000 C 
ATOM      2  O   UNL     1       2.738  10.656  17.930  0.00  0.00    +0.000 OA
ATOM      3  N   UNL     1       0.959  11.328  19.132  0.00  0.00    +0.000 N 
ATOM      4  C   UNL     1       1.614  12.575  19.523  0.00  0.00    +0.000 C 
ATOM      5  C   UNL     1       1.143  13.805  18.731  0.00  0.00    +0.000 C 
ATOM      6  C   UNL     1      -0.376  13.997  18.564  0.00  0.00    +0.000 C 
ATOM      7  N   UNL     1      -1.178  13.385  19.630  0.00  0.00    +0.000 N 
ATOM      8  C   UNL     1      -1.889  14.165  20.532  0.00  0.00    +0.000 C 
ATOM      9  O   UNL     1      -1.843  15.384  20.429  0.00  0.00    +0.000 OA
ATOM     10  C   UNL     1      -1.451  11.955  19.444  0.00  0.00    +0.000 C 
ATOM     11  C   UNL     1      -0.293  11.027  19.821  0.00  0.00    +0.000 C 
ENDROOT
BRANCH   8  12
ATOM     12  C   UNL     1      -2.755  13.609  21.638  0.00  0.00    +0.000 A 
ATOM     13  C   UNL     1      -2.218  12.822  22.698  0.00  0.00    +0.000 A 
ATOM     14  C   UNL     1      -3.025  12.282  23.703  0.00  0.00    +0.000 A 
ATOM     15  C   UNL     1      -4.380  12.551  23.653  0.00  0.00    +0.000 A 
ATOM     16  C   UNL     1      -4.918  13.323  22.687  0.00  0.00    +0.000 A 
ATOM     17  C   UNL     1      -4.147  13.888  21.669  0.00  0.00    +0.000 A 
ATOM     18  O   UNL     1      -6.236  13.411  22.895  0.00  0.00    +0.000 OA
ATOM     19  C   UNL     1      -6.538  12.656  24.027  0.00  0.00    +0.000 C 
ATOM     20  O   UNL     1      -5.333  12.134  24.485  0.00  0.00    +0.000 OA
ENDBRANCH   8  12
BRANCH   1  21
ATOM     21  C   UNL     1       1.002   9.078  17.885  0.00  0.00    +0.000 C 
BRANCH  21  22
ATOM     22  C   UNL     1       1.657   7.887  18.607  0.00  0.00    +0.000 C 
BRANCH  22  23
ATOM     23  N   UNL     1       1.989   8.230  19.995  0.00  0.00    +0.000 NA
ATOM     24  H   UNL     1       1.859   9.255  20.156  0.00  0.00    +0.000 HD
ATOM     25  H   UNL     1       2.975   7.966  20.220  0.00  0.00    +0.000 HD
ENDBRANCH  22  23
BRANCH  22  26
ATOM     26  C   UNL     1       2.944   7.459  17.865  0.00  0.00    +0.000 C 
BRANCH  26  27
ATOM     27  C   UNL     1       3.067   5.965  17.782  0.00  0.00    +0.000 A 
ATOM     28  C   UNL     1       1.938   5.169  18.034  0.00  0.00    +0.000 A 
ATOM     29  C   UNL     1       2.026   3.778  17.962  0.00  0.00    +0.000 A 
ATOM     30  F   UNL     1       0.930   3.022  18.213  0.00  0.00    +0.000 F 
ATOM     31  C   UNL     1       3.241   3.171  17.631  0.00  0.00    +0.000 A 
ATOM     32  F   UNL     1       3.328   1.821  17.559  0.00  0.00    +0.000 F 
ATOM     33  C   UNL     1       4.370   3.957  17.372  0.00  0.00    +0.000 A 
ATOM     34  C   UNL     1       4.288   5.349  17.445  0.00  0.00    +0.000 A 
ATOM     35  F   UNL     1       5.397   6.090  17.191  0.00  0.00    +0.000 F 
ENDBRANCH  26  27
ENDBRANCH  22  26
ENDBRANCH  21  22
ENDBRANCH   1  21
TORSDOF 6
ENDMDL
MODEL 9
REMARK VINA RESULT:      -7.8      2.333      2.841
REMARK  Name = 
REMARK  6 active torsions:
REMARK  status: ('A' for Active; 'I' for Inactive)
REMARK    1  A    between atoms: N_1  and  C_2
REMARK    2  A    between atoms: C_2  and  C_3
REMARK    3  A    between atoms: C_2  and  C_24
REMARK    4  A    between atoms: C_3  and  C_4
REMARK    5  A    between atoms: C_11  and  C_13
REMARK    6  A    between atoms: C_24  and  C_25
REMARK                            x       y       z     vdW  Elec       q    Type
REMARK                         _______ _______ _______ _____ _____    ______ ____
ROOT
ATOM      1  C   UNL     1       0.795   9.057  19.733  0.00  0.00    +0.000 C 
ATOM      2  O   UNL     1       0.295   9.310  20.821  0.00  0.00    +0.000 OA
ATOM      3  N   UNL     1       1.757   8.069  19.644  0.00  0.00    +0.000 N 
ATOM      4  C   UNL     1       2.206   7.353  20.837  0.00  0.00    +0.000 C 
ATOM      5  C   UNL     1       1.612   5.943  20.982  0.00  0.00    +0.000 C 
ATOM      6  C   UNL     1       1.639   5.035  19.738  0.00  0.00    +0.000 C 
ATOM      7  N   UNL     1       2.714   5.349  18.790  0.00  0.00    +0.000 N 
ATOM      8  C   UNL     1       3.772   4.472  18.586  0.00  0.00    +0.000 C 
ATOM      9  O   UNL     1       3.799   3.419  19.210  0.00  0.00    +0.000 OA
ATOM     10  C   UNL     1       2.405   6.436  17.853  0.00  0.00    +0.000 C 
ATOM     11  C   UNL     1       2.545   7.844  18.436  0.00  0.00    +0.000 C 
ENDROOT
BRANCH   8  12
ATOM     12  C   UNL     1       4.899   4.714  17.611  0.00  0.00    +0.000 A 
ATOM     13  C   UNL     1       6.108   5.362  17.996  0.00  0.00    +0.000 A 
ATOM     14  C   UNL     1       7.139   5.612  17.085  0.00  0.00    +0.000 A 
ATOM     15  C   UNL     1       6.960   5.190  15.782  0.00  0.00    +0.000 A 
ATOM     16  C   UNL     1       5.846   4.540  15.389  0.00  0.00    +0.000 A 
ATOM     17  C   UNL     1       4.797   4.263  16.268  0.00  0.00    +0.000 A 
ATOM     18  O   UNL     1       5.953   4.254  14.088  0.00  0.00    +0.000 OA
ATOM     19  C   UNL     1       7.176   4.755  13.643  0.00  0.00    +0.000 C 
ATOM     20  O   UNL     1       7.790   5.334  14.750  0.00  0.00    +0.000 OA
ENDBRANCH   8  12
BRANCH   1  21
ATOM     21  C   UNL     1       0.273   9.857  18.540  0.00  0.00    +0.000 C 
BRANCH  21  22
ATOM     22  C   UNL     1       0.456  11.371  18.755  0.00  0.00    +0.000 C 
BRANCH  22  23
ATOM     23  N   UNL     1       1.721  11.655  19.441  0.00  0.00    +0.000 NA
ATOM     24  H   UNL     1       1.834  12.685  19.582  0.00  0.00    +0.000 HD
ATOM     25  H   UNL     1       2.533  11.288  18.894  0.00  0.00    +0.000 HD
ENDBRANCH  22  23
BRANCH  22  26
ATOM     26  C   UNL     1      -0.718  11.933  19.589  0.00  0.00    +0.000 C 
BRANCH  26  27
ATOM     27  C   UNL     1      -2.020  11.841  18.849  0.00  0.00    +0.000 A 
ATOM     28  C   UNL     1      -2.012  11.522  17.481  0.00  0.00    +0.000 A 
ATOM     29  C   UNL     1      -3.209  11.430  16.771  0.00  0.00    +0.000 A 
ATOM     30  F   UNL     1      -3.185  11.126  15.450  0.00  0.00    +0.000 F 
ATOM     31  C   UNL     1      -4.426  11.650  17.423  0.00  0.00    +0.000 A 
ATOM     32  F   UNL     1      -5.590  11.559  16.735  0.00  0.00    +0.000 F 
ATOM     33  C   UNL     1      -4.445  11.963  18.786  0.00  0.00    +0.000 A 
ATOM     34  C   UNL     1      -3.250  12.059  19.501  0.00  0.00    +0.000 A 
ATOM     35  F   UNL     1      -3.294  12.365  20.824  0.00  0.00    +0.000 F 
ENDBRANCH  26  27
ENDBRANCH  22  26
ENDBRANCH  21  22
ENDBRANCH   1  21
TORSDOF 6
ENDMDL
