MODEL 1
REMARK VINA RESULT:      -8.2      0.000      0.000
REMARK  Name = 
REMARK  6 active torsions:
REMARK  status: ('A' for Active; 'I' for Inactive)
REMARK    1  A    between atoms: N_3  and  C_4
REMARK    2  A    between atoms: C_4  and  C_5
REMARK    3  A    between atoms: N_7  and  C_8
REMARK    4  A    between atoms: C_11  and  C_12
REMARK    5  A    between atoms: N_26  and  C_27
REMARK    6  A    between atoms: C_27  and  C_28
REMARK                            x       y       z     vdW  Elec       q    Type
REMARK                         _______ _______ _______ _____ _____    ______ ____
ROOT
ATOM      1  C   UNL     1       2.745   6.598  18.931  0.00  0.00    +0.000 A 
ATOM      2  N   UNL     1       3.391   6.576  17.742  0.00  0.00    +0.000 NA
ATOM      3  C   UNL     1       4.002   5.448  17.289  0.00  0.00    +0.000 A 
ATOM      4  N   UNL     1       4.639   5.566  16.047  0.00  0.00    +0.000 N 
ATOM      5  C   UNL     1       4.753   4.389  15.166  0.00  0.00    +0.000 C 
ATOM      6  C   UNL     1       6.210   3.876  15.064  0.00  0.00    +0.000 C 
ATOM      7  C   UNL     1       7.064   4.678  14.068  0.00  0.00    +0.000 C 
ATOM      8  C   UNL     1       7.924   5.563  14.958  0.00  0.00    +0.000 C 
ATOM      9  C   UNL     1       7.152   5.535  16.265  0.00  0.00    +0.000 C 
ATOM     10  C   UNL     1       5.855   6.397  16.170  0.00  0.00    +0.000 C 
ATOM     11  O   UNL     1       6.842   4.121  16.343  0.00  0.00    +0.000 OA
ATOM     12  C   UNL     1       3.946   4.327  18.135  0.00  0.00    +0.000 A 
ATOM     13  C   UNL     1       4.431   3.000  18.189  0.00  0.00    +0.000 A 
ATOM     14  N   UNL     1       4.067   2.346  19.300  0.00  0.00    +0.000 NA
ATOM     15  N   UNL     1       3.352   3.269  19.979  0.00  0.00    +0.000 N 
ATOM     16  C   UNL     1       3.277   4.476  19.339  0.00  0.00    +0.000 A 
ATOM     17  N   UNL     1       2.667   5.577  19.804  0.00  0.00    +0.000 NA
ENDROOT
BRANCH   1  21
ATOM     18  C   UNL     1       0.727  10.273  20.023  0.00  0.00    +0.000 A 
ATOM     19  C   UNL     1       0.932   9.261  20.956  0.00  0.00    +0.000 A 
ATOM     20  C   UNL     1       1.590   8.078  20.595  0.00  0.00    +0.000 A 
ATOM     21  C   UNL     1       2.065   7.862  19.288  0.00  0.00    +0.000 A 
ATOM     22  C   UNL     1       1.862   8.900  18.362  0.00  0.00    +0.000 A 
ATOM     23  C   UNL     1       1.202  10.088  18.721  0.00  0.00    +0.000 A 
BRANCH  18  27
ATOM     24  O   UNL     1       1.671  12.749  21.369  0.00  0.00    +0.000 OA
ATOM     25  C   UNL     1       0.521  12.561  20.991  0.00  0.00    +0.000 C 
ATOM     26  N   UNL     1      -0.477  13.490  21.226  0.00  0.00    +0.000 N 
ATOM     27  N   UNL     1       0.037  11.466  20.313  0.00  0.00    +0.000 N 
ATOM     28  H   UNL     1      -1.391  13.089  21.394  0.00  0.00    +0.000 HD
ATOM     29  H   UNL     1      -0.892  11.563  19.931  0.00  0.00    +0.000 HD
BRANCH  26  30
ATOM     30  C   UNL     1      -0.156  14.645  22.051  0.00  0.00    +0.000 C 
BRANCH  30  31
ATOM     31  C   UNL     1      -0.850  14.597  23.401  0.00  0.00    +0.000 C 
ATOM     32  F   UNL     1      -1.375  13.351  23.579  0.00  0.00    +0.000 F 
ENDBRANCH  30  31
ENDBRANCH  26  30
ENDBRANCH  18  27
ENDBRANCH   1  21
BRANCH  15  33
ATOM     33  C   UNL     1       2.876   2.970  21.307  0.00  0.00    +0.000 C 
BRANCH  33  34
ATOM     34  C   UNL     1       1.393   2.698  21.372  0.00  0.00    +0.000 C 
ATOM     35  F   UNL     1       0.966   2.169  22.536  0.00  0.00    +0.000 F 
ATOM     36  F   UNL     1       0.696   3.847  21.185  0.00  0.00    +0.000 F 
ATOM     37  F   UNL     1       1.017   1.856  20.378  0.00  0.00    +0.000 F 
ENDBRANCH  33  34
ENDBRANCH  15  33
TORSDOF 6
ENDMDL
MODEL 2
REMARK VINA RESULT:      -8.1      1.257      1.411
REMARK  Name = 
REMARK  6 active torsions:
REMARK  status: ('A' for Active; 'I' for Inactive)
REMARK    1  A    between atoms: N_3  and  C_4
REMARK    2  A    between atoms: C_4  and  C_5
REMARK    3  A    between atoms: N_7  and  C_8
REMARK    4  A    between atoms: C_11  and  C_12
REMARK    5  A    between atoms: N_26  and  C_27
REMARK    6  A    between atoms: C_27  and  C_28
REMARK                            x       y       z     vdW  Elec       q    Type
REMARK                         _______ _______ _______ _____ _____    ______ ____
ROOT
ATOM      1  C   UNL     1       2.325   6.576  18.971  0.00  0.00    +0.000 A 
ATOM      2  N   UNL     1       3.216   6.656  17.955  0.00  0.00    +0.000 NA
ATOM      3  C   UNL     1       3.714   5.540  17.359  0.00  0.00    +0.000 A 
ATOM      4  N   UNL     1       4.633   5.767  16.326  0.00  0.00    +0.000 N 
ATOM      5  C   UNL     1       4.745   4.800  15.219  0.00  0.00    +0.000 C 
ATOM      6  C   UNL     1       6.076   4.012  15.266  0.00  0.00    +0.000 C 
ATOM      7  C   UNL     1       7.262   4.794  14.677  0.00  0.00    +0.000 C 
ATOM      8  C   UNL     1       8.031   5.266  15.903  0.00  0.00    +0.000 C 
ATOM      9  C   UNL     1       6.983   5.140  16.994  0.00  0.00    +0.000 C 
ATOM     10  C   UNL     1       5.910   6.267  16.876  0.00  0.00    +0.000 C 
ATOM     11  O   UNL     1       6.426   3.844  16.661  0.00  0.00    +0.000 OA
ATOM     12  C   UNL     1       3.272   4.309  17.876  0.00  0.00    +0.000 A 
ATOM     13  C   UNL     1       3.498   2.926  17.689  0.00  0.00    +0.000 A 
ATOM     14  N   UNL     1       2.780   2.154  18.515  0.00  0.00    +0.000 NA
ATOM     15  N   UNL     1       2.095   3.052  19.255  0.00  0.00    +0.000 N 
ATOM     16  C   UNL     1       2.377   4.351  18.932  0.00  0.00    +0.000 A 
ATOM     17  N   UNL     1       1.873   5.439  19.533  0.00  0.00    +0.000 NA
ENDROOT
BRANCH   1  21
ATOM     18  C   UNL     1       0.782  10.300  20.558  0.00  0.00    +0.000 A 
ATOM     19  C   UNL     1       0.983   9.196  21.381  0.00  0.00    +0.000 A 
ATOM     20  C   UNL     1       1.487   7.998  20.860  0.00  0.00    +0.000 A 
ATOM     21  C   UNL     1       1.807   7.857  19.496  0.00  0.00    +0.000 A 
ATOM     22  C   UNL     1       1.611   8.986  18.682  0.00  0.00    +0.000 A 
ATOM     23  C   UNL     1       1.106  10.189  19.202  0.00  0.00    +0.000 A 
BRANCH  18  27
ATOM     24  O   UNL     1      -0.460  10.984  23.170  0.00  0.00    +0.000 OA
ATOM     25  C   UNL     1      -0.371  11.754  22.222  0.00  0.00    +0.000 C 
ATOM     26  N   UNL     1      -0.917  13.024  22.270  0.00  0.00    +0.000 N 
ATOM     27  N   UNL     1       0.241  11.518  21.013  0.00  0.00    +0.000 N 
ATOM     28  H   UNL     1      -1.282  13.357  21.386  0.00  0.00    +0.000 HD
ATOM     29  H   UNL     1       0.368  12.325  20.421  0.00  0.00    +0.000 HD
BRANCH  26  30
ATOM     30  C   UNL     1      -1.718  13.381  23.433  0.00  0.00    +0.000 C 
BRANCH  30  31
ATOM     31  C   UNL     1      -3.186  13.042  23.245  0.00  0.00    +0.000 C 
ATOM     32  F   UNL     1      -3.512  12.027  24.094  0.00  0.00    +0.000 F 
ENDBRANCH  30  31
ENDBRANCH  26  30
ENDBRANCH  18  27
ENDBRANCH   1  21
BRANCH  15  33
ATOM     33  C   UNL     1       1.279   2.599  20.355  0.00  0.00    +0.000 C 
BRANCH  33  34
ATOM     34  C   UNL     1       1.950   2.728  21.701  0.00  0.00    +0.000 C 
ATOM     35  F   UNL     1       2.157   3.995  22.109  0.00  0.00    +0.000 F 
ATOM     36  F   UNL     1       1.201   2.125  22.659  0.00  0.00    +0.000 F 
ATOM     37  F   UNL     1       3.150   2.097  21.699  0.00  0.00    +0.000 F 
ENDBRANCH  33  34
ENDBRANCH  15  33
TORSDOF 6
ENDMDL
MODEL 3
REMARK VINA RESULT:      -8.1      0.905      1.394
REMARK  Name = 
REMARK  6 active torsions:
REMARK  status: ('A' for Active; 'I' for Inactive)
REMARK    1  A    between atoms: N_3  and  C_4
REMARK    2  A    between atoms: C_4  and  C_5
REMARK    3  A    between atoms: N_7  and  C_8
REMARK    4  A    between atoms: C_11  and  C_12
REMARK    5  A    between atoms: N_26  and  C_27
REMARK    6  A    between atoms: C_27  and  C_28
REMARK                            x       y       z     vdW  Elec       q    Type
REMARK                         _______ _______ _______ _____ _____    ______ ____
ROOT
ATOM      1  C   UNL     1       2.734   6.509  19.020  0.00  0.00    +0.000 A 
ATOM      2  N   UNL     1       3.375   6.526  17.828  0.00  0.00    +0.000 NA
ATOM      3  C   UNL     1       3.988   5.416  17.337  0.00  0.00    +0.000 A 
ATOM      4  N   UNL     1       4.619   5.575  16.097  0.00  0.00    +0.000 N 
ATOM      5  C   UNL     1       4.732   4.427  15.178  0.00  0.00    +0.000 C 
ATOM      6  C   UNL     1       6.190   3.922  15.054  0.00  0.00    +0.000 C 
ATOM      7  C   UNL     1       7.037   4.757  14.080  0.00  0.00    +0.000 C 
ATOM      8  C   UNL     1       7.899   5.616  14.994  0.00  0.00    +0.000 C 
ATOM      9  C   UNL     1       7.133   5.544  16.303  0.00  0.00    +0.000 C 
ATOM     10  C   UNL     1       5.833   6.405  16.241  0.00  0.00    +0.000 C 
ATOM     11  O   UNL     1       6.826   4.127  16.337  0.00  0.00    +0.000 OA
ATOM     12  C   UNL     1       3.938   4.268  18.147  0.00  0.00    +0.000 A 
ATOM     13  C   UNL     1       4.426   2.942  18.157  0.00  0.00    +0.000 A 
ATOM     14  N   UNL     1       4.069   2.251  19.247  0.00  0.00    +0.000 NA
ATOM     15  N   UNL     1       3.355   3.150  19.959  0.00  0.00    +0.000 N 
ATOM     16  C   UNL     1       3.273   4.376  19.358  0.00  0.00    +0.000 A 
ATOM     17  N   UNL     1       2.663   5.460  19.861  0.00  0.00    +0.000 NA
ENDROOT
BRANCH   1  21
ATOM     18  C   UNL     1       0.763  10.199  20.147  0.00  0.00    +0.000 A 
ATOM     19  C   UNL     1       1.240  10.005  18.854  0.00  0.00    +0.000 A 
ATOM     20  C   UNL     1       1.871   8.807  18.498  0.00  0.00    +0.000 A 
ATOM     21  C   UNL     1       2.052   7.759  19.420  0.00  0.00    +0.000 A 
ATOM     22  C   UNL     1       1.552   7.966  20.718  0.00  0.00    +0.000 A 
ATOM     23  C   UNL     1       0.918   9.167  21.078  0.00  0.00    +0.000 A 
BRANCH  18  27
ATOM     24  O   UNL     1      -0.153  11.011  22.856  0.00  0.00    +0.000 OA
ATOM     25  C   UNL     1      -0.294  11.687  21.844  0.00  0.00    +0.000 C 
ATOM     26  N   UNL     1      -0.971  12.894  21.872  0.00  0.00    +0.000 N 
ATOM     27  N   UNL     1       0.157  11.395  20.578  0.00  0.00    +0.000 N 
ATOM     28  H   UNL     1      -1.496  13.098  21.031  0.00  0.00    +0.000 HD
ATOM     29  H   UNL     1       0.102  12.148  19.909  0.00  0.00    +0.000 HD
BRANCH  26  30
ATOM     30  C   UNL     1      -1.628  13.282  23.111  0.00  0.00    +0.000 C 
BRANCH  30  31
ATOM     31  C   UNL     1      -3.085  12.854  23.147  0.00  0.00    +0.000 C 
ATOM     32  F   UNL     1      -3.199  11.761  23.954  0.00  0.00    +0.000 F 
ENDBRANCH  30  31
ENDBRANCH  26  30
ENDBRANCH  18  27
ENDBRANCH   1  21
BRANCH  15  33
ATOM     33  C   UNL     1       2.885   2.807  21.278  0.00  0.00    +0.000 C 
BRANCH  33  34
ATOM     34  C   UNL     1       1.383   2.690  21.376  0.00  0.00    +0.000 C 
ATOM     35  F   UNL     1       0.719   3.860  21.294  0.00  0.00    +0.000 F 
ATOM     36  F   UNL     1       0.908   1.899  20.382  0.00  0.00    +0.000 F 
ATOM     37  F   UNL     1       1.026   2.098  22.542  0.00  0.00    +0.000 F 
ENDBRANCH  33  34
ENDBRANCH  15  33
TORSDOF 6
ENDMDL
MODEL 4
REMARK VINA RESULT:      -8.0      0.846      1.227
REMARK  Name = 
REMARK  6 active torsions:
REMARK  status: ('A' for Active; 'I' for Inactive)
REMARK    1  A    between atoms: N_3  and  C_4
REMARK    2  A    between atoms: C_4  and  C_5
REMARK    3  A    between atoms: N_7  and  C_8
REMARK    4  A    between atoms: C_11  and  C_12
REMARK    5  A    between atoms: N_26  and  C_27
REMARK    6  A    between atoms: C_27  and  C_28
REMARK                            x       y       z     vdW  Elec       q    Type
REMARK                         _______ _______ _______ _____ _____    ______ ____
ROOT
ATOM      1  C   UNL     1       2.748   6.609  18.933  0.00  0.00    +0.000 A 
ATOM      2  N   UNL     1       3.394   6.581  17.744  0.00  0.00    +0.000 NA
ATOM      3  C   UNL     1       4.004   5.451  17.295  0.00  0.00    +0.000 A 
ATOM      4  N   UNL     1       4.640   5.563  16.052  0.00  0.00    +0.000 N 
ATOM      5  C   UNL     1       4.753   4.382  15.177  0.00  0.00    +0.000 C 
ATOM      6  C   UNL     1       6.210   3.869  15.076  0.00  0.00    +0.000 C 
ATOM      7  C   UNL     1       7.063   4.666  14.076  0.00  0.00    +0.000 C 
ATOM      8  C   UNL     1       7.925   5.554  14.962  0.00  0.00    +0.000 C 
ATOM      9  C   UNL     1       7.154   5.532  16.269  0.00  0.00    +0.000 C 
ATOM     10  C   UNL     1       5.857   6.395  16.171  0.00  0.00    +0.000 C 
ATOM     11  O   UNL     1       6.843   4.119  16.353  0.00  0.00    +0.000 OA
ATOM     12  C   UNL     1       3.948   4.334  18.146  0.00  0.00    +0.000 A 
ATOM     13  C   UNL     1       4.432   3.007  18.206  0.00  0.00    +0.000 A 
ATOM     14  N   UNL     1       4.069   2.358  19.319  0.00  0.00    +0.000 NA
ATOM     15  N   UNL     1       3.354   3.284  19.995  0.00  0.00    +0.000 N 
ATOM     16  C   UNL     1       3.279   4.488  19.350  0.00  0.00    +0.000 A 
ATOM     17  N   UNL     1       2.670   5.591  19.811  0.00  0.00    +0.000 NA
ENDROOT
BRANCH   1  21
ATOM     18  C   UNL     1       0.786  10.344  19.918  0.00  0.00    +0.000 A 
ATOM     19  C   UNL     1       1.292  10.113  18.643  0.00  0.00    +0.000 A 
ATOM     20  C   UNL     1       1.920   8.900  18.332  0.00  0.00    +0.000 A 
ATOM     21  C   UNL     1       2.069   7.874  19.285  0.00  0.00    +0.000 A 
ATOM     22  C   UNL     1       1.539   8.119  20.564  0.00  0.00    +0.000 A 
ATOM     23  C   UNL     1       0.908   9.335  20.878  0.00  0.00    +0.000 A 
BRANCH  18  27
ATOM     24  O   UNL     1       1.984  12.778  21.132  0.00  0.00    +0.000 OA
ATOM     25  C   UNL     1       0.788  12.629  20.914  0.00  0.00    +0.000 C 
ATOM     26  N   UNL     1      -0.138  13.587  21.286  0.00  0.00    +0.000 N 
ATOM     27  N   UNL     1       0.181  11.556  20.305  0.00  0.00    +0.000 N 
ATOM     28  H   UNL     1      -1.033  13.214  21.576  0.00  0.00    +0.000 HD
ATOM     29  H   UNL     1      -0.788  11.685  20.053  0.00  0.00    +0.000 HD
BRANCH  26  30
ATOM     30  C   UNL     1       0.329  14.725  22.064  0.00  0.00    +0.000 C 
BRANCH  30  31
ATOM     31  C   UNL     1       0.304  16.017  21.266  0.00  0.00    +0.000 C 
ATOM     32  F   UNL     1       0.174  15.711  19.944  0.00  0.00    +0.000 F 
ENDBRANCH  30  31
ENDBRANCH  26  30
ENDBRANCH  18  27
ENDBRANCH   1  21
BRANCH  15  33
ATOM     33  C   UNL     1       2.879   2.991  21.324  0.00  0.00    +0.000 C 
BRANCH  33  34
ATOM     34  C   UNL     1       1.398   2.709  21.390  0.00  0.00    +0.000 C 
ATOM     35  F   UNL     1       0.973   2.190  22.559  0.00  0.00    +0.000 F 
ATOM     36  F   UNL     1       0.692   3.851  21.189  0.00  0.00    +0.000 F 
ATOM     37  F   UNL     1       1.030   1.853  20.405  0.00  0.00    +0.000 F 
ENDBRANCH  33  34
ENDBRANCH  15  33
TORSDOF 6
ENDMDL
MODEL 5
REMARK VINA RESULT:      -7.9      0.846      1.118
REMARK  Name = 
REMARK  6 active torsions:
REMARK  status: ('A' for Active; 'I' for Inactive)
REMARK    1  A    between atoms: N_3  and  C_4
REMARK    2  A    between atoms: C_4  and  C_5
REMARK    3  A    between atoms: N_7  and  C_8
REMARK    4  A    between atoms: C_11  and  C_12
REMARK    5  A    between atoms: N_26  and  C_27
REMARK    6  A    between atoms: C_27  and  C_28
REMARK                            x       y       z     vdW  Elec       q    Type
REMARK                         _______ _______ _______ _____ _____    ______ ____
ROOT
ATOM      1  C   UNL     1       2.763   6.608  18.842  0.00  0.00    +0.000 A 
ATOM      2  N   UNL     1       3.414   6.580  17.656  0.00  0.00    +0.000 NA
ATOM      3  C   UNL     1       4.015   5.447  17.204  0.00  0.00    +0.000 A 
ATOM      4  N   UNL     1       4.659   5.559  15.965  0.00  0.00    +0.000 N 
ATOM      5  C   UNL     1       4.763   4.383  15.083  0.00  0.00    +0.000 C 
ATOM      6  C   UNL     1       6.214   3.854  14.986  0.00  0.00    +0.000 C 
ATOM      7  C   UNL     1       7.082   4.648  13.995  0.00  0.00    +0.000 C 
ATOM      8  C   UNL     1       7.948   5.521  14.891  0.00  0.00    +0.000 C 
ATOM      9  C   UNL     1       7.170   5.500  16.194  0.00  0.00    +0.000 C 
ATOM     10  C   UNL     1       5.883   6.377  16.095  0.00  0.00    +0.000 C 
ATOM     11  O   UNL     1       6.843   4.089  16.268  0.00  0.00    +0.000 OA
ATOM     12  C   UNL     1       3.942   4.325  18.048  0.00  0.00    +0.000 A 
ATOM     13  C   UNL     1       4.412   2.993  18.101  0.00  0.00    +0.000 A 
ATOM     14  N   UNL     1       4.036   2.341  19.209  0.00  0.00    +0.000 NA
ATOM     15  N   UNL     1       3.328   3.270  19.887  0.00  0.00    +0.000 N 
ATOM     16  C   UNL     1       3.269   4.479  19.249  0.00  0.00    +0.000 A 
ATOM     17  N   UNL     1       2.670   5.586  19.714  0.00  0.00    +0.000 NA
ENDROOT
BRANCH   1  21
ATOM     18  C   UNL     1       0.780  10.303  19.932  0.00  0.00    +0.000 A 
ATOM     19  C   UNL     1       0.943   9.275  20.856  0.00  0.00    +0.000 A 
ATOM     20  C   UNL     1       1.590   8.086  20.496  0.00  0.00    +0.000 A 
ATOM     21  C   UNL     1       2.096   7.879  19.199  0.00  0.00    +0.000 A 
ATOM     22  C   UNL     1       1.936   8.932  18.282  0.00  0.00    +0.000 A 
ATOM     23  C   UNL     1       1.287  10.127  18.641  0.00  0.00    +0.000 A 
BRANCH  18  27
ATOM     24  O   UNL     1       1.749  12.767  21.281  0.00  0.00    +0.000 OA
ATOM     25  C   UNL     1       0.599  12.593  20.900  0.00  0.00    +0.000 C 
ATOM     26  N   UNL     1      -0.388  13.533  21.131  0.00  0.00    +0.000 N 
ATOM     27  N   UNL     1       0.104  11.504  20.220  0.00  0.00    +0.000 N 
ATOM     28  H   UNL     1      -1.308  13.143  21.297  0.00  0.00    +0.000 HD
ATOM     29  H   UNL     1      -0.823  11.612  19.835  0.00  0.00    +0.000 HD
BRANCH  26  30
ATOM     30  C   UNL     1      -0.057  14.684  21.958  0.00  0.00    +0.000 C 
BRANCH  30  31
ATOM     31  C   UNL     1      -0.216  15.995  21.209  0.00  0.00    +0.000 C 
ATOM     32  F   UNL     1       0.220  15.823  19.929  0.00  0.00    +0.000 F 
ENDBRANCH  30  31
ENDBRANCH  26  30
ENDBRANCH  18  27
ENDBRANCH   1  21
BRANCH  15  33
ATOM     33  C   UNL     1       2.842   2.974  21.212  0.00  0.00    +0.000 C 
BRANCH  33  34
ATOM     34  C   UNL     1       1.345   2.795  21.283  0.00  0.00    +0.000 C 
ATOM     35  F   UNL     1       0.633   3.926  21.114  0.00  0.00    +0.000 F 
ATOM     36  F   UNL     1       0.931   1.924  20.329  0.00  0.00    +0.000 F 
ATOM     37  F   UNL     1       0.985   2.259  22.476  0.00  0.00    +0.000 F 
ENDBRANCH  33  34
ENDBRANCH  15  33
TORSDOF 6
ENDMDL
MODEL 6
REMARK VINA RESULT:      -7.9      1.249      1.488
REMARK  Name = 
REMARK  6 active torsions:
REMARK  status: ('A' for Active; 'I' for Inactive)
REMARK    1  A    between atoms: N_3  and  C_4
REMARK    2  A    between atoms: C_4  and  C_5
REMARK    3  A    between atoms: N_7  and  C_8
REMARK    4  A    between atoms: C_11  and  C_12
REMARK    5  A    between atoms: N_26  and  C_27
REMARK    6  A    between atoms: C_27  and  C_28
REMARK                            x       y       z     vdW  Elec       q    Type
REMARK                         _______ _______ _______ _____ _____    ______ ____
ROOT
ATOM      1  C   UNL     1       2.754   6.532  19.008  0.00  0.00    +0.000 A 
ATOM      2  N   UNL     1       3.391   6.537  17.814  0.00  0.00    +0.000 NA
ATOM      3  C   UNL     1       3.988   5.417  17.325  0.00  0.00    +0.000 A 
ATOM      4  N   UNL     1       4.617   5.564  16.082  0.00  0.00    +0.000 N 
ATOM      5  C   UNL     1       4.713   4.410  15.168  0.00  0.00    +0.000 C 
ATOM      6  C   UNL     1       6.165   3.888  15.041  0.00  0.00    +0.000 C 
ATOM      7  C   UNL     1       7.018   4.710  14.060  0.00  0.00    +0.000 C 
ATOM      8  C   UNL     1       7.893   5.563  14.967  0.00  0.00    +0.000 C 
ATOM      9  C   UNL     1       7.131   5.505  16.279  0.00  0.00    +0.000 C 
ATOM     10  C   UNL     1       5.841   6.381  16.218  0.00  0.00    +0.000 C 
ATOM     11  O   UNL     1       6.809   4.092  16.320  0.00  0.00    +0.000 OA
ATOM     12  C   UNL     1       3.929   4.274  18.141  0.00  0.00    +0.000 A 
ATOM     13  C   UNL     1       4.402   2.942  18.154  0.00  0.00    +0.000 A 
ATOM     14  N   UNL     1       4.042   2.260  19.249  0.00  0.00    +0.000 NA
ATOM     15  N   UNL     1       3.340   3.170  19.959  0.00  0.00    +0.000 N 
ATOM     16  C   UNL     1       3.270   4.395  19.354  0.00  0.00    +0.000 A 
ATOM     17  N   UNL     1       2.674   5.487  19.854  0.00  0.00    +0.000 NA
ENDROOT
BRANCH   1  21
ATOM     18  C   UNL     1       0.829  10.249  20.127  0.00  0.00    +0.000 A 
ATOM     19  C   UNL     1       1.295  10.042  18.832  0.00  0.00    +0.000 A 
ATOM     20  C   UNL     1       1.912   8.835  18.478  0.00  0.00    +0.000 A 
ATOM     21  C   UNL     1       2.088   7.791  19.406  0.00  0.00    +0.000 A 
ATOM     22  C   UNL     1       1.598   8.011  20.705  0.00  0.00    +0.000 A 
ATOM     23  C   UNL     1       0.979   9.221  21.063  0.00  0.00    +0.000 A 
BRANCH  18  27
ATOM     24  O   UNL     1      -1.907  11.311  19.655  0.00  0.00    +0.000 OA
ATOM     25  C   UNL     1      -1.023  11.912  20.254  0.00  0.00    +0.000 C 
ATOM     26  N   UNL     1      -1.215  13.201  20.718  0.00  0.00    +0.000 N 
ATOM     27  N   UNL     1       0.238  11.454  20.555  0.00  0.00    +0.000 N 
ATOM     28  H   UNL     1      -0.388  13.784  20.688  0.00  0.00    +0.000 HD
ATOM     29  H   UNL     1       0.766  12.018  21.204  0.00  0.00    +0.000 HD
BRANCH  26  30
ATOM     30  C   UNL     1      -2.453  13.880  20.362  0.00  0.00    +0.000 C 
BRANCH  30  31
ATOM     31  C   UNL     1      -3.456  13.880  21.502  0.00  0.00    +0.000 C 
ATOM     32  F   UNL     1      -4.152  12.708  21.472  0.00  0.00    +0.000 F 
ENDBRANCH  30  31
ENDBRANCH  26  30
ENDBRANCH  18  27
ENDBRANCH   1  21
BRANCH  15  33
ATOM     33  C   UNL     1       2.872   2.839  21.282  0.00  0.00    +0.000 C 
BRANCH  33  34
ATOM     34  C   UNL     1       1.374   2.675  21.372  0.00  0.00    +0.000 C 
ATOM     35  F   UNL     1       0.935   2.117  22.517  0.00  0.00    +0.000 F 
ATOM     36  F   UNL     1       0.762   3.881  21.264  0.00  0.00    +0.000 F 
ATOM     37  F   UNL     1       0.914   1.918  20.345  0.00  0.00    +0.000 F 
ENDBRANCH  33  34
ENDBRANCH  15  33
TORSDOF 6
ENDMDL
MODEL 7
REMARK VINA RESULT:      -7.8      3.510     10.250
REMARK  Name = 
REMARK  6 active torsions:
REMARK  status: ('A' for Active; 'I' for Inactive)
REMARK    1  A    between atoms: N_3  and  C_4
REMARK    2  A    between atoms: C_4  and  C_5
REMARK    3  A    between atoms: N_7  and  C_8
REMARK    4  A    between atoms: C_11  and  C_12
REMARK    5  A    between atoms: N_26  and  C_27
REMARK    6  A    between atoms: C_27  and  C_28
REMARK                            x       y       z     vdW  Elec       q    Type
REMARK                         _______ _______ _______ _____ _____    ______ ____
ROOT
ATOM      1  C   UNL     1       0.364  10.054  19.306  0.00  0.00    +0.000 A 
ATOM      2  N   UNL     1       0.770  11.042  20.136  0.00  0.00    +0.000 NA
ATOM      3  C   UNL     1      -0.067  12.052  20.499  0.00  0.00    +0.000 A 
ATOM      4  N   UNL     1       0.484  13.011  21.357  0.00  0.00    +0.000 N 
ATOM      5  C   UNL     1      -0.384  13.729  22.309  0.00  0.00    +0.000 C 
ATOM      6  C   UNL     1      -0.568  15.216  21.922  0.00  0.00    +0.000 C 
ATOM      7  C   UNL     1       0.609  16.104  22.359  0.00  0.00    +0.000 C 
ATOM      8  C   UNL     1       1.383  16.341  21.070  0.00  0.00    +0.000 C 
ATOM      9  C   UNL     1       0.875  15.213  20.190  0.00  0.00    +0.000 C 
ATOM     10  C   UNL     1       1.471  13.841  20.635  0.00  0.00    +0.000 C 
ATOM     11  O   UNL     1      -0.544  15.290  20.476  0.00  0.00    +0.000 OA
ATOM     12  C   UNL     1      -1.357  12.020  19.941  0.00  0.00    +0.000 A 
ATOM     13  C   UNL     1      -2.536  12.799  19.927  0.00  0.00    +0.000 A 
ATOM     14  N   UNL     1      -3.510  12.275  19.171  0.00  0.00    +0.000 NA
ATOM     15  N   UNL     1      -2.945  11.152  18.679  0.00  0.00    +0.000 N 
ATOM     16  C   UNL     1      -1.651  10.972  19.085  0.00  0.00    +0.000 A 
ATOM     17  N   UNL     1      -0.843   9.967  18.716  0.00  0.00    +0.000 NA
ENDROOT
BRANCH   1  21
ATOM     18  C   UNL     1       3.221   6.910  18.451  0.00  0.00    +0.000 A 
ATOM     19  C   UNL     1       2.946   7.906  17.518  0.00  0.00    +0.000 A 
ATOM     20  C   UNL     1       2.025   8.921  17.805  0.00  0.00    +0.000 A 
ATOM     21  C   UNL     1       1.342   8.978  19.034  0.00  0.00    +0.000 A 
ATOM     22  C   UNL     1       1.641   7.973  19.971  0.00  0.00    +0.000 A 
ATOM     23  C   UNL     1       2.565   6.953  19.685  0.00  0.00    +0.000 A 
BRANCH  18  27
ATOM     24  O   UNL     1       5.996   6.928  17.386  0.00  0.00    +0.000 OA
ATOM     25  C   UNL     1       5.364   5.914  17.659  0.00  0.00    +0.000 C 
ATOM     26  N   UNL     1       5.886   4.655  17.425  0.00  0.00    +0.000 N 
ATOM     27  N   UNL     1       4.105   5.841  18.207  0.00  0.00    +0.000 N 
ATOM     28  H   UNL     1       5.199   3.961  17.155  0.00  0.00    +0.000 HD
ATOM     29  H   UNL     1       3.817   4.927  18.524  0.00  0.00    +0.000 HD
BRANCH  26  30
ATOM     30  C   UNL     1       7.157   4.560  16.723  0.00  0.00    +0.000 C 
BRANCH  30  31
ATOM     31  C   UNL     1       6.977   4.479  15.217  0.00  0.00    +0.000 C 
ATOM     32  F   UNL     1       5.842   3.772  14.950  0.00  0.00    +0.000 F 
ENDBRANCH  30  31
ENDBRANCH  26  30
ENDBRANCH  18  27
ENDBRANCH   1  21
BRANCH  15  33
ATOM     33  C   UNL     1      -3.659  10.357  17.710  0.00  0.00    +0.000 C 
BRANCH  33  34
ATOM     34  C   UNL     1      -3.219  10.596  16.286  0.00  0.00    +0.000 C 
ATOM     35  F   UNL     1      -2.281  11.552  16.139  0.00  0.00    +0.000 F 
ATOM     36  F   UNL     1      -2.705   9.458  15.756  0.00  0.00    +0.000 F 
ATOM     37  F   UNL     1      -4.277  10.937  15.510  0.00  0.00    +0.000 F 
ENDBRANCH  33  34
ENDBRANCH  15  33
TORSDOF 6
ENDMDL
MODEL 8
REMARK VINA RESULT:      -7.8      1.190      1.533
REMARK  Name = 
REMARK  6 active torsions:
REMARK  status: ('A' for Active; 'I' for Inactive)
REMARK    1  A    between atoms: N_3  and  C_4
REMARK    2  A    between atoms: C_4  and  C_5
REMARK    3  A    between atoms: N_7  and  C_8
REMARK    4  A    between atoms: C_11  and  C_12
REMARK    5  A    between atoms: N_26  and  C_27
REMARK    6  A    between atoms: C_27  and  C_28
REMARK                            x       y       z     vdW  Elec       q    Type
REMARK                         _______ _______ _______ _____ _____    ______ ____
ROOT
ATOM      1  C   UNL     1       2.293   6.699  18.992  0.00  0.00    +0.000 A 
ATOM      2  N   UNL     1       3.198   6.762  17.987  0.00  0.00    +0.000 NA
ATOM      3  C   UNL     1       3.694   5.636  17.409  0.00  0.00    +0.000 A 
ATOM      4  N   UNL     1       4.626   5.845  16.385  0.00  0.00    +0.000 N 
ATOM      5  C   UNL     1       4.745   4.866  15.288  0.00  0.00    +0.000 C 
ATOM      6  C   UNL     1       6.069   4.068  15.361  0.00  0.00    +0.000 C 
ATOM      7  C   UNL     1       7.268   4.834  14.778  0.00  0.00    +0.000 C 
ATOM      8  C   UNL     1       8.025   5.312  16.008  0.00  0.00    +0.000 C 
ATOM      9  C   UNL     1       6.963   5.206  17.088  0.00  0.00    +0.000 C 
ATOM     10  C   UNL     1       5.901   6.340  16.945  0.00  0.00    +0.000 C 
ATOM     11  O   UNL     1       6.400   3.911  16.760  0.00  0.00    +0.000 OA
ATOM     12  C   UNL     1       3.235   4.414  17.932  0.00  0.00    +0.000 A 
ATOM     13  C   UNL     1       3.452   3.027  17.761  0.00  0.00    +0.000 A 
ATOM     14  N   UNL     1       2.717   2.270  18.586  0.00  0.00    +0.000 NA
ATOM     15  N   UNL     1       2.031   3.180  19.310  0.00  0.00    +0.000 N 
ATOM     16  C   UNL     1       2.328   4.474  18.977  0.00  0.00    +0.000 A 
ATOM     17  N   UNL     1       1.825   5.572  19.561  0.00  0.00    +0.000 NA
ENDROOT
BRANCH   1  21
ATOM     18  C   UNL     1       0.810  10.508  20.428  0.00  0.00    +0.000 A 
ATOM     19  C   UNL     1       1.103  10.312  19.082  0.00  0.00    +0.000 A 
ATOM     20  C   UNL     1       1.577   9.076  18.626  0.00  0.00    +0.000 A 
ATOM     21  C   UNL     1       1.779   7.990  19.499  0.00  0.00    +0.000 A 
ATOM     22  C   UNL     1       1.465   8.200  20.853  0.00  0.00    +0.000 A 
ATOM     23  C   UNL     1       0.989   9.440  21.313  0.00  0.00    +0.000 A 
BRANCH  18  27
ATOM     24  O   UNL     1      -0.525  11.114  23.014  0.00  0.00    +0.000 OA
ATOM     25  C   UNL     1      -0.294  11.943  22.142  0.00  0.00    +0.000 C 
ATOM     26  N   UNL     1      -0.706  13.257  22.269  0.00  0.00    +0.000 N 
ATOM     27  N   UNL     1       0.370  11.738  20.955  0.00  0.00    +0.000 N 
ATOM     28  H   UNL     1      -0.973  13.697  21.397  0.00  0.00    +0.000 HD
ATOM     29  H   UNL     1       0.620  12.571  20.443  0.00  0.00    +0.000 HD
BRANCH  26  30
ATOM     30  C   UNL     1      -1.541  13.606  23.409  0.00  0.00    +0.000 C 
BRANCH  30  31
ATOM     31  C   UNL     1      -1.073  14.876  24.096  0.00  0.00    +0.000 C 
ATOM     32  F   UNL     1      -1.731  14.998  25.284  0.00  0.00    +0.000 F 
ENDBRANCH  30  31
ENDBRANCH  26  30
ENDBRANCH  18  27
ENDBRANCH   1  21
BRANCH  15  33
ATOM     33  C   UNL     1       1.198   2.745  20.404  0.00  0.00    +0.000 C 
BRANCH  33  34
ATOM     34  C   UNL     1       1.890   2.783  21.744  0.00  0.00    +0.000 C 
ATOM     35  F   UNL     1       2.216   4.016  22.177  0.00  0.00    +0.000 F 
ATOM     36  F   UNL     1       1.098   2.230  22.697  0.00  0.00    +0.000 F 
ATOM     37  F   UNL     1       3.027   2.045  21.716  0.00  0.00    +0.000 F 
ENDBRANCH  33  34
ENDBRANCH  15  33
TORSDOF 6
ENDMDL
MODEL 9
REMARK VINA RESULT:      -7.8      1.241      1.381
REMARK  Name = 
REMARK  6 active torsions:
REMARK  status: ('A' for Active; 'I' for Inactive)
REMARK    1  A    between atoms: N_3  and  C_4
REMARK    2  A    between atoms: C_4  and  C_5
REMARK    3  A    between atoms: N_7  and  C_8
REMARK    4  A    between atoms: C_11  and  C_12
REMARK    5  A    between atoms: N_26  and  C_27
REMARK    6  A    between atoms: C_27  and  C_28
REMARK                            x       y       z     vdW  Elec       q    Type
REMARK                         _______ _______ _______ _____ _____    ______ ____
ROOT
ATOM      1  C   UNL     1       2.331   6.741  18.816  0.00  0.00    +0.000 A 
ATOM      2  N   UNL     1       3.229   6.764  17.804  0.00  0.00    +0.000 NA
ATOM      3  C   UNL     1       3.719   5.616  17.265  0.00  0.00    +0.000 A 
ATOM      4  N   UNL     1       4.646   5.785  16.228  0.00  0.00    +0.000 N 
ATOM      5  C   UNL     1       4.756   4.765  15.168  0.00  0.00    +0.000 C 
ATOM      6  C   UNL     1       6.078   3.967  15.262  0.00  0.00    +0.000 C 
ATOM      7  C   UNL     1       7.276   4.708  14.645  0.00  0.00    +0.000 C 
ATOM      8  C   UNL     1       8.041   5.229  15.852  0.00  0.00    +0.000 C 
ATOM      9  C   UNL     1       6.986   5.166  16.941  0.00  0.00    +0.000 C 
ATOM     10  C   UNL     1       5.926   6.297  16.762  0.00  0.00    +0.000 C 
ATOM     11  O   UNL     1       6.418   3.861  16.665  0.00  0.00    +0.000 OA
ATOM     12  C   UNL     1       3.261   4.416  17.836  0.00  0.00    +0.000 A 
ATOM     13  C   UNL     1       3.473   3.023  17.716  0.00  0.00    +0.000 A 
ATOM     14  N   UNL     1       2.742   2.298  18.572  0.00  0.00    +0.000 NA
ATOM     15  N   UNL     1       2.062   3.237  19.265  0.00  0.00    +0.000 N 
ATOM     16  C   UNL     1       2.360   4.516  18.883  0.00  0.00    +0.000 A 
ATOM     17  N   UNL     1       1.864   5.637  19.429  0.00  0.00    +0.000 NA
ENDROOT
BRANCH   1  21
ATOM     18  C   UNL     1       0.817  10.552  20.215  0.00  0.00    +0.000 A 
ATOM     19  C   UNL     1       0.977   9.478  21.086  0.00  0.00    +0.000 A 
ATOM     20  C   UNL     1       1.472   8.252  20.626  0.00  0.00    +0.000 A 
ATOM     21  C   UNL     1       1.823   8.051  19.277  0.00  0.00    +0.000 A 
ATOM     22  C   UNL     1       1.668   9.149  18.414  0.00  0.00    +0.000 A 
ATOM     23  C   UNL     1       1.172  10.381  18.873  0.00  0.00    +0.000 A 
BRANCH  18  27
ATOM     24  O   UNL     1       2.201  13.024  21.112  0.00  0.00    +0.000 OA
ATOM     25  C   UNL     1       0.985  12.889  21.066  0.00  0.00    +0.000 C 
ATOM     26  N   UNL     1       0.131  13.885  21.502  0.00  0.00    +0.000 N 
ATOM     27  N   UNL     1       0.286  11.796  20.607  0.00  0.00    +0.000 N 
ATOM     28  H   UNL     1      -0.722  13.548  21.932  0.00  0.00    +0.000 HD
ATOM     29  H   UNL     1      -0.706  11.931  20.481  0.00  0.00    +0.000 HD
BRANCH  26  30
ATOM     30  C   UNL     1       0.715  15.055  22.143  0.00  0.00    +0.000 C 
BRANCH  30  31
ATOM     31  C   UNL     1       0.507  16.320  21.329  0.00  0.00    +0.000 C 
ATOM     32  F   UNL     1       0.880  16.076  20.041  0.00  0.00    +0.000 F 
ENDBRANCH  30  31
ENDBRANCH  26  30
ENDBRANCH  18  27
ENDBRANCH   1  21
BRANCH  15  33
ATOM     33  C   UNL     1       1.235   2.845  20.380  0.00  0.00    +0.000 C 
BRANCH  33  34
ATOM     34  C   UNL     1       1.973   2.797  21.695  0.00  0.00    +0.000 C 
ATOM     35  F   UNL     1       3.141   2.127  21.663  0.00  0.00    +0.000 F 
ATOM     36  F   UNL     1       2.254   4.054  22.123  0.00  0.00    +0.000 F 
ATOM     37  F   UNL     1       1.202   2.229  22.655  0.00  0.00    +0.000 F 
ENDBRANCH  33  34
ENDBRANCH  15  33
TORSDOF 6
ENDMDL
