MODEL 1
REMARK VINA RESULT:      -8.6      0.000      0.000
REMARK  Name = 
REMARK  4 active torsions:
REMARK  status: ('A' for Active; 'I' for Inactive)
REMARK    1  A    between atoms: C_2  and  C_11
REMARK    2  A    between atoms: N_3  and  C_4
REMARK    3  A    between atoms: C_17  and  N_18
REMARK    4  A    between atoms: C_19  and  C_21
REMARK                            x       y       z     vdW  Elec       q    Type
REMARK                         _______ _______ _______ _____ _____    ______ ____
ROOT
ATOM      1  C   UNL     1       2.299   4.407  19.797  0.00  0.00    +0.000 A 
ATOM      2  C   UNL     1       1.575   4.085  20.953  0.00  0.00    +0.000 A 
ATOM      3  C   UNL     1       1.800   2.874  21.599  0.00  0.00    +0.000 A 
ATOM      4  F   UNL     1       1.103   2.575  22.701  0.00  0.00    +0.000 F 
ATOM      5  C   UNL     1       2.732   1.967  21.117  0.00  0.00    +0.000 A 
ATOM      6  C   UNL     1       3.429   2.265  19.945  0.00  0.00    +0.000 A 
ATOM      7  C   UNL     1       3.204   3.468  19.257  0.00  0.00    +0.000 A 
ENDROOT
BRANCH   1   9
ATOM      8  O   UNL     1       1.908   5.691  17.874  0.00  0.00    +0.000 OA
ATOM      9  C   UNL     1       2.035   5.698  19.101  0.00  0.00    +0.000 C 
ATOM     10  N   UNL     1       2.046   6.829  19.900  0.00  0.00    +0.000 N 
ATOM     11  H   UNL     1       2.424   6.734  20.833  0.00  0.00    +0.000 HD
BRANCH  10  12
ATOM     12  C   UNL     1       1.796   8.147  19.467  0.00  0.00    +0.000 A 
ATOM     13  C   UNL     1       2.258   8.657  18.250  0.00  0.00    +0.000 A 
ATOM     14  C   UNL     1       2.020   9.990  17.904  0.00  0.00    +0.000 A 
ATOM     15  C   UNL     1       1.317  10.816  18.774  0.00  0.00    +0.000 A 
ATOM     16 CL   UNL     1       1.065  12.469  18.371  0.00  0.00    +0.000 Cl
ATOM     17  C   UNL     1       0.818  10.310  19.973  0.00  0.00    +0.000 A 
ATOM     18  C   UNL     1       1.045   8.973  20.311  0.00  0.00    +0.000 A 
ENDBRANCH  10  12
ENDBRANCH   1   9
BRANCH   7  19
ATOM     19  N   UNL     1       3.891   3.728  18.039  0.00  0.00    +0.000 N 
ATOM     20  C   UNL     1       5.209   4.176  17.992  0.00  0.00    +0.000 C 
ATOM     21  O   UNL     1       5.863   4.352  19.022  0.00  0.00    +0.000 OA
ATOM     22  H   UNL     1       3.582   3.194  17.225  0.00  0.00    +0.000 HD
BRANCH  20  23
ATOM     23  C   UNL     1       5.794   4.350  16.668  0.00  0.00    +0.000 A 
ATOM     24  S   UNL     1       5.294   3.233  15.461  0.00  0.00    +0.000 S 
ATOM     25  C   UNL     1       6.247   3.964  14.244  0.00  0.00    +0.000 A 
ATOM     26  C   UNL     1       6.307   3.576  12.892  0.00  0.00    +0.000 A 
ATOM     27  C   UNL     1       7.125   4.289  12.018  0.00  0.00    +0.000 A 
ATOM     28  C   UNL     1       7.889   5.348  12.484  0.00  0.00    +0.000 A 
ATOM     29  C   UNL     1       7.841   5.717  13.835  0.00  0.00    +0.000 A 
ATOM     30  C   UNL     1       6.993   5.031  14.747  0.00  0.00    +0.000 A 
ATOM     31  C   UNL     1       6.730   5.230  16.157  0.00  0.00    +0.000 A 
ATOM     32 CL   UNL     1       7.543   6.457  17.052  0.00  0.00    +0.000 Cl
ENDBRANCH  20  23
ENDBRANCH   7  19
TORSDOF 4
ENDMDL
MODEL 2
REMARK VINA RESULT:      -8.4      4.032      5.864
REMARK  Name = 
REMARK  4 active torsions:
REMARK  status: ('A' for Active; 'I' for Inactive)
REMARK    1  A    between atoms: C_2  and  C_11
REMARK    2  A    between atoms: N_3  and  C_4
REMARK    3  A    between atoms: C_17  and  N_18
REMARK    4  A    between atoms: C_19  and  C_21
REMARK                            x       y       z     vdW  Elec       q    Type
REMARK                         _______ _______ _______ _____ _____    ______ ____
ROOT
ATOM      1  C   UNL     1      -0.179   9.971  20.435  0.00  0.00    +0.000 A 
ATOM      2  C   UNL     1      -1.004  10.578  21.392  0.00  0.00    +0.000 A 
ATOM      3  C   UNL     1      -0.719  10.434  22.745  0.00  0.00    +0.000 A 
ATOM      4  F   UNL     1      -1.512  11.016  23.651  0.00  0.00    +0.000 F 
ATOM      5  C   UNL     1       0.371   9.691  23.173  0.00  0.00    +0.000 A 
ATOM      6  C   UNL     1       1.173   9.052  22.227  0.00  0.00    +0.000 A 
ATOM      7  C   UNL     1       0.896   9.158  20.854  0.00  0.00    +0.000 A 
ENDROOT
BRANCH   1   9
ATOM      8  O   UNL     1       0.421  10.273  18.187  0.00  0.00    +0.000 OA
ATOM      9  C   UNL     1      -0.505  10.114  18.987  0.00  0.00    +0.000 C 
ATOM     10  N   UNL     1      -1.853  10.148  18.671  0.00  0.00    +0.000 N 
ATOM     11  H   UNL     1      -2.505  10.278  19.433  0.00  0.00    +0.000 HD
BRANCH  10  12
ATOM     12  C   UNL     1      -2.393  10.249  17.373  0.00  0.00    +0.000 A 
ATOM     13  C   UNL     1      -3.358  11.194  17.013  0.00  0.00    +0.000 A 
ATOM     14  C   UNL     1      -3.892  11.206  15.721  0.00  0.00    +0.000 A 
ATOM     15  C   UNL     1      -3.457  10.275  14.785  0.00  0.00    +0.000 A 
ATOM     16 CL   UNL     1      -4.147  10.258  13.209  0.00  0.00    +0.000 Cl
ATOM     17  C   UNL     1      -2.468   9.352  15.118  0.00  0.00    +0.000 A 
ATOM     18  C   UNL     1      -1.926   9.350  16.407  0.00  0.00    +0.000 A 
ENDBRANCH  10  12
ENDBRANCH   1   9
BRANCH   7  19
ATOM     19  N   UNL     1       1.698   8.458  19.911  0.00  0.00    +0.000 N 
ATOM     20  C   UNL     1       1.936   7.088  19.987  0.00  0.00    +0.000 C 
ATOM     21  O   UNL     1       1.437   6.398  20.880  0.00  0.00    +0.000 OA
ATOM     22  H   UNL     1       1.741   8.857  18.973  0.00  0.00    +0.000 HD
BRANCH  20  23
ATOM     23  C   UNL     1       2.737   6.502  18.919  0.00  0.00    +0.000 A 
ATOM     24  S   UNL     1       3.498   7.607  17.844  0.00  0.00    +0.000 S 
ATOM     25  C   UNL     1       4.245   6.367  16.934  0.00  0.00    +0.000 A 
ATOM     26  C   UNL     1       5.116   6.549  15.843  0.00  0.00    +0.000 A 
ATOM     27  C   UNL     1       5.658   5.429  15.216  0.00  0.00    +0.000 A 
ATOM     28  C   UNL     1       5.320   4.155  15.646  0.00  0.00    +0.000 A 
ATOM     29  C   UNL     1       4.435   3.981  16.719  0.00  0.00    +0.000 A 
ATOM     30  C   UNL     1       3.889   5.102  17.402  0.00  0.00    +0.000 A 
ATOM     31  C   UNL     1       3.003   5.199  18.543  0.00  0.00    +0.000 A 
ATOM     32 CL   UNL     1       2.371   3.790  19.305  0.00  0.00    +0.000 Cl
ENDBRANCH  20  23
ENDBRANCH   7  19
TORSDOF 4
ENDMDL
MODEL 3
REMARK VINA RESULT:      -7.7      4.939      7.903
REMARK  Name = 
REMARK  4 active torsions:
REMARK  status: ('A' for Active; 'I' for Inactive)
REMARK    1  A    between atoms: C_2  and  C_11
REMARK    2  A    between atoms: N_3  and  C_4
REMARK    3  A    between atoms: C_17  and  N_18
REMARK    4  A    between atoms: C_19  and  C_21
REMARK                            x       y       z     vdW  Elec       q    Type
REMARK                         _______ _______ _______ _____ _____    ______ ____
ROOT
ATOM      1  C   UNL     1      -1.786  12.096  20.670  0.00  0.00    +0.000 A 
ATOM      2  C   UNL     1      -2.759  12.850  21.342  0.00  0.00    +0.000 A 
ATOM      3  C   UNL     1      -2.730  12.942  22.729  0.00  0.00    +0.000 A 
ATOM      4  F   UNL     1      -3.664  13.662  23.361  0.00  0.00    +0.000 F 
ATOM      5  C   UNL     1      -1.752  12.295  23.470  0.00  0.00    +0.000 A 
ATOM      6  C   UNL     1      -0.804  11.512  22.810  0.00  0.00    +0.000 A 
ATOM      7  C   UNL     1      -0.823  11.379  21.412  0.00  0.00    +0.000 A 
ENDROOT
BRANCH   1   9
ATOM      8  O   UNL     1      -1.042  12.652  18.516  0.00  0.00    +0.000 OA
ATOM      9  C   UNL     1      -1.838  11.987  19.184  0.00  0.00    +0.000 C 
ATOM     10  N   UNL     1      -2.855  11.200  18.671  0.00  0.00    +0.000 N 
ATOM     11  H   UNL     1      -3.596  10.929  19.304  0.00  0.00    +0.000 HD
BRANCH  10  12
ATOM     12  C   UNL     1      -3.081  10.932  17.305  0.00  0.00    +0.000 A 
ATOM     13  C   UNL     1      -4.105  11.526  16.564  0.00  0.00    +0.000 A 
ATOM     14  C   UNL     1      -4.308  11.176  15.226  0.00  0.00    +0.000 A 
ATOM     15  C   UNL     1      -3.483  10.231  14.626  0.00  0.00    +0.000 A 
ATOM     16 CL   UNL     1      -3.760   9.764  12.994  0.00  0.00    +0.000 Cl
ATOM     17  C   UNL     1      -2.433   9.659  15.343  0.00  0.00    +0.000 A 
ATOM     18  C   UNL     1      -2.224  10.020  16.677  0.00  0.00    +0.000 A 
ENDBRANCH  10  12
ENDBRANCH   1   9
BRANCH   7  19
ATOM     19  N   UNL     1       0.123  10.537  20.766  0.00  0.00    +0.000 N 
ATOM     20  C   UNL     1       0.138   9.153  20.922  0.00  0.00    +0.000 C 
ATOM     21  O   UNL     1      -0.698   8.577  21.623  0.00  0.00    +0.000 OA
ATOM     22  H   UNL     1       0.502  10.881  19.883  0.00  0.00    +0.000 HD
BRANCH  20  23
ATOM     23  C   UNL     1       1.137   8.418  20.155  0.00  0.00    +0.000 A 
ATOM     24  S   UNL     1       1.715   6.960  20.857  0.00  0.00    +0.000 S 
ATOM     25  C   UNL     1       2.744   6.612  19.536  0.00  0.00    +0.000 A 
ATOM     26  C   UNL     1       3.554   5.469  19.393  0.00  0.00    +0.000 A 
ATOM     27  C   UNL     1       4.325   5.325  18.242  0.00  0.00    +0.000 A 
ATOM     28  C   UNL     1       4.314   6.310  17.266  0.00  0.00    +0.000 A 
ATOM     29  C   UNL     1       3.523   7.455  17.424  0.00  0.00    +0.000 A 
ATOM     30  C   UNL     1       2.699   7.619  18.571  0.00  0.00    +0.000 A 
ATOM     31  C   UNL     1       1.774   8.665  18.953  0.00  0.00    +0.000 A 
ATOM     32 CL   UNL     1       1.544  10.057  17.966  0.00  0.00    +0.000 Cl
ENDBRANCH  20  23
ENDBRANCH   7  19
TORSDOF 4
ENDMDL
MODEL 4
REMARK VINA RESULT:      -7.7      5.417      8.560
REMARK  Name = 
REMARK  4 active torsions:
REMARK  status: ('A' for Active; 'I' for Inactive)
REMARK    1  A    between atoms: C_2  and  C_11
REMARK    2  A    between atoms: N_3  and  C_4
REMARK    3  A    between atoms: C_17  and  N_18
REMARK    4  A    between atoms: C_19  and  C_21
REMARK                            x       y       z     vdW  Elec       q    Type
REMARK                         _______ _______ _______ _____ _____    ______ ____
ROOT
ATOM      1  C   UNL     1      -1.884  12.748  20.854  0.00  0.00    +0.000 A 
ATOM      2  C   UNL     1      -2.549  13.861  21.388  0.00  0.00    +0.000 A 
ATOM      3  C   UNL     1      -2.531  14.089  22.759  0.00  0.00    +0.000 A 
ATOM      4  F   UNL     1      -3.169  15.153  23.259  0.00  0.00    +0.000 F 
ATOM      5  C   UNL     1      -1.866  13.228  23.620  0.00  0.00    +0.000 A 
ATOM      6  C   UNL     1      -1.236  12.098  23.100  0.00  0.00    +0.000 A 
ATOM      7  C   UNL     1      -1.259  11.827  21.722  0.00  0.00    +0.000 A 
ENDROOT
BRANCH   1   9
ATOM      8  O   UNL     1      -1.138  13.113  18.661  0.00  0.00    +0.000 OA
ATOM      9  C   UNL     1      -1.927  12.501  19.385  0.00  0.00    +0.000 C 
ATOM     10  N   UNL     1      -2.930  11.655  18.943  0.00  0.00    +0.000 N 
ATOM     11  H   UNL     1      -3.670  11.432  19.595  0.00  0.00    +0.000 HD
BRANCH  10  12
ATOM     12  C   UNL     1      -3.144  11.257  17.607  0.00  0.00    +0.000 A 
ATOM     13  C   UNL     1      -4.229  11.692  16.841  0.00  0.00    +0.000 A 
ATOM     14  C   UNL     1      -4.413  11.218  15.539  0.00  0.00    +0.000 A 
ATOM     15  C   UNL     1      -3.508  10.309  15.000  0.00  0.00    +0.000 A 
ATOM     16 CL   UNL     1      -3.759   9.689  13.415  0.00  0.00    +0.000 Cl
ATOM     17  C   UNL     1      -2.401   9.898  15.739  0.00  0.00    +0.000 A 
ATOM     18  C   UNL     1      -2.212  10.383  17.036  0.00  0.00    +0.000 A 
ENDBRANCH  10  12
ENDBRANCH   1   9
BRANCH   7  19
ATOM     19  N   UNL     1      -0.651  10.643  21.221  0.00  0.00    +0.000 N 
ATOM     20  C   UNL     1       0.637  10.619  20.690  0.00  0.00    +0.000 C 
ATOM     21  O   UNL     1       1.333  11.636  20.648  0.00  0.00    +0.000 OA
ATOM     22  H   UNL     1      -0.971   9.764  21.630  0.00  0.00    +0.000 HD
BRANCH  20  23
ATOM     23  C   UNL     1       1.144   9.320  20.263  0.00  0.00    +0.000 A 
ATOM     24  S   UNL     1       1.101   8.062  21.433  0.00  0.00    +0.000 S 
ATOM     25  C   UNL     1       1.749   6.901  20.358  0.00  0.00    +0.000 A 
ATOM     26  C   UNL     1       1.968   5.539  20.642  0.00  0.00    +0.000 A 
ATOM     27  C   UNL     1       2.489   4.715  19.647  0.00  0.00    +0.000 A 
ATOM     28  C   UNL     1       2.811   5.239  18.405  0.00  0.00    +0.000 A 
ATOM     29  C   UNL     1       2.610   6.599  18.135  0.00  0.00    +0.000 A 
ATOM     30  C   UNL     1       2.050   7.461  19.117  0.00  0.00    +0.000 A 
ATOM     31  C   UNL     1       1.708   8.868  19.085  0.00  0.00    +0.000 A 
ATOM     32 CL   UNL     1       2.008   9.827  17.686  0.00  0.00    +0.000 Cl
ENDBRANCH  20  23
ENDBRANCH   7  19
TORSDOF 4
ENDMDL
MODEL 5
REMARK VINA RESULT:      -7.7      3.996      5.994
REMARK  Name = 
REMARK  4 active torsions:
REMARK  status: ('A' for Active; 'I' for Inactive)
REMARK    1  A    between atoms: C_2  and  C_11
REMARK    2  A    between atoms: N_3  and  C_4
REMARK    3  A    between atoms: C_17  and  N_18
REMARK    4  A    between atoms: C_19  and  C_21
REMARK                            x       y       z     vdW  Elec       q    Type
REMARK                         _______ _______ _______ _____ _____    ______ ____
ROOT
ATOM      1  C   UNL     1      -0.392  10.202  20.641  0.00  0.00    +0.000 A 
ATOM      2  C   UNL     1      -1.284  10.772  21.560  0.00  0.00    +0.000 A 
ATOM      3  C   UNL     1      -1.066  10.619  22.925  0.00  0.00    +0.000 A 
ATOM      4  F   UNL     1      -1.923  11.165  23.794  0.00  0.00    +0.000 F 
ATOM      5  C   UNL     1       0.022   9.903  23.401  0.00  0.00    +0.000 A 
ATOM      6  C   UNL     1       0.892   9.301  22.491  0.00  0.00    +0.000 A 
ATOM      7  C   UNL     1       0.684   9.416  21.107  0.00  0.00    +0.000 A 
ENDROOT
BRANCH   1   9
ATOM      8  O   UNL     1       0.295  10.670  18.448  0.00  0.00    +0.000 OA
ATOM      9  C   UNL     1      -0.646  10.355  19.179  0.00  0.00    +0.000 C 
ATOM     10  N   UNL     1      -1.963  10.214  18.777  0.00  0.00    +0.000 N 
ATOM     11  H   UNL     1      -2.672  10.223  19.498  0.00  0.00    +0.000 HD
BRANCH  10  12
ATOM     12  C   UNL     1      -2.432  10.290  17.449  0.00  0.00    +0.000 A 
ATOM     13  C   UNL     1      -3.383  11.220  17.022  0.00  0.00    +0.000 A 
ATOM     14  C   UNL     1      -3.845  11.207  15.702  0.00  0.00    +0.000 A 
ATOM     15  C   UNL     1      -3.353  10.264  14.807  0.00  0.00    +0.000 A 
ATOM     16 CL   UNL     1      -3.954  10.216  13.196  0.00  0.00    +0.000 Cl
ATOM     17  C   UNL     1      -2.376   9.355  15.209  0.00  0.00    +0.000 A 
ATOM     18  C   UNL     1      -1.906   9.379  16.526  0.00  0.00    +0.000 A 
ENDBRANCH  10  12
ENDBRANCH   1   9
BRANCH   7  19
ATOM     19  N   UNL     1       1.555   8.753  20.200  0.00  0.00    +0.000 N 
ATOM     20  C   UNL     1       1.799   7.382  20.247  0.00  0.00    +0.000 C 
ATOM     21  O   UNL     1       1.245   6.661  21.080  0.00  0.00    +0.000 OA
ATOM     22  H   UNL     1       1.659   9.183  19.280  0.00  0.00    +0.000 HD
BRANCH  20  23
ATOM     23  C   UNL     1       2.677   6.838  19.219  0.00  0.00    +0.000 A 
ATOM     24  S   UNL     1       3.269   5.247  19.486  0.00  0.00    +0.000 S 
ATOM     25  C   UNL     1       4.132   5.209  18.010  0.00  0.00    +0.000 A 
ATOM     26  C   UNL     1       4.873   4.122  17.509  0.00  0.00    +0.000 A 
ATOM     27  C   UNL     1       5.507   4.245  16.275  0.00  0.00    +0.000 A 
ATOM     28  C   UNL     1       5.430   5.434  15.566  0.00  0.00    +0.000 A 
ATOM     29  C   UNL     1       4.709   6.520  16.079  0.00  0.00    +0.000 A 
ATOM     30  C   UNL     1       4.023   6.417  17.320  0.00  0.00    +0.000 A 
ATOM     31  C   UNL     1       3.189   7.355  18.043  0.00  0.00    +0.000 A 
ATOM     32 CL   UNL     1       2.909   8.945  17.444  0.00  0.00    +0.000 Cl
ENDBRANCH  20  23
ENDBRANCH   7  19
TORSDOF 4
ENDMDL
MODEL 6
REMARK VINA RESULT:      -7.3      5.226      8.275
REMARK  Name = 
REMARK  4 active torsions:
REMARK  status: ('A' for Active; 'I' for Inactive)
REMARK    1  A    between atoms: C_2  and  C_11
REMARK    2  A    between atoms: N_3  and  C_4
REMARK    3  A    between atoms: C_17  and  N_18
REMARK    4  A    between atoms: C_19  and  C_21
REMARK                            x       y       z     vdW  Elec       q    Type
REMARK                         _______ _______ _______ _____ _____    ______ ____
ROOT
ATOM      1  C   UNL     1      -1.843  12.541  20.500  0.00  0.00    +0.000 A 
ATOM      2  C   UNL     1      -2.591  13.585  21.063  0.00  0.00    +0.000 A 
ATOM      3  C   UNL     1      -2.536  13.818  22.432  0.00  0.00    +0.000 A 
ATOM      4  F   UNL     1      -3.254  14.815  22.960  0.00  0.00    +0.000 F 
ATOM      5  C   UNL     1      -1.753  13.030  23.263  0.00  0.00    +0.000 A 
ATOM      6  C   UNL     1      -1.037  11.966  22.715  0.00  0.00    +0.000 A 
ATOM      7  C   UNL     1      -1.093  11.689  21.339  0.00  0.00    +0.000 A 
ENDROOT
BRANCH   1   9
ATOM      8  O   UNL     1      -1.240  12.977  18.276  0.00  0.00    +0.000 OA
ATOM      9  C   UNL     1      -1.925  12.286  19.033  0.00  0.00    +0.000 C 
ATOM     10  N   UNL     1      -2.849  11.335  18.636  0.00  0.00    +0.000 N 
ATOM     11  H   UNL     1      -3.530  11.035  19.321  0.00  0.00    +0.000 HD
BRANCH  10  12
ATOM     12  C   UNL     1      -3.079  10.912  17.311  0.00  0.00    +0.000 A 
ATOM     13  C   UNL     1      -2.279   9.974  16.653  0.00  0.00    +0.000 A 
ATOM     14  C   UNL     1      -2.530   9.638  15.320  0.00  0.00    +0.000 A 
ATOM     15  C   UNL     1      -3.585  10.239  14.642  0.00  0.00    +0.000 A 
ATOM     16 CL   UNL     1      -3.866   9.862  12.988  0.00  0.00    +0.000 Cl
ATOM     17  C   UNL     1      -4.414  11.147  15.297  0.00  0.00    +0.000 A 
ATOM     18  C   UNL     1      -4.170  11.472  16.634  0.00  0.00    +0.000 A 
ENDBRANCH  10  12
ENDBRANCH   1   9
BRANCH   7  19
ATOM     19  N   UNL     1      -0.393  10.570  20.811  0.00  0.00    +0.000 N 
ATOM     20  C   UNL     1       0.821  10.684  20.135  0.00  0.00    +0.000 C 
ATOM     21  O   UNL     1       1.366  11.779  19.978  0.00  0.00    +0.000 OA
ATOM     22  H   UNL     1      -0.546   9.678  21.284  0.00  0.00    +0.000 HD
BRANCH  20  23
ATOM     23  C   UNL     1       1.444   9.442  19.696  0.00  0.00    +0.000 A 
ATOM     24  S   UNL     1       2.134   9.451  18.122  0.00  0.00    +0.000 S 
ATOM     25  C   UNL     1       2.682   7.835  18.241  0.00  0.00    +0.000 A 
ATOM     26  C   UNL     1       3.422   7.136  17.267  0.00  0.00    +0.000 A 
ATOM     27  C   UNL     1       3.810   5.823  17.526  0.00  0.00    +0.000 A 
ATOM     28  C   UNL     1       3.447   5.209  18.715  0.00  0.00    +0.000 A 
ATOM     29  C   UNL     1       2.693   5.903  19.670  0.00  0.00    +0.000 A 
ATOM     30  C   UNL     1       2.308   7.254  19.452  0.00  0.00    +0.000 A 
ATOM     31  C   UNL     1       1.578   8.195  20.277  0.00  0.00    +0.000 A 
ATOM     32 CL   UNL     1       0.956   7.736  21.816  0.00  0.00    +0.000 Cl
ENDBRANCH  20  23
ENDBRANCH   7  19
TORSDOF 4
ENDMDL
MODEL 7
REMARK VINA RESULT:      -7.3      6.902     10.243
REMARK  Name = 
REMARK  4 active torsions:
REMARK  status: ('A' for Active; 'I' for Inactive)
REMARK    1  A    between atoms: C_2  and  C_11
REMARK    2  A    between atoms: N_3  and  C_4
REMARK    3  A    between atoms: C_17  and  N_18
REMARK    4  A    between atoms: C_19  and  C_21
REMARK                            x       y       z     vdW  Elec       q    Type
REMARK                         _______ _______ _______ _____ _____    ______ ____
ROOT
ATOM      1  C   UNL     1      -1.585  14.753  23.298  0.00  0.00    +0.000 A 
ATOM      2  C   UNL     1      -2.376  15.732  23.916  0.00  0.00    +0.000 A 
ATOM      3  C   UNL     1      -3.490  15.357  24.659  0.00  0.00    +0.000 A 
ATOM      4  F   UNL     1      -4.239  16.298  25.244  0.00  0.00    +0.000 F 
ATOM      5  C   UNL     1      -3.841  14.023  24.800  0.00  0.00    +0.000 A 
ATOM      6  C   UNL     1      -3.081  13.047  24.155  0.00  0.00    +0.000 A 
ATOM      7  C   UNL     1      -1.966  13.396  23.376  0.00  0.00    +0.000 A 
ENDROOT
BRANCH   1   9
ATOM      8  O   UNL     1       0.681  15.306  23.054  0.00  0.00    +0.000 OA
ATOM      9  C   UNL     1      -0.405  15.167  22.486  0.00  0.00    +0.000 C 
ATOM     10  N   UNL     1      -0.657  15.451  21.155  0.00  0.00    +0.000 N 
ATOM     11  H   UNL     1      -1.624  15.558  20.878  0.00  0.00    +0.000 HD
BRANCH  10  12
ATOM     12  C   UNL     1       0.305  15.832  20.197  0.00  0.00    +0.000 A 
ATOM     13  C   UNL     1       0.556  17.162  19.847  0.00  0.00    +0.000 A 
ATOM     14  C   UNL     1       1.487  17.469  18.850  0.00  0.00    +0.000 A 
ATOM     15  C   UNL     1       2.171  16.445  18.203  0.00  0.00    +0.000 A 
ATOM     16 CL   UNL     1       3.282  16.818  16.944  0.00  0.00    +0.000 Cl
ATOM     17  C   UNL     1       1.959  15.118  18.570  0.00  0.00    +0.000 A 
ATOM     18  C   UNL     1       1.037  14.813  19.576  0.00  0.00    +0.000 A 
ENDBRANCH  10  12
ENDBRANCH   1   9
BRANCH   7  19
ATOM     19  N   UNL     1      -1.235  12.388  22.689  0.00  0.00    +0.000 N 
ATOM     20  C   UNL     1      -1.484  12.043  21.363  0.00  0.00    +0.000 C 
ATOM     21  O   UNL     1      -2.351  12.619  20.701  0.00  0.00    +0.000 OA
ATOM     22  H   UNL     1      -0.280  12.227  23.011  0.00  0.00    +0.000 HD
BRANCH  20  23
ATOM     23  C   UNL     1      -0.618  11.026  20.779  0.00  0.00    +0.000 A 
ATOM     24  S   UNL     1      -0.263  11.196  19.105  0.00  0.00    +0.000 S 
ATOM     25  C   UNL     1       0.743   9.814  19.073  0.00  0.00    +0.000 A 
ATOM     26  C   UNL     1       1.461   9.336  17.959  0.00  0.00    +0.000 A 
ATOM     27  C   UNL     1       2.255   8.200  18.102  0.00  0.00    +0.000 A 
ATOM     28  C   UNL     1       2.312   7.537  19.318  0.00  0.00    +0.000 A 
ATOM     29  C   UNL     1       1.579   8.004  20.416  0.00  0.00    +0.000 A 
ATOM     30  C   UNL     1       0.784   9.179  20.314  0.00  0.00    +0.000 A 
ATOM     31  C   UNL     1      -0.023   9.886  21.287  0.00  0.00    +0.000 A 
ATOM     32 CL   UNL     1      -0.189   9.305  22.900  0.00  0.00    +0.000 Cl
ENDBRANCH  20  23
ENDBRANCH   7  19
TORSDOF 4
ENDMDL
MODEL 8
REMARK VINA RESULT:      -7.2      4.839      7.356
REMARK  Name = 
REMARK  4 active torsions:
REMARK  status: ('A' for Active; 'I' for Inactive)
REMARK    1  A    between atoms: C_2  and  C_11
REMARK    2  A    between atoms: N_3  and  C_4
REMARK    3  A    between atoms: C_17  and  N_18
REMARK    4  A    between atoms: C_19  and  C_21
REMARK                            x       y       z     vdW  Elec       q    Type
REMARK                         _______ _______ _______ _____ _____    ______ ____
ROOT
ATOM      1  C   UNL     1      -1.308  11.583  20.327  0.00  0.00    +0.000 A 
ATOM      2  C   UNL     1      -2.239  12.343  21.050  0.00  0.00    +0.000 A 
ATOM      3  C   UNL     1      -2.122  12.454  22.431  0.00  0.00    +0.000 A 
ATOM      4  F   UNL     1      -3.016  13.179  23.112  0.00  0.00    +0.000 F 
ATOM      5  C   UNL     1      -1.096  11.820  23.116  0.00  0.00    +0.000 A 
ATOM      6  C   UNL     1      -0.189  11.031  22.408  0.00  0.00    +0.000 A 
ATOM      7  C   UNL     1      -0.297  10.879  21.016  0.00  0.00    +0.000 A 
ENDROOT
BRANCH   1   9
ATOM      8  O   UNL     1      -0.619  11.999  18.124  0.00  0.00    +0.000 OA
ATOM      9  C   UNL     1      -1.454  11.454  18.849  0.00  0.00    +0.000 C 
ATOM     10  N   UNL     1      -2.589  10.793  18.410  0.00  0.00    +0.000 N 
ATOM     11  H   UNL     1      -3.323  10.630  19.087  0.00  0.00    +0.000 HD
BRANCH  10  12
ATOM     12  C   UNL     1      -2.921  10.530  17.065  0.00  0.00    +0.000 A 
ATOM     13  C   UNL     1      -2.199   9.651  16.254  0.00  0.00    +0.000 A 
ATOM     14  C   UNL     1      -2.549   9.475  14.912  0.00  0.00    +0.000 A 
ATOM     15  C   UNL     1      -3.626  10.177  14.380  0.00  0.00    +0.000 A 
ATOM     16 CL   UNL     1      -4.029   9.998  12.718  0.00  0.00    +0.000 Cl
ATOM     17  C   UNL     1      -4.378  11.027  15.188  0.00  0.00    +0.000 A 
ATOM     18  C   UNL     1      -4.034  11.192  16.533  0.00  0.00    +0.000 A 
ENDBRANCH  10  12
ENDBRANCH   1   9
BRANCH   7  19
ATOM     19  N   UNL     1       0.610  10.032  20.322  0.00  0.00    +0.000 N 
ATOM     20  C   UNL     1       0.733   8.670  20.591  0.00  0.00    +0.000 C 
ATOM     21  O   UNL     1       0.034   8.119  21.445  0.00  0.00    +0.000 OA
ATOM     22  H   UNL     1       0.848  10.311  19.370  0.00  0.00    +0.000 HD
BRANCH  20  23
ATOM     23  C   UNL     1       1.669   7.921  19.762  0.00  0.00    +0.000 A 
ATOM     24  S   UNL     1       2.268   8.730  18.368  0.00  0.00    +0.000 S 
ATOM     25  C   UNL     1       3.259   7.415  17.906  0.00  0.00    +0.000 A 
ATOM     26  C   UNL     1       4.131   7.382  16.800  0.00  0.00    +0.000 A 
ATOM     27  C   UNL     1       4.888   6.236  16.568  0.00  0.00    +0.000 A 
ATOM     28  C   UNL     1       4.761   5.135  17.402  0.00  0.00    +0.000 A 
ATOM     29  C   UNL     1       3.876   5.166  18.488  0.00  0.00    +0.000 A 
ATOM     30  C   UNL     1       3.113   6.332  18.772  0.00  0.00    +0.000 A 
ATOM     31  C   UNL     1       2.175   6.637  19.833  0.00  0.00    +0.000 A 
ATOM     32 CL   UNL     1       1.770   5.466  21.029  0.00  0.00    +0.000 Cl
ENDBRANCH  20  23
ENDBRANCH   7  19
TORSDOF 4
ENDMDL
MODEL 9
REMARK VINA RESULT:      -7.2      4.413      6.941
REMARK  Name = 
REMARK  4 active torsions:
REMARK  status: ('A' for Active; 'I' for Inactive)
REMARK    1  A    between atoms: C_2  and  C_11
REMARK    2  A    between atoms: N_3  and  C_4
REMARK    3  A    between atoms: C_17  and  N_18
REMARK    4  A    between atoms: C_19  and  C_21
REMARK                            x       y       z     vdW  Elec       q    Type
REMARK                         _______ _______ _______ _____ _____    ______ ____
ROOT
ATOM      1  C   UNL     1      -0.960  10.578  20.626  0.00  0.00    +0.000 A 
ATOM      2  C   UNL     1      -1.534  11.640  21.340  0.00  0.00    +0.000 A 
ATOM      3  C   UNL     1      -1.430  11.680  22.726  0.00  0.00    +0.000 A 
ATOM      4  F   UNL     1      -1.982  12.697  23.398  0.00  0.00    +0.000 F 
ATOM      5  C   UNL     1      -0.769  10.681  23.425  0.00  0.00    +0.000 A 
ATOM      6  C   UNL     1      -0.230   9.602  22.724  0.00  0.00    +0.000 A 
ATOM      7  C   UNL     1      -0.341   9.520  21.326  0.00  0.00    +0.000 A 
ENDROOT
BRANCH   1   9
ATOM      8  O   UNL     1      -0.069  10.544  18.457  0.00  0.00    +0.000 OA
ATOM      9  C   UNL     1      -1.095  10.533  19.142  0.00  0.00    +0.000 C 
ATOM     10  N   UNL     1      -2.388  10.574  18.650  0.00  0.00    +0.000 N 
ATOM     11  H   UNL     1      -3.122  10.832  19.297  0.00  0.00    +0.000 HD
BRANCH  10  12
ATOM     12  C   UNL     1      -2.756  10.515  17.291  0.00  0.00    +0.000 A 
ATOM     13  C   UNL     1      -3.757  11.314  16.730  0.00  0.00    +0.000 A 
ATOM     14  C   UNL     1      -4.109  11.169  15.385  0.00  0.00    +0.000 A 
ATOM     15  C   UNL     1      -3.459  10.225  14.597  0.00  0.00    +0.000 A 
ATOM     16 CL   UNL     1      -3.924  10.012  12.955  0.00  0.00    +0.000 Cl
ATOM     17  C   UNL     1      -2.433   9.450  15.134  0.00  0.00    +0.000 A 
ATOM     18  C   UNL     1      -2.073   9.605  16.475  0.00  0.00    +0.000 A 
ENDBRANCH  10  12
ENDBRANCH   1   9
BRANCH   7  19
ATOM     19  N   UNL     1       0.174   8.387  20.638  0.00  0.00    +0.000 N 
ATOM     20  C   UNL     1       1.511   8.001  20.708  0.00  0.00    +0.000 C 
ATOM     21  O   UNL     1       2.322   8.621  21.399  0.00  0.00    +0.000 OA
ATOM     22  H   UNL     1      -0.489   7.634  20.452  0.00  0.00    +0.000 HD
BRANCH  20  23
ATOM     23  C   UNL     1       1.879   6.787  19.989  0.00  0.00    +0.000 A 
ATOM     24  S   UNL     1       1.498   5.299  20.759  0.00  0.00    +0.000 S 
ATOM     25  C   UNL     1       2.112   4.357  19.470  0.00  0.00    +0.000 A 
ATOM     26  C   UNL     1       2.093   2.951  19.388  0.00  0.00    +0.000 A 
ATOM     27  C   UNL     1       2.621   2.332  18.257  0.00  0.00    +0.000 A 
ATOM     28  C   UNL     1       3.180   3.093  17.241  0.00  0.00    +0.000 A 
ATOM     29  C   UNL     1       3.215   4.490  17.339  0.00  0.00    +0.000 A 
ATOM     30  C   UNL     1       2.657   5.155  18.464  0.00  0.00    +0.000 A 
ATOM     31  C   UNL     1       2.527   6.561  18.789  0.00  0.00    +0.000 A 
ATOM     32 CL   UNL     1       3.149   7.779  17.742  0.00  0.00    +0.000 Cl
ENDBRANCH  20  23
ENDBRANCH   7  19
TORSDOF 4
ENDMDL
