MODEL 1
REMARK VINA RESULT:      -9.3      0.000      0.000
REMARK  Name = 
REMARK  4 active torsions:
REMARK  status: ('A' for Active; 'I' for Inactive)
REMARK    1  A    between atoms: C_1  and  C_2
REMARK    2  A    between atoms: C_7  and  N_8
REMARK    3  A    between atoms: C_10  and  C_11
REMARK    4  A    between atoms: C_11  and  C_12
REMARK                            x       y       z     vdW  Elec       q    Type
REMARK                         _______ _______ _______ _____ _____    ______ ____
ROOT
ATOM      1  N   UNL     1       4.305   4.805  18.169  0.00  0.00    +0.000 N 
ATOM      2  N   UNL     1       3.992   5.810  19.012  0.00  0.00    +0.000 NA
ATOM      3  C   UNL     1       2.847   5.411  19.596  0.00  0.00    +0.000 A 
ATOM      4  C   UNL     1       2.464   4.113  19.163  0.00  0.00    +0.000 A 
ATOM      5  C   UNL     1       1.464   3.169  19.430  0.00  0.00    +0.000 A 
ATOM      6  N   UNL     1       0.480   3.317  20.397  0.00  0.00    +0.000 N 
ATOM      7  N   UNL     1       1.453   2.023  18.719  0.00  0.00    +0.000 NA
ATOM      8  C   UNL     1       2.408   1.833  17.787  0.00  0.00    +0.000 A 
ATOM      9  N   UNL     1       3.428   2.647  17.467  0.00  0.00    +0.000 NA
ATOM     10  C   UNL     1       3.404   3.772  18.203  0.00  0.00    +0.000 A 
ATOM     11  H   UNL     1       0.146   4.263  20.528  0.00  0.00    +0.000 HD
ATOM     12  H   UNL     1      -0.246   2.623  20.262  0.00  0.00    +0.000 HD
ENDROOT
BRANCH   1  19
ATOM     13  C   UNL     1       8.045   9.447  17.425  0.00  0.00    +0.000 C 
ATOM     14  C   UNL     1       8.154   8.175  18.226  0.00  0.00    +0.000 C 
ATOM     15  O   UNL     1       9.051   8.056  19.062  0.00  0.00    +0.000 OA
ATOM     16  N   UNL     1       7.226   7.165  17.964  0.00  0.00    +0.000 N 
ATOM     17  C   UNL     1       7.219   6.021  18.873  0.00  0.00    +0.000 C 
ATOM     18  C   UNL     1       6.801   4.731  18.175  0.00  0.00    +0.000 C 
ATOM     19  C   UNL     1       5.514   4.873  17.352  0.00  0.00    +0.000 C 
ATOM     20  C   UNL     1       5.568   6.117  16.458  0.00  0.00    +0.000 C 
ATOM     21  C   UNL     1       5.994   7.377  17.204  0.00  0.00    +0.000 C 
ENDBRANCH   1  19
BRANCH   3  22
ATOM     22  C   UNL     1       2.152   6.318  20.570  0.00  0.00    +0.000 C 
BRANCH  22  23
ATOM     23  C   UNL     1       1.803   7.620  19.849  0.00  0.00    +0.000 A 
ATOM     24  C   UNL     1       2.180   7.790  18.499  0.00  0.00    +0.000 A 
ATOM     25  C   UNL     1       1.893   8.956  17.800  0.00  0.00    +0.000 A 
ATOM     26  C   UNL     1       1.230   9.994  18.435  0.00  0.00    +0.000 A 
ATOM     27  C   UNL     1       0.857   9.886  19.778  0.00  0.00    +0.000 A 
ATOM     28  C   UNL     1       0.177  10.957  20.381  0.00  0.00    +0.000 A 
ATOM     29  C   UNL     1      -0.188  10.911  21.722  0.00  0.00    +0.000 A 
ATOM     30  C   UNL     1       0.160   9.806  22.488  0.00  0.00    +0.000 A 
ATOM     31  C   UNL     1       0.836   8.729  21.899  0.00  0.00    +0.000 A 
ATOM     32  C   UNL     1       1.172   8.714  20.522  0.00  0.00    +0.000 A 
ENDBRANCH  22  23
ENDBRANCH   3  22
TORSDOF 3
ENDMDL
MODEL 2
REMARK VINA RESULT:      -8.5      6.154     10.112
REMARK  Name = 
REMARK  4 active torsions:
REMARK  status: ('A' for Active; 'I' for Inactive)
REMARK    1  A    between atoms: C_1  and  C_2
REMARK    2  A    between atoms: C_7  and  N_8
REMARK    3  A    between atoms: C_10  and  C_11
REMARK    4  A    between atoms: C_11  and  C_12
REMARK                            x       y       z     vdW  Elec       q    Type
REMARK                         _______ _______ _______ _____ _____    ______ ____
ROOT
ATOM      1  N   UNL     1      -3.516  12.814  20.235  0.00  0.00    +0.000 N 
ATOM      2  N   UNL     1      -2.173  12.865  20.362  0.00  0.00    +0.000 NA
ATOM      3  C   UNL     1      -1.712  12.155  19.316  0.00  0.00    +0.000 A 
ATOM      4  C   UNL     1      -2.771  11.700  18.485  0.00  0.00    +0.000 A 
ATOM      5  C   UNL     1      -2.936  11.006  17.280  0.00  0.00    +0.000 A 
ATOM      6  N   UNL     1      -1.895  10.580  16.468  0.00  0.00    +0.000 N 
ATOM      7  N   UNL     1      -4.189  10.739  16.856  0.00  0.00    +0.000 NA
ATOM      8  C   UNL     1      -5.226  11.158  17.607  0.00  0.00    +0.000 A 
ATOM      9  N   UNL     1      -5.191  11.855  18.755  0.00  0.00    +0.000 NA
ATOM     10  C   UNL     1      -3.926  12.103  19.137  0.00  0.00    +0.000 A 
ATOM     11  H   UNL     1      -1.061  10.284  16.959  0.00  0.00    +0.000 HD
ATOM     12  H   UNL     1      -2.240   9.922  15.778  0.00  0.00    +0.000 HD
ENDROOT
BRANCH   1  19
ATOM     13  C   UNL     1      -1.992  15.328  25.474  0.00  0.00    +0.000 C 
ATOM     14  C   UNL     1      -2.328  15.915  24.127  0.00  0.00    +0.000 C 
ATOM     15  O   UNL     1      -2.094  17.104  23.905  0.00  0.00    +0.000 OA
ATOM     16  N   UNL     1      -2.916  15.071  23.183  0.00  0.00    +0.000 N 
ATOM     17  C   UNL     1      -3.059  15.593  21.826  0.00  0.00    +0.000 C 
ATOM     18  C   UNL     1      -4.280  15.023  21.113  0.00  0.00    +0.000 C 
ATOM     19  C   UNL     1      -4.376  13.494  21.198  0.00  0.00    +0.000 C 
ATOM     20  C   UNL     1      -4.170  13.010  22.638  0.00  0.00    +0.000 C 
ATOM     21  C   UNL     1      -2.938  13.614  23.305  0.00  0.00    +0.000 C 
ENDBRANCH   1  19
BRANCH   3  22
ATOM     22  C   UNL     1      -0.235  11.937  19.158  0.00  0.00    +0.000 C 
BRANCH  22  23
ATOM     23  C   UNL     1       0.165  10.722  19.994  0.00  0.00    +0.000 A 
ATOM     24  C   UNL     1      -0.222  10.655  21.351  0.00  0.00    +0.000 A 
ATOM     25  C   UNL     1       0.122   9.576  22.157  0.00  0.00    +0.000 A 
ATOM     26  C   UNL     1       0.873   8.537  21.633  0.00  0.00    +0.000 A 
ATOM     27  C   UNL     1       1.304   8.567  20.303  0.00  0.00    +0.000 A 
ATOM     28  C   UNL     1       2.055   7.488  19.808  0.00  0.00    +0.000 A 
ATOM     29  C   UNL     1       2.531   7.486  18.502  0.00  0.00    +0.000 A 
ATOM     30  C   UNL     1       2.295   8.584  17.686  0.00  0.00    +0.000 A 
ATOM     31  C   UNL     1       1.544   9.666  18.164  0.00  0.00    +0.000 A 
ATOM     32  C   UNL     1       0.992   9.679  19.469  0.00  0.00    +0.000 A 
ENDBRANCH  22  23
ENDBRANCH   3  22
TORSDOF 3
ENDMDL
MODEL 3
REMARK VINA RESULT:      -8.3      5.832     10.282
REMARK  Name = 
REMARK  4 active torsions:
REMARK  status: ('A' for Active; 'I' for Inactive)
REMARK    1  A    between atoms: C_1  and  C_2
REMARK    2  A    between atoms: C_7  and  N_8
REMARK    3  A    between atoms: C_10  and  C_11
REMARK    4  A    between atoms: C_11  and  C_12
REMARK                            x       y       z     vdW  Elec       q    Type
REMARK                         _______ _______ _______ _____ _____    ______ ____
ROOT
ATOM      1  N   UNL     1      -0.787  14.280  20.541  0.00  0.00    +0.000 N 
ATOM      2  N   UNL     1      -1.224  13.042  20.233  0.00  0.00    +0.000 NA
ATOM      3  C   UNL     1      -0.336  12.589  19.329  0.00  0.00    +0.000 A 
ATOM      4  C   UNL     1       0.708  13.527  19.107  0.00  0.00    +0.000 A 
ATOM      5  C   UNL     1       1.899  13.618  18.376  0.00  0.00    +0.000 A 
ATOM      6  N   UNL     1       2.431  12.593  17.606  0.00  0.00    +0.000 N 
ATOM      7  N   UNL     1       2.598  14.770  18.424  0.00  0.00    +0.000 NA
ATOM      8  C   UNL     1       2.125  15.780  19.181  0.00  0.00    +0.000 A 
ATOM      9  N   UNL     1       1.020  15.797  19.945  0.00  0.00    +0.000 NA
ATOM     10  C   UNL     1       0.358  14.629  19.871  0.00  0.00    +0.000 A 
ATOM     11  H   UNL     1       1.750  12.009  17.139  0.00  0.00    +0.000 HD
ATOM     12  H   UNL     1       3.165  12.954  17.007  0.00  0.00    +0.000 HD
ENDROOT
BRANCH   1  19
ATOM     13  C   UNL     1      -5.932  13.043  23.383  0.00  0.00    +0.000 C 
ATOM     14  C   UNL     1      -4.493  13.018  23.833  0.00  0.00    +0.000 C 
ATOM     15  O   UNL     1      -4.198  12.480  24.901  0.00  0.00    +0.000 OA
ATOM     16  N   UNL     1      -3.549  13.634  23.010  0.00  0.00    +0.000 N 
ATOM     17  C   UNL     1      -2.143  13.437  23.354  0.00  0.00    +0.000 C 
ATOM     18  C   UNL     1      -1.279  14.632  22.963  0.00  0.00    +0.000 C 
ATOM     19  C   UNL     1      -1.501  15.096  21.518  0.00  0.00    +0.000 C 
ATOM     20  C   UNL     1      -2.996  15.236  21.209  0.00  0.00    +0.000 C 
ATOM     21  C   UNL     1      -3.813  14.016  21.623  0.00  0.00    +0.000 C 
ENDBRANCH   1  19
BRANCH   3  22
ATOM     22  C   UNL     1      -0.536  11.240  18.700  0.00  0.00    +0.000 C 
BRANCH  22  23
ATOM     23  C   UNL     1       0.027  10.180  19.646  0.00  0.00    +0.000 A 
ATOM     24  C   UNL     1      -0.359  10.184  21.005  0.00  0.00    +0.000 A 
ATOM     25  C   UNL     1       0.129   9.247  21.907  0.00  0.00    +0.000 A 
ATOM     26  C   UNL     1       1.030   8.285  21.481  0.00  0.00    +0.000 A 
ATOM     27  C   UNL     1       1.465   8.254  20.153  0.00  0.00    +0.000 A 
ATOM     28  C   UNL     1       2.371   7.255  19.759  0.00  0.00    +0.000 A 
ATOM     29  C   UNL     1       2.856   7.200  18.458  0.00  0.00    +0.000 A 
ATOM     30  C   UNL     1       2.471   8.170  17.542  0.00  0.00    +0.000 A 
ATOM     31  C   UNL     1       1.565   9.171  17.919  0.00  0.00    +0.000 A 
ATOM     32  C   UNL     1       1.003   9.224  19.219  0.00  0.00    +0.000 A 
ENDBRANCH  22  23
ENDBRANCH   3  22
TORSDOF 3
ENDMDL
MODEL 4
REMARK VINA RESULT:      -8.3      5.864     10.125
REMARK  Name = 
REMARK  4 active torsions:
REMARK  status: ('A' for Active; 'I' for Inactive)
REMARK    1  A    between atoms: C_1  and  C_2
REMARK    2  A    between atoms: C_7  and  N_8
REMARK    3  A    between atoms: C_10  and  C_11
REMARK    4  A    between atoms: C_11  and  C_12
REMARK                            x       y       z     vdW  Elec       q    Type
REMARK                         _______ _______ _______ _____ _____    ______ ____
ROOT
ATOM      1  N   UNL     1      -0.559  14.838  19.796  0.00  0.00    +0.000 N 
ATOM      2  N   UNL     1      -1.151  13.634  19.651  0.00  0.00    +0.000 NA
ATOM      3  C   UNL     1      -0.273  12.915  18.928  0.00  0.00    +0.000 A 
ATOM      4  C   UNL     1       0.914  13.650  18.666  0.00  0.00    +0.000 A 
ATOM      5  C   UNL     1       2.159  13.452  18.055  0.00  0.00    +0.000 A 
ATOM      6  N   UNL     1       2.591  12.245  17.521  0.00  0.00    +0.000 N 
ATOM      7  N   UNL     1       3.017  14.490  17.987  0.00  0.00    +0.000 NA
ATOM      8  C   UNL     1       2.642  15.672  18.516  0.00  0.00    +0.000 A 
ATOM      9  N   UNL     1       1.495  15.970  19.150  0.00  0.00    +0.000 NA
ATOM     10  C   UNL     1       0.674  14.907  19.199  0.00  0.00    +0.000 A 
ATOM     11  H   UNL     1       1.868  11.684  17.089  0.00  0.00    +0.000 HD
ATOM     12  H   UNL     1       3.415  12.394  16.950  0.00  0.00    +0.000 HD
ENDROOT
BRANCH   1  19
ATOM     13  C   UNL     1      -2.851  14.612  25.344  0.00  0.00    +0.000 C 
ATOM     14  C   UNL     1      -1.583  15.214  24.794  0.00  0.00    +0.000 C 
ATOM     15  O   UNL     1      -0.699  15.585  25.567  0.00  0.00    +0.000 OA
ATOM     16  N   UNL     1      -1.478  15.342  23.408  0.00  0.00    +0.000 N 
ATOM     17  C   UNL     1      -0.177  15.743  22.878  0.00  0.00    +0.000 C 
ATOM     18  C   UNL     1      -0.302  16.554  21.591  0.00  0.00    +0.000 C 
ATOM     19  C   UNL     1      -1.218  15.901  20.548  0.00  0.00    +0.000 C 
ATOM     20  C   UNL     1      -2.544  15.461  21.179  0.00  0.00    +0.000 C 
ATOM     21  C   UNL     1      -2.362  14.659  22.464  0.00  0.00    +0.000 C 
ENDBRANCH   1  19
BRANCH   3  22
ATOM     22  C   UNL     1      -0.622  11.515  18.511  0.00  0.00    +0.000 C 
BRANCH  22  23
ATOM     23  C   UNL     1      -0.108  10.552  19.581  0.00  0.00    +0.000 A 
ATOM     24  C   UNL     1      -0.475  10.751  20.930  0.00  0.00    +0.000 A 
ATOM     25  C   UNL     1      -0.030   9.908  21.941  0.00  0.00    +0.000 A 
ATOM     26  C   UNL     1       0.808   8.848  21.636  0.00  0.00    +0.000 A 
ATOM     27  C   UNL     1       1.222   8.623  20.319  0.00  0.00    +0.000 A 
ATOM     28  C   UNL     1       2.063   7.530  20.050  0.00  0.00    +0.000 A 
ATOM     29  C   UNL     1       2.526   7.282  18.763  0.00  0.00    +0.000 A 
ATOM     30  C   UNL     1       2.186   8.150  17.734  0.00  0.00    +0.000 A 
ATOM     31  C   UNL     1       1.345   9.242  17.987  0.00  0.00    +0.000 A 
ATOM     32  C   UNL     1       0.805   9.494  19.273  0.00  0.00    +0.000 A 
ENDBRANCH  22  23
ENDBRANCH   3  22
TORSDOF 3
ENDMDL
MODEL 5
REMARK VINA RESULT:      -8.1      8.094     12.429
REMARK  Name = 
REMARK  4 active torsions:
REMARK  status: ('A' for Active; 'I' for Inactive)
REMARK    1  A    between atoms: C_1  and  C_2
REMARK    2  A    between atoms: C_7  and  N_8
REMARK    3  A    between atoms: C_10  and  C_11
REMARK    4  A    between atoms: C_11  and  C_12
REMARK                            x       y       z     vdW  Elec       q    Type
REMARK                         _______ _______ _______ _____ _____    ______ ____
ROOT
ATOM      1  N   UNL     1      -5.830  13.741  22.941  0.00  0.00    +0.000 N 
ATOM      2  N   UNL     1      -4.945  12.723  22.945  0.00  0.00    +0.000 NA
ATOM      3  C   UNL     1      -3.899  13.192  23.650  0.00  0.00    +0.000 A 
ATOM      4  C   UNL     1      -4.149  14.498  24.149  0.00  0.00    +0.000 A 
ATOM      5  C   UNL     1      -3.518  15.451  24.959  0.00  0.00    +0.000 A 
ATOM      6  N   UNL     1      -2.306  15.255  25.608  0.00  0.00    +0.000 N 
ATOM      7  N   UNL     1      -4.125  16.640  25.148  0.00  0.00    +0.000 NA
ATOM      8  C   UNL     1      -5.315  16.858  24.554  0.00  0.00    +0.000 A 
ATOM      9  N   UNL     1      -6.026  16.014  23.786  0.00  0.00    +0.000 NA
ATOM     10  C   UNL     1      -5.387  14.841  23.630  0.00  0.00    +0.000 A 
ATOM     11  H   UNL     1      -1.636  14.692  25.102  0.00  0.00    +0.000 HD
ATOM     12  H   UNL     1      -1.949  16.140  25.949  0.00  0.00    +0.000 HD
ENDROOT
BRANCH   1  19
ATOM     13  C   UNL     1      -6.919  12.938  17.089  0.00  0.00    +0.000 C 
ATOM     14  C   UNL     1      -6.956  11.997  18.266  0.00  0.00    +0.000 C 
ATOM     15  O   UNL     1      -7.028  10.783  18.073  0.00  0.00    +0.000 OA
ATOM     16  N   UNL     1      -6.925  12.560  19.543  0.00  0.00    +0.000 N 
ATOM     17  C   UNL     1      -6.766  11.640  20.667  0.00  0.00    +0.000 C 
ATOM     18  C   UNL     1      -7.460  12.144  21.929  0.00  0.00    +0.000 C 
ATOM     19  C   UNL     1      -7.119  13.600  22.271  0.00  0.00    +0.000 C 
ATOM     20  C   UNL     1      -7.259  14.502  21.038  0.00  0.00    +0.000 C 
ATOM     21  C   UNL     1      -6.551  13.949  19.805  0.00  0.00    +0.000 C 
ENDBRANCH   1  19
BRANCH   3  22
ATOM     22  C   UNL     1      -2.673  12.341  23.816  0.00  0.00    +0.000 C 
BRANCH  22  23
ATOM     23  C   UNL     1      -1.985  12.218  22.457  0.00  0.00    +0.000 A 
ATOM     24  C   UNL     1      -2.328  13.114  21.420  0.00  0.00    +0.000 A 
ATOM     25  C   UNL     1      -1.738  13.040  20.164  0.00  0.00    +0.000 A 
ATOM     26  C   UNL     1      -0.795  12.060  19.903  0.00  0.00    +0.000 A 
ATOM     27  C   UNL     1      -0.438  11.133  20.886  0.00  0.00    +0.000 A 
ATOM     28  C   UNL     1       0.531  10.162  20.584  0.00  0.00    +0.000 A 
ATOM     29  C   UNL     1       0.896   9.199  21.518  0.00  0.00    +0.000 A 
ATOM     30  C   UNL     1       0.267   9.172  22.755  0.00  0.00    +0.000 A 
ATOM     31  C   UNL     1      -0.699  10.137  23.072  0.00  0.00    +0.000 A 
ATOM     32  C   UNL     1      -1.055  11.169  22.169  0.00  0.00    +0.000 A 
ENDBRANCH  22  23
ENDBRANCH   3  22
TORSDOF 3
ENDMDL
MODEL 6
REMARK VINA RESULT:      -8.0      5.034      8.120
REMARK  Name = 
REMARK  4 active torsions:
REMARK  status: ('A' for Active; 'I' for Inactive)
REMARK    1  A    between atoms: C_1  and  C_2
REMARK    2  A    between atoms: C_7  and  N_8
REMARK    3  A    between atoms: C_10  and  C_11
REMARK    4  A    between atoms: C_11  and  C_12
REMARK                            x       y       z     vdW  Elec       q    Type
REMARK                         _______ _______ _______ _____ _____    ______ ____
ROOT
ATOM      1  N   UNL     1       0.640  12.555  19.782  0.00  0.00    +0.000 N 
ATOM      2  N   UNL     1       1.567  11.736  19.243  0.00  0.00    +0.000 NA
ATOM      3  C   UNL     1       0.851  10.831  18.550  0.00  0.00    +0.000 A 
ATOM      4  C   UNL     1      -0.541  11.117  18.601  0.00  0.00    +0.000 A 
ATOM      5  C   UNL     1      -1.734  10.618  18.065  0.00  0.00    +0.000 A 
ATOM      6  N   UNL     1      -1.814   9.570  17.158  0.00  0.00    +0.000 N 
ATOM      7  N   UNL     1      -2.896  11.196  18.432  0.00  0.00    +0.000 NA
ATOM      8  C   UNL     1      -2.858  12.232  19.293  0.00  0.00    +0.000 A 
ATOM      9  N   UNL     1      -1.778  12.813  19.844  0.00  0.00    +0.000 NA
ATOM     10  C   UNL     1      -0.644  12.209  19.447  0.00  0.00    +0.000 A 
ATOM     11  H   UNL     1      -1.128   8.838  17.287  0.00  0.00    +0.000 HD
ATOM     12  H   UNL     1      -2.772   9.249  17.082  0.00  0.00    +0.000 HD
ENDROOT
BRANCH   1  19
ATOM     13  C   UNL     1       5.040  16.519  18.777  0.00  0.00    +0.000 C 
ATOM     14  C   UNL     1       3.542  16.612  18.645  0.00  0.00    +0.000 C 
ATOM     15  O   UNL     1       3.040  17.569  18.054  0.00  0.00    +0.000 OA
ATOM     16  N   UNL     1       2.778  15.599  19.228  0.00  0.00    +0.000 N 
ATOM     17  C   UNL     1       1.348  15.594  18.930  0.00  0.00    +0.000 C 
ATOM     18  C   UNL     1       0.520  15.031  20.081  0.00  0.00    +0.000 C 
ATOM     19  C   UNL     1       1.045  13.689  20.608  0.00  0.00    +0.000 C 
ATOM     20  C   UNL     1       2.557  13.747  20.853  0.00  0.00    +0.000 C 
ATOM     21  C   UNL     1       3.335  14.322  19.673  0.00  0.00    +0.000 C 
ENDBRANCH   1  19
BRANCH   3  22
ATOM     22  C   UNL     1       1.553   9.703  17.851  0.00  0.00    +0.000 C 
BRANCH  22  23
ATOM     23  C   UNL     1       1.721   8.553  18.844  0.00  0.00    +0.000 A 
ATOM     24  C   UNL     1       1.020   8.585  20.070  0.00  0.00    +0.000 A 
ATOM     25  C   UNL     1       1.143   7.569  21.010  0.00  0.00    +0.000 A 
ATOM     26  C   UNL     1       1.980   6.495  20.757  0.00  0.00    +0.000 A 
ATOM     27  C   UNL     1       2.716   6.427  19.570  0.00  0.00    +0.000 A 
ATOM     28  C   UNL     1       3.545   5.316  19.348  0.00  0.00    +0.000 A 
ATOM     29  C   UNL     1       4.320   5.218  18.198  0.00  0.00    +0.000 A 
ATOM     30  C   UNL     1       4.304   6.252  17.272  0.00  0.00    +0.000 A 
ATOM     31  C   UNL     1       3.479   7.366  17.478  0.00  0.00    +0.000 A 
ATOM     32  C   UNL     1       2.631   7.474  18.609  0.00  0.00    +0.000 A 
ENDBRANCH  22  23
ENDBRANCH   3  22
TORSDOF 3
ENDMDL
MODEL 7
REMARK VINA RESULT:      -7.9      6.541     10.234
REMARK  Name = 
REMARK  4 active torsions:
REMARK  status: ('A' for Active; 'I' for Inactive)
REMARK    1  A    between atoms: C_1  and  C_2
REMARK    2  A    between atoms: C_7  and  N_8
REMARK    3  A    between atoms: C_10  and  C_11
REMARK    4  A    between atoms: C_11  and  C_12
REMARK                            x       y       z     vdW  Elec       q    Type
REMARK                         _______ _______ _______ _____ _____    ______ ____
ROOT
ATOM      1  N   UNL     1      -3.797  12.751  20.502  0.00  0.00    +0.000 N 
ATOM      2  N   UNL     1      -2.480  13.045  20.541  0.00  0.00    +0.000 NA
ATOM      3  C   UNL     1      -1.995  12.561  19.383  0.00  0.00    +0.000 A 
ATOM      4  C   UNL     1      -3.026  12.008  18.575  0.00  0.00    +0.000 A 
ATOM      5  C   UNL     1      -3.172  11.436  17.305  0.00  0.00    +0.000 A 
ATOM      6  N   UNL     1      -2.149  11.314  16.374  0.00  0.00    +0.000 N 
ATOM      7  N   UNL     1      -4.387  10.982  16.938  0.00  0.00    +0.000 NA
ATOM      8  C   UNL     1      -5.411  11.105  17.806  0.00  0.00    +0.000 A 
ATOM      9  N   UNL     1      -5.398  11.661  19.030  0.00  0.00    +0.000 NA
ATOM     10  C   UNL     1      -4.169  12.103  19.352  0.00  0.00    +0.000 A 
ATOM     11  H   UNL     1      -1.234  11.131  16.764  0.00  0.00    +0.000 HD
ATOM     12  H   UNL     1      -2.430  10.685  15.631  0.00  0.00    +0.000 HD
ENDROOT
BRANCH   1  19
ATOM     13  C   UNL     1      -2.323  15.361  25.707  0.00  0.00    +0.000 C 
ATOM     14  C   UNL     1      -2.967  15.893  24.453  0.00  0.00    +0.000 C 
ATOM     15  O   UNL     1      -3.079  17.109  24.294  0.00  0.00    +0.000 OA
ATOM     16  N   UNL     1      -3.432  14.962  23.522  0.00  0.00    +0.000 N 
ATOM     17  C   UNL     1      -3.875  15.483  22.231  0.00  0.00    +0.000 C 
ATOM     18  C   UNL     1      -4.989  14.639  21.618  0.00  0.00    +0.000 C 
ATOM     19  C   UNL     1      -4.674  13.138  21.602  0.00  0.00    +0.000 C 
ATOM     20  C   UNL     1      -4.169  12.667  22.971  0.00  0.00    +0.000 C 
ATOM     21  C   UNL     1      -3.061  13.548  23.539  0.00  0.00    +0.000 C 
ENDBRANCH   1  19
BRANCH   3  22
ATOM     22  C   UNL     1      -0.524  12.652  19.095  0.00  0.00    +0.000 C 
BRANCH  22  23
ATOM     23  C   UNL     1       0.108  11.291  19.386  0.00  0.00    +0.000 A 
ATOM     24  C   UNL     1       0.727  10.574  18.339  0.00  0.00    +0.000 A 
ATOM     25  C   UNL     1       1.310   9.330  18.548  0.00  0.00    +0.000 A 
ATOM     26  C   UNL     1       1.281   8.760  19.810  0.00  0.00    +0.000 A 
ATOM     27  C   UNL     1       0.658   9.417  20.876  0.00  0.00    +0.000 A 
ATOM     28  C   UNL     1       0.660   8.809  22.142  0.00  0.00    +0.000 A 
ATOM     29  C   UNL     1       0.028   9.408  23.226  0.00  0.00    +0.000 A 
ATOM     30  C   UNL     1      -0.650  10.606  23.046  0.00  0.00    +0.000 A 
ATOM     31  C   UNL     1      -0.658  11.226  21.789  0.00  0.00    +0.000 A 
ATOM     32  C   UNL     1       0.025  10.676  20.676  0.00  0.00    +0.000 A 
ENDBRANCH  22  23
ENDBRANCH   3  22
TORSDOF 3
ENDMDL
MODEL 8
REMARK VINA RESULT:      -7.8      5.397      8.701
REMARK  Name = 
REMARK  4 active torsions:
REMARK  status: ('A' for Active; 'I' for Inactive)
REMARK    1  A    between atoms: C_1  and  C_2
REMARK    2  A    between atoms: C_7  and  N_8
REMARK    3  A    between atoms: C_10  and  C_11
REMARK    4  A    between atoms: C_11  and  C_12
REMARK                            x       y       z     vdW  Elec       q    Type
REMARK                         _______ _______ _______ _____ _____    ______ ____
ROOT
ATOM      1  N   UNL     1      -0.532  13.043  19.987  0.00  0.00    +0.000 N 
ATOM      2  N   UNL     1       0.626  12.456  19.619  0.00  0.00    +0.000 NA
ATOM      3  C   UNL     1       0.245  11.427  18.839  0.00  0.00    +0.000 A 
ATOM      4  C   UNL     1      -1.164  11.400  18.660  0.00  0.00    +0.000 A 
ATOM      5  C   UNL     1      -2.118  10.661  17.950  0.00  0.00    +0.000 A 
ATOM      6  N   UNL     1      -1.820   9.636  17.062  0.00  0.00    +0.000 N 
ATOM      7  N   UNL     1      -3.422  10.965  18.114  0.00  0.00    +0.000 NA
ATOM      8  C   UNL     1      -3.750  11.971  18.949  0.00  0.00    +0.000 A 
ATOM      9  N   UNL     1      -2.926  12.764  19.655  0.00  0.00    +0.000 NA
ATOM     10  C   UNL     1      -1.639  12.430  19.457  0.00  0.00    +0.000 A 
ATOM     11  H   UNL     1      -1.020   9.070  17.315  0.00  0.00    +0.000 HD
ATOM     12  H   UNL     1      -2.660   9.114  16.841  0.00  0.00    +0.000 HD
ENDROOT
BRANCH   1  19
ATOM     13  C   UNL     1       3.671  17.314  20.407  0.00  0.00    +0.000 C 
ATOM     14  C   UNL     1       2.316  17.286  19.749  0.00  0.00    +0.000 C 
ATOM     15  O   UNL     1       1.998  18.186  18.971  0.00  0.00    +0.000 OA
ATOM     16  N   UNL     1       1.462  16.231  20.074  0.00  0.00    +0.000 N 
ATOM     17  C   UNL     1       0.235  16.107  19.289  0.00  0.00    +0.000 C 
ATOM     18  C   UNL     1      -0.911  15.508  20.099  0.00  0.00    +0.000 C 
ATOM     19  C   UNL     1      -0.523  14.225  20.844  0.00  0.00    +0.000 C 
ATOM     20  C   UNL     1       0.795  14.407  21.606  0.00  0.00    +0.000 C 
ATOM     21  C   UNL     1       1.904  15.013  20.751  0.00  0.00    +0.000 C 
ENDBRANCH   1  19
BRANCH   3  22
ATOM     22  C   UNL     1       1.280  10.491  18.285  0.00  0.00    +0.000 C 
BRANCH  22  23
ATOM     23  C   UNL     1       1.376   9.278  19.210  0.00  0.00    +0.000 A 
ATOM     24  C   UNL     1       0.711   9.300  20.456  0.00  0.00    +0.000 A 
ATOM     25  C   UNL     1       0.772   8.226  21.336  0.00  0.00    +0.000 A 
ATOM     26  C   UNL     1       1.511   7.103  21.002  0.00  0.00    +0.000 A 
ATOM     27  C   UNL     1       2.209   7.042  19.792  0.00  0.00    +0.000 A 
ATOM     28  C   UNL     1       2.937   5.880  19.488  0.00  0.00    +0.000 A 
ATOM     29  C   UNL     1       3.673   5.783  18.311  0.00  0.00    +0.000 A 
ATOM     30  C   UNL     1       3.720   6.865  17.443  0.00  0.00    +0.000 A 
ATOM     31  C   UNL     1       2.996   8.029  17.732  0.00  0.00    +0.000 A 
ATOM     32  C   UNL     1       2.188   8.143  18.891  0.00  0.00    +0.000 A 
ENDBRANCH  22  23
ENDBRANCH   3  22
TORSDOF 3
ENDMDL
MODEL 9
REMARK VINA RESULT:      -7.8      7.291      9.883
REMARK  Name = 
REMARK  4 active torsions:
REMARK  status: ('A' for Active; 'I' for Inactive)
REMARK    1  A    between atoms: C_1  and  C_2
REMARK    2  A    between atoms: C_7  and  N_8
REMARK    3  A    between atoms: C_10  and  C_11
REMARK    4  A    between atoms: C_11  and  C_12
REMARK                            x       y       z     vdW  Elec       q    Type
REMARK                         _______ _______ _______ _____ _____    ______ ____
ROOT
ATOM      1  N   UNL     1      -1.965  11.787  20.086  0.00  0.00    +0.000 N 
ATOM      2  N   UNL     1      -3.055  12.516  20.405  0.00  0.00    +0.000 NA
ATOM      3  C   UNL     1      -3.872  12.377  19.344  0.00  0.00    +0.000 A 
ATOM      4  C   UNL     1      -3.320  11.502  18.370  0.00  0.00    +0.000 A 
ATOM      5  C   UNL     1      -3.684  10.932  17.144  0.00  0.00    +0.000 A 
ATOM      6  N   UNL     1      -4.920  11.099  16.535  0.00  0.00    +0.000 N 
ATOM      7  N   UNL     1      -2.790  10.150  16.505  0.00  0.00    +0.000 NA
ATOM      8  C   UNL     1      -1.587   9.946  17.078  0.00  0.00    +0.000 A 
ATOM      9  N   UNL     1      -1.141  10.410  18.257  0.00  0.00    +0.000 NA
ATOM     10  C   UNL     1      -2.065  11.179  18.861  0.00  0.00    +0.000 A 
ATOM     11  H   UNL     1      -5.344  12.008  16.665  0.00  0.00    +0.000 HD
ATOM     12  H   UNL     1      -4.878  10.781  15.573  0.00  0.00    +0.000 HD
ENDROOT
BRANCH   1  19
ATOM     13  C   UNL     1       1.349  16.216  22.427  0.00  0.00    +0.000 C 
ATOM     14  C   UNL     1       0.251  15.358  23.002  0.00  0.00    +0.000 C 
ATOM     15  O   UNL     1      -0.262  15.666  24.078  0.00  0.00    +0.000 OA
ATOM     16  N   UNL     1      -0.125  14.223  22.282  0.00  0.00    +0.000 N 
ATOM     17  C   UNL     1      -1.313  13.510  22.745  0.00  0.00    +0.000 C 
ATOM     18  C   UNL     1      -1.235  12.013  22.462  0.00  0.00    +0.000 C 
ATOM     19  C   UNL     1      -0.844  11.686  21.015  0.00  0.00    +0.000 C 
ATOM     20  C   UNL     1       0.377  12.502  20.578  0.00  0.00    +0.000 C 
ATOM     21  C   UNL     1       0.249  13.991  20.887  0.00  0.00    +0.000 C 
ENDBRANCH   1  19
BRANCH   3  22
ATOM     22  C   UNL     1      -5.182  13.111  19.313  0.00  0.00    +0.000 C 
BRANCH  22  23
ATOM     23  C   UNL     1      -6.129  12.448  20.313  0.00  0.00    +0.000 A 
ATOM     24  C   UNL     1      -6.777  11.243  19.963  0.00  0.00    +0.000 A 
ATOM     25  C   UNL     1      -7.652  10.604  20.833  0.00  0.00    +0.000 A 
ATOM     26  C   UNL     1      -7.916  11.158  22.075  0.00  0.00    +0.000 A 
ATOM     27  C   UNL     1      -7.320  12.363  22.460  0.00  0.00    +0.000 A 
ATOM     28  C   UNL     1      -7.605  12.884  23.732  0.00  0.00    +0.000 A 
ATOM     29  C   UNL     1      -7.062  14.095  24.149  0.00  0.00    +0.000 A 
ATOM     30  C   UNL     1      -6.256  14.818  23.280  0.00  0.00    +0.000 A 
ATOM     31  C   UNL     1      -5.960  14.308  22.009  0.00  0.00    +0.000 A 
ATOM     32  C   UNL     1      -6.446  13.051  21.571  0.00  0.00    +0.000 A 
ENDBRANCH  22  23
ENDBRANCH   3  22
TORSDOF 3
ENDMDL
