MODEL 1
REMARK VINA RESULT:      -7.0      0.000      0.000
REMARK  Name = 
REMARK  4 active torsions:
REMARK  status: ('A' for Active; 'I' for Inactive)
REMARK    1  A    between atoms: C_1  and  C_2
REMARK    2  A    between atoms: C_5  and  O_6
REMARK    3  A    between atoms: C_5  and  C_7
REMARK    4  A    between atoms: C_10  and  N_11
REMARK                            x       y       z     vdW  Elec       q    Type
REMARK                         _______ _______ _______ _____ _____    ______ ____
ROOT
ATOM      1  C   UNL     1       0.387   3.461  20.272  0.00  0.00    +0.000 C 
ATOM      2  C   UNL     1       1.605   3.454  19.377  0.00  0.00    +0.000 C 
ATOM      3  C   UNL     1       1.483   3.893  18.115  0.00  0.00    +0.000 C 
ATOM      4  S   UNL     1       2.715   3.888  16.921  0.00  0.00    +0.000 S 
ATOM      5  C   UNL     1       4.230   3.447  17.836  0.00  0.00    +0.000 C 
ATOM      6  C   UNL     1       3.983   2.937  19.262  0.00  0.00    +0.000 A 
ATOM      7  N   UNL     1       4.943   2.449  19.994  0.00  0.00    +0.000 NA
ATOM      8  O   UNL     1       4.347   2.132  21.238  0.00  0.00    +0.000 OA
ATOM      9  C   UNL     1       3.024   2.485  21.135  0.00  0.00    +0.000 A 
ATOM     10  O   UNL     1       2.233   2.357  22.059  0.00  0.00    +0.000 OA
ATOM     11  N   UNL     1       2.799   2.980  19.886  0.00  0.00    +0.000 N 
ENDROOT
BRANCH   5  12
ATOM     12  C   UNL     1       5.210   4.628  17.847  0.00  0.00    +0.000 A 
ATOM     13  C   UNL     1       6.577   4.432  18.134  0.00  0.00    +0.000 A 
ATOM     14  C   UNL     1       7.469   5.508  18.155  0.00  0.00    +0.000 A 
ATOM     15  C   UNL     1       7.006   6.796  17.872  0.00  0.00    +0.000 A 
ATOM     16  C   UNL     1       5.659   7.017  17.574  0.00  0.00    +0.000 A 
ATOM     17  C   UNL     1       4.773   5.938  17.561  0.00  0.00    +0.000 A 
BRANCH  15  18
ATOM     18  N   UNL     1       7.943   7.929  17.885  0.00  0.00    +0.000 N 
ATOM     19  O   UNL     1       8.733   8.010  18.837  0.00  0.00    +0.000 OA
ATOM     20  O   UNL     1       7.884   8.736  16.950  0.00  0.00    +0.000 OA
ENDBRANCH  15  18
ENDBRANCH   5  12
BRANCH   5  21
ATOM     21  O   UNL     1       4.815   2.370  17.100  0.00  0.00    +0.000 OA
ATOM     22  H   UNL     1       5.712   2.684  16.896  0.00  0.00    +0.000 HD
ENDBRANCH   5  21
TORSDOF 3
ENDMDL
MODEL 2
REMARK VINA RESULT:      -7.0      0.161      1.246
REMARK  Name = 
REMARK  4 active torsions:
REMARK  status: ('A' for Active; 'I' for Inactive)
REMARK    1  A    between atoms: C_1  and  C_2
REMARK    2  A    between atoms: C_5  and  O_6
REMARK    3  A    between atoms: C_5  and  C_7
REMARK    4  A    between atoms: C_10  and  N_11
REMARK                            x       y       z     vdW  Elec       q    Type
REMARK                         _______ _______ _______ _____ _____    ______ ____
ROOT
ATOM      1  C   UNL     1       0.388   3.470  20.303  0.00  0.00    +0.000 C 
ATOM      2  C   UNL     1       1.602   3.470  19.404  0.00  0.00    +0.000 C 
ATOM      3  C   UNL     1       1.476   3.920  18.146  0.00  0.00    +0.000 C 
ATOM      4  S   UNL     1       2.703   3.924  16.948  0.00  0.00    +0.000 S 
ATOM      5  C   UNL     1       4.221   3.472  17.852  0.00  0.00    +0.000 C 
ATOM      6  C   UNL     1       3.979   2.948  19.274  0.00  0.00    +0.000 A 
ATOM      7  N   UNL     1       4.940   2.452  19.998  0.00  0.00    +0.000 NA
ATOM      8  O   UNL     1       4.349   2.125  21.241  0.00  0.00    +0.000 OA
ATOM      9  C   UNL     1       3.026   2.481  21.147  0.00  0.00    +0.000 A 
ATOM     10  O   UNL     1       2.238   2.346  22.073  0.00  0.00    +0.000 OA
ATOM     11  N   UNL     1       2.797   2.988  19.904  0.00  0.00    +0.000 N 
ENDROOT
BRANCH   5  12
ATOM     12  C   UNL     1       5.203   4.650  17.871  0.00  0.00    +0.000 A 
ATOM     13  C   UNL     1       4.871   5.879  17.264  0.00  0.00    +0.000 A 
ATOM     14  C   UNL     1       5.769   6.951  17.271  0.00  0.00    +0.000 A 
ATOM     15  C   UNL     1       7.008   6.811  17.904  0.00  0.00    +0.000 A 
ATOM     16  C   UNL     1       7.357   5.608  18.522  0.00  0.00    +0.000 A 
ATOM     17  C   UNL     1       6.458   4.540  18.504  0.00  0.00    +0.000 A 
BRANCH  15  18
ATOM     18  N   UNL     1       7.952   7.938  17.920  0.00  0.00    +0.000 N 
ATOM     19  O   UNL     1       7.894   8.750  16.986  0.00  0.00    +0.000 OA
ATOM     20  O   UNL     1       8.750   8.007  18.863  0.00  0.00    +0.000 OA
ENDBRANCH  15  18
ENDBRANCH   5  12
BRANCH   5  21
ATOM     21  O   UNL     1       4.801   2.400  17.104  0.00  0.00    +0.000 OA
ATOM     22  H   UNL     1       5.598   2.166  17.608  0.00  0.00    +0.000 HD
ENDBRANCH   5  21
TORSDOF 3
ENDMDL
MODEL 3
REMARK VINA RESULT:      -6.8      3.128      3.793
REMARK  Name = 
REMARK  4 active torsions:
REMARK  status: ('A' for Active; 'I' for Inactive)
REMARK    1  A    between atoms: C_1  and  C_2
REMARK    2  A    between atoms: C_5  and  O_6
REMARK    3  A    between atoms: C_5  and  C_7
REMARK    4  A    between atoms: C_10  and  N_11
REMARK                            x       y       z     vdW  Elec       q    Type
REMARK                         _______ _______ _______ _____ _____    ______ ____
ROOT
ATOM      1  C   UNL     1       1.054   3.069  20.647  0.00  0.00    +0.000 C 
ATOM      2  C   UNL     1       2.473   3.382  20.233  0.00  0.00    +0.000 C 
ATOM      3  C   UNL     1       3.363   2.380  20.164  0.00  0.00    +0.000 C 
ATOM      4  S   UNL     1       5.032   2.536  19.800  0.00  0.00    +0.000 S 
ATOM      5  C   UNL     1       5.218   4.268  19.258  0.00  0.00    +0.000 C 
ATOM      6  C   UNL     1       3.995   5.153  19.536  0.00  0.00    +0.000 A 
ATOM      7  N   UNL     1       4.018   6.440  19.341  0.00  0.00    +0.000 NA
ATOM      8  O   UNL     1       2.716   6.895  19.659  0.00  0.00    +0.000 OA
ATOM      9  C   UNL     1       1.996   5.785  20.024  0.00  0.00    +0.000 A 
ATOM     10  O   UNL     1       0.815   5.838  20.339  0.00  0.00    +0.000 OA
ATOM     11  N   UNL     1       2.808   4.693  19.955  0.00  0.00    +0.000 N 
ENDROOT
BRANCH   5  12
ATOM     12  C   UNL     1       5.599   4.325  17.774  0.00  0.00    +0.000 A 
ATOM     13  C   UNL     1       4.635   4.105  16.768  0.00  0.00    +0.000 A 
ATOM     14  C   UNL     1       4.983   4.146  15.416  0.00  0.00    +0.000 A 
ATOM     15  C   UNL     1       6.302   4.428  15.048  0.00  0.00    +0.000 A 
ATOM     16  C   UNL     1       7.275   4.662  16.023  0.00  0.00    +0.000 A 
ATOM     17  C   UNL     1       6.921   4.611  17.373  0.00  0.00    +0.000 A 
BRANCH  15  18
ATOM     18  N   UNL     1       6.671   4.481  13.626  0.00  0.00    +0.000 N 
ATOM     19  O   UNL     1       6.116   3.681  12.859  0.00  0.00    +0.000 OA
ATOM     20  O   UNL     1       7.515   5.316  13.281  0.00  0.00    +0.000 OA
ENDBRANCH  15  18
ENDBRANCH   5  12
BRANCH   5  21
ATOM     21  O   UNL     1       6.299   4.792  20.033  0.00  0.00    +0.000 OA
ATOM     22  H   UNL     1       6.231   5.754  19.910  0.00  0.00    +0.000 HD
ENDBRANCH   5  21
TORSDOF 3
ENDMDL
MODEL 4
REMARK VINA RESULT:      -6.7      3.104      3.662
REMARK  Name = 
REMARK  4 active torsions:
REMARK  status: ('A' for Active; 'I' for Inactive)
REMARK    1  A    between atoms: C_1  and  C_2
REMARK    2  A    between atoms: C_5  and  O_6
REMARK    3  A    between atoms: C_5  and  C_7
REMARK    4  A    between atoms: C_10  and  N_11
REMARK                            x       y       z     vdW  Elec       q    Type
REMARK                         _______ _______ _______ _____ _____    ______ ____
ROOT
ATOM      1  C   UNL     1       1.087   2.953  20.633  0.00  0.00    +0.000 C 
ATOM      2  C   UNL     1       2.501   3.299  20.228  0.00  0.00    +0.000 C 
ATOM      3  C   UNL     1       3.412   2.317  20.161  0.00  0.00    +0.000 C 
ATOM      4  S   UNL     1       5.080   2.511  19.807  0.00  0.00    +0.000 S 
ATOM      5  C   UNL     1       5.231   4.248  19.274  0.00  0.00    +0.000 C 
ATOM      6  C   UNL     1       3.988   5.106  19.547  0.00  0.00    +0.000 A 
ATOM      7  N   UNL     1       3.984   6.393  19.358  0.00  0.00    +0.000 NA
ATOM      8  O   UNL     1       2.671   6.819  19.670  0.00  0.00    +0.000 OA
ATOM      9  C   UNL     1       1.973   5.692  20.027  0.00  0.00    +0.000 A 
ATOM     10  O   UNL     1       0.789   5.718  20.335  0.00  0.00    +0.000 OA
ATOM     11  N   UNL     1       2.809   4.619  19.958  0.00  0.00    +0.000 N 
ENDROOT
BRANCH   5  12
ATOM     12  C   UNL     1       5.620   4.320  17.791  0.00  0.00    +0.000 A 
ATOM     13  C   UNL     1       6.935   4.649  17.402  0.00  0.00    +0.000 A 
ATOM     14  C   UNL     1       7.288   4.726  16.052  0.00  0.00    +0.000 A 
ATOM     15  C   UNL     1       6.331   4.456  15.070  0.00  0.00    +0.000 A 
ATOM     16  C   UNL     1       5.024   4.117  15.427  0.00  0.00    +0.000 A 
ATOM     17  C   UNL     1       4.676   4.050  16.778  0.00  0.00    +0.000 A 
BRANCH  15  18
ATOM     18  N   UNL     1       6.701   4.527  13.649  0.00  0.00    +0.000 N 
ATOM     19  O   UNL     1       7.567   5.350  13.321  0.00  0.00    +0.000 OA
ATOM     20  O   UNL     1       6.122   3.766  12.864  0.00  0.00    +0.000 OA
ENDBRANCH  15  18
ENDBRANCH   5  12
BRANCH   5  21
ATOM     21  O   UNL     1       6.296   4.792  20.056  0.00  0.00    +0.000 OA
ATOM     22  H   UNL     1       6.313   4.233  20.851  0.00  0.00    +0.000 HD
ENDBRANCH   5  21
TORSDOF 3
ENDMDL
MODEL 5
REMARK VINA RESULT:      -6.6      4.290      6.179
REMARK  Name = 
REMARK  4 active torsions:
REMARK  status: ('A' for Active; 'I' for Inactive)
REMARK    1  A    between atoms: C_1  and  C_2
REMARK    2  A    between atoms: C_5  and  O_6
REMARK    3  A    between atoms: C_5  and  C_7
REMARK    4  A    between atoms: C_10  and  N_11
REMARK                            x       y       z     vdW  Elec       q    Type
REMARK                         _______ _______ _______ _____ _____    ______ ____
ROOT
ATOM      1  C   UNL     1       7.831   5.288  18.896  0.00  0.00    +0.000 C 
ATOM      2  C   UNL     1       6.331   5.364  18.738  0.00  0.00    +0.000 C 
ATOM      3  C   UNL     1       5.552   4.826  19.689  0.00  0.00    +0.000 C 
ATOM      4  S   UNL     1       3.839   4.732  19.658  0.00  0.00    +0.000 S 
ATOM      5  C   UNL     1       3.355   5.763  18.233  0.00  0.00    +0.000 C 
ATOM      6  C   UNL     1       4.520   6.169  17.319  0.00  0.00    +0.000 A 
ATOM      7  N   UNL     1       4.326   6.782  16.188  0.00  0.00    +0.000 NA
ATOM      8  O   UNL     1       5.617   7.025  15.662  0.00  0.00    +0.000 OA
ATOM      9  C   UNL     1       6.509   6.518  16.574  0.00  0.00    +0.000 A 
ATOM     10  O   UNL     1       7.721   6.590  16.423  0.00  0.00    +0.000 OA
ATOM     11  N   UNL     1       5.813   5.971  17.610  0.00  0.00    +0.000 N 
ENDROOT
BRANCH   5  12
ATOM     12  C   UNL     1       2.586   7.002  18.707  0.00  0.00    +0.000 A 
ATOM     13  C   UNL     1       2.270   8.046  17.813  0.00  0.00    +0.000 A 
ATOM     14  C   UNL     1       1.578   9.181  18.245  0.00  0.00    +0.000 A 
ATOM     15  C   UNL     1       1.175   9.278  19.581  0.00  0.00    +0.000 A 
ATOM     16  C   UNL     1       1.465   8.254  20.486  0.00  0.00    +0.000 A 
ATOM     17  C   UNL     1       2.163   7.127  20.047  0.00  0.00    +0.000 A 
BRANCH  15  18
ATOM     18  N   UNL     1       0.440  10.466  20.038  0.00  0.00    +0.000 N 
ATOM     19  O   UNL     1      -0.782  10.498  19.837  0.00  0.00    +0.000 OA
ATOM     20  O   UNL     1       1.085  11.365  20.592  0.00  0.00    +0.000 OA
ENDBRANCH  15  18
ENDBRANCH   5  12
BRANCH   5  21
ATOM     21  O   UNL     1       2.478   4.945  17.456  0.00  0.00    +0.000 OA
ATOM     22  H   UNL     1       2.955   4.103  17.371  0.00  0.00    +0.000 HD
ENDBRANCH   5  21
TORSDOF 3
ENDMDL
MODEL 6
REMARK VINA RESULT:      -6.6      4.324      6.098
REMARK  Name = 
REMARK  4 active torsions:
REMARK  status: ('A' for Active; 'I' for Inactive)
REMARK    1  A    between atoms: C_1  and  C_2
REMARK    2  A    between atoms: C_5  and  O_6
REMARK    3  A    between atoms: C_5  and  C_7
REMARK    4  A    between atoms: C_10  and  N_11
REMARK                            x       y       z     vdW  Elec       q    Type
REMARK                         _______ _______ _______ _____ _____    ______ ____
ROOT
ATOM      1  C   UNL     1       7.819   5.200  18.818  0.00  0.00    +0.000 C 
ATOM      2  C   UNL     1       6.316   5.299  18.703  0.00  0.00    +0.000 C 
ATOM      3  C   UNL     1       5.556   4.750  19.663  0.00  0.00    +0.000 C 
ATOM      4  S   UNL     1       3.842   4.680  19.676  0.00  0.00    +0.000 S 
ATOM      5  C   UNL     1       3.333   5.748  18.288  0.00  0.00    +0.000 C 
ATOM      6  C   UNL     1       4.479   6.159  17.352  0.00  0.00    +0.000 A 
ATOM      7  N   UNL     1       4.263   6.799  16.240  0.00  0.00    +0.000 NA
ATOM      8  O   UNL     1       5.542   7.037  15.684  0.00  0.00    +0.000 OA
ATOM      9  C   UNL     1       6.452   6.499  16.561  0.00  0.00    +0.000 A 
ATOM     10  O   UNL     1       7.660   6.558  16.379  0.00  0.00    +0.000 OA
ATOM     11  N   UNL     1       5.776   5.938  17.603  0.00  0.00    +0.000 N 
ENDROOT
BRANCH   5  12
ATOM     12  C   UNL     1       2.594   6.987  18.810  0.00  0.00    +0.000 A 
ATOM     13  C   UNL     1       2.202   7.080  20.162  0.00  0.00    +0.000 A 
ATOM     14  C   UNL     1       1.519   8.203  20.637  0.00  0.00    +0.000 A 
ATOM     15  C   UNL     1       1.233   9.259  19.766  0.00  0.00    +0.000 A 
ATOM     16  C   UNL     1       1.620   9.197  18.425  0.00  0.00    +0.000 A 
ATOM     17  C   UNL     1       2.295   8.069  17.956  0.00  0.00    +0.000 A 
BRANCH  15  18
ATOM     18  N   UNL     1       0.522  10.446  20.264  0.00  0.00    +0.000 N 
ATOM     19  O   UNL     1       0.755  10.810  21.425  0.00  0.00    +0.000 OA
ATOM     20  O   UNL     1      -0.270  11.006  19.496  0.00  0.00    +0.000 OA
ENDBRANCH  15  18
ENDBRANCH   5  12
BRANCH   5  21
ATOM     21  O   UNL     1       2.424   4.959  17.517  0.00  0.00    +0.000 OA
ATOM     22  H   UNL     1       2.314   4.148  18.041  0.00  0.00    +0.000 HD
ENDBRANCH   5  21
TORSDOF 3
ENDMDL
MODEL 7
REMARK VINA RESULT:      -6.4     10.259     12.279
REMARK  Name = 
REMARK  4 active torsions:
REMARK  status: ('A' for Active; 'I' for Inactive)
REMARK    1  A    between atoms: C_1  and  C_2
REMARK    2  A    between atoms: C_5  and  O_6
REMARK    3  A    between atoms: C_5  and  C_7
REMARK    4  A    between atoms: C_10  and  N_11
REMARK                            x       y       z     vdW  Elec       q    Type
REMARK                         _______ _______ _______ _____ _____    ______ ____
ROOT
ATOM      1  C   UNL     1       0.126  10.294  18.880  0.00  0.00    +0.000 C 
ATOM      2  C   UNL     1      -0.371  11.176  20.001  0.00  0.00    +0.000 C 
ATOM      3  C   UNL     1      -0.718  12.442  19.723  0.00  0.00    +0.000 C 
ATOM      4  S   UNL     1      -1.222  13.623  20.860  0.00  0.00    +0.000 S 
ATOM      5  C   UNL     1      -1.449  12.692  22.411  0.00  0.00    +0.000 C 
ATOM      6  C   UNL     1      -0.885  11.265  22.382  0.00  0.00    +0.000 A 
ATOM      7  N   UNL     1      -0.839  10.520  23.449  0.00  0.00    +0.000 NA
ATOM      8  O   UNL     1      -0.305   9.280  23.024  0.00  0.00    +0.000 OA
ATOM      9  C   UNL     1      -0.079   9.398  21.674  0.00  0.00    +0.000 A 
ATOM     10  O   UNL     1       0.364   8.481  20.997  0.00  0.00    +0.000 OA
ATOM     11  N   UNL     1      -0.434  10.653  21.279  0.00  0.00    +0.000 N 
ENDROOT
BRANCH   5  12
ATOM     12  C   UNL     1      -2.929  12.677  22.814  0.00  0.00    +0.000 A 
ATOM     13  C   UNL     1      -3.947  12.715  21.838  0.00  0.00    +0.000 A 
ATOM     14  C   UNL     1      -5.296  12.713  22.203  0.00  0.00    +0.000 A 
ATOM     15  C   UNL     1      -5.646  12.654  23.556  0.00  0.00    +0.000 A 
ATOM     16  C   UNL     1      -4.659  12.605  24.543  0.00  0.00    +0.000 A 
ATOM     17  C   UNL     1      -3.314  12.615  24.170  0.00  0.00    +0.000 A 
BRANCH  15  18
ATOM     18  N   UNL     1      -7.064  12.644  23.944  0.00  0.00    +0.000 N 
ATOM     19  O   UNL     1      -7.700  11.595  23.766  0.00  0.00    +0.000 OA
ATOM     20  O   UNL     1      -7.538  13.682  24.420  0.00  0.00    +0.000 OA
ENDBRANCH  15  18
ENDBRANCH   5  12
BRANCH   5  21
ATOM     21  O   UNL     1      -0.710  13.415  23.398  0.00  0.00    +0.000 OA
ATOM     22  H   UNL     1      -0.631  14.309  23.024  0.00  0.00    +0.000 HD
ENDBRANCH   5  21
TORSDOF 3
ENDMDL
MODEL 8
REMARK VINA RESULT:      -6.4      3.067      3.811
REMARK  Name = 
REMARK  4 active torsions:
REMARK  status: ('A' for Active; 'I' for Inactive)
REMARK    1  A    between atoms: C_1  and  C_2
REMARK    2  A    between atoms: C_5  and  O_6
REMARK    3  A    between atoms: C_5  and  C_7
REMARK    4  A    between atoms: C_10  and  N_11
REMARK                            x       y       z     vdW  Elec       q    Type
REMARK                         _______ _______ _______ _____ _____    ______ ____
ROOT
ATOM      1  C   UNL     1       2.110   2.517  21.458  0.00  0.00    +0.000 C 
ATOM      2  C   UNL     1       2.437   3.614  20.471  0.00  0.00    +0.000 C 
ATOM      3  C   UNL     1       3.366   4.524  20.800  0.00  0.00    +0.000 C 
ATOM      4  S   UNL     1       3.818   5.888  19.864  0.00  0.00    +0.000 S 
ATOM      5  C   UNL     1       2.985   5.634  18.261  0.00  0.00    +0.000 C 
ATOM      6  C   UNL     1       1.935   4.515  18.263  0.00  0.00    +0.000 A 
ATOM      7  N   UNL     1       1.154   4.301  17.244  0.00  0.00    +0.000 NA
ATOM      8  O   UNL     1       0.368   3.179  17.597  0.00  0.00    +0.000 OA
ATOM      9  C   UNL     1       0.775   2.799  18.852  0.00  0.00    +0.000 A 
ATOM     10  O   UNL     1       0.300   1.836  19.438  0.00  0.00    +0.000 OA
ATOM     11  N   UNL     1       1.753   3.650  19.271  0.00  0.00    +0.000 N 
ENDROOT
BRANCH   5  12
ATOM     12  C   UNL     1       4.020   5.400  17.153  0.00  0.00    +0.000 A 
ATOM     13  C   UNL     1       4.601   6.484  16.464  0.00  0.00    +0.000 A 
ATOM     14  C   UNL     1       5.536   6.273  15.446  0.00  0.00    +0.000 A 
ATOM     15  C   UNL     1       5.916   4.968  15.115  0.00  0.00    +0.000 A 
ATOM     16  C   UNL     1       5.364   3.877  15.789  0.00  0.00    +0.000 A 
ATOM     17  C   UNL     1       4.425   4.096  16.800  0.00  0.00    +0.000 A 
BRANCH  15  18
ATOM     18  N   UNL     1       6.905   4.742  14.052  0.00  0.00    +0.000 N 
ATOM     19  O   UNL     1       6.672   3.841  13.233  0.00  0.00    +0.000 OA
ATOM     20  O   UNL     1       7.911   5.461  14.039  0.00  0.00    +0.000 OA
ENDBRANCH  15  18
ENDBRANCH   5  12
BRANCH   5  21
ATOM     21  O   UNL     1       2.294   6.857  17.996  0.00  0.00    +0.000 OA
ATOM     22  H   UNL     1       2.477   7.404  18.778  0.00  0.00    +0.000 HD
ENDBRANCH   5  21
TORSDOF 3
ENDMDL
MODEL 9
REMARK VINA RESULT:      -6.4      7.169      8.429
REMARK  Name = 
REMARK  4 active torsions:
REMARK  status: ('A' for Active; 'I' for Inactive)
REMARK    1  A    between atoms: C_1  and  C_2
REMARK    2  A    between atoms: C_5  and  O_6
REMARK    3  A    between atoms: C_5  and  C_7
REMARK    4  A    between atoms: C_10  and  N_11
REMARK                            x       y       z     vdW  Elec       q    Type
REMARK                         _______ _______ _______ _____ _____    ______ ____
ROOT
ATOM      1  C   UNL     1      -2.831  12.682  20.921  0.00  0.00    +0.000 C 
ATOM      2  C   UNL     1      -1.563  12.140  20.304  0.00  0.00    +0.000 C 
ATOM      3  C   UNL     1      -0.390  12.406  20.898  0.00  0.00    +0.000 C 
ATOM      4  S   UNL     1       1.161  11.959  20.315  0.00  0.00    +0.000 S 
ATOM      5  C   UNL     1       0.814  10.830  18.925  0.00  0.00    +0.000 C 
ATOM      6  C   UNL     1      -0.653  10.811  18.475  0.00  0.00    +0.000 A 
ATOM      7  N   UNL     1      -1.038  10.169  17.411  0.00  0.00    +0.000 NA
ATOM      8  O   UNL     1      -2.441  10.343  17.349  0.00  0.00    +0.000 OA
ATOM      9  C   UNL     1      -2.785  11.102  18.440  0.00  0.00    +0.000 A 
ATOM     10  O   UNL     1      -3.942  11.413  18.690  0.00  0.00    +0.000 OA
ATOM     11  N   UNL     1      -1.655  11.403  19.139  0.00  0.00    +0.000 N 
ENDROOT
BRANCH   5  12
ATOM     12  C   UNL     1       1.296   9.412  19.256  0.00  0.00    +0.000 A 
ATOM     13  C   UNL     1       2.004   8.647  18.306  0.00  0.00    +0.000 A 
ATOM     14  C   UNL     1       2.434   7.350  18.602  0.00  0.00    +0.000 A 
ATOM     15  C   UNL     1       2.176   6.807  19.865  0.00  0.00    +0.000 A 
ATOM     16  C   UNL     1       1.487   7.547  20.828  0.00  0.00    +0.000 A 
ATOM     17  C   UNL     1       1.054   8.839  20.522  0.00  0.00    +0.000 A 
BRANCH  15  18
ATOM     18  N   UNL     1       2.634   5.447  20.183  0.00  0.00    +0.000 N 
ATOM     19  O   UNL     1       3.742   5.098  19.752  0.00  0.00    +0.000 OA
ATOM     20  O   UNL     1       1.885   4.730  20.858  0.00  0.00    +0.000 OA
ENDBRANCH  15  18
ENDBRANCH   5  12
BRANCH   5  21
ATOM     21  O   UNL     1       1.582  11.334  17.830  0.00  0.00    +0.000 OA
ATOM     22  H   UNL     1       1.994  10.540  17.447  0.00  0.00    +0.000 HD
ENDBRANCH   5  21
TORSDOF 3
ENDMDL
