MODEL 1
REMARK VINA RESULT:      -7.7      0.000      0.000
REMARK  Name = 
REMARK  7 active torsions:
REMARK  status: ('A' for Active; 'I' for Inactive)
REMARK    1  A    between atoms: C_2  and  O_3
REMARK    2  A    between atoms: C_2  and  C_4
REMARK    3  A    between atoms: C_4  and  C_5
REMARK    4  A    between atoms: C_5  and  C_6
REMARK    5  A    between atoms: C_9  and  C_10
REMARK    6  A    between atoms: C_11  and  C_12
REMARK    7  A    between atoms: C_17  and  C_18
REMARK                            x       y       z     vdW  Elec       q    Type
REMARK                         _______ _______ _______ _____ _____    ______ ____
ROOT
ATOM      1  C   UNL     1       4.335   4.921  17.015  0.00  0.00    +0.000 A 
ATOM      2  C   UNL     1       3.354   4.473  17.911  0.00  0.00    +0.000 A 
ATOM      3  C   UNL     1       2.622   5.380  18.670  0.00  0.00    +0.000 A 
ATOM      4  C   UNL     1       2.860   6.745  18.539  0.00  0.00    +0.000 A 
ATOM      5  C   UNL     1       3.828   7.211  17.648  0.00  0.00    +0.000 A 
ATOM      6  C   UNL     1       4.567   6.299  16.889  0.00  0.00    +0.000 A 
ENDROOT
BRANCH   4   7
ATOM      7  C   UNL     1       2.089   7.653  19.326  0.00  0.00    +0.000 C 
ATOM      8  C   UNL     1       1.463   8.412  20.000  0.00  0.00    +0.000 C 
BRANCH   8   9
ATOM      9  C   UNL     1       0.699   9.284  20.852  0.00  0.00    +0.000 A 
ATOM     10  C   UNL     1       0.628   8.956  22.214  0.00  0.00    +0.000 A 
ATOM     11  C   UNL     1      -0.127   9.736  23.086  0.00  0.00    +0.000 A 
ATOM     12  C   UNL     1      -0.815  10.843  22.601  0.00  0.00    +0.000 A 
ATOM     13  C   UNL     1      -0.738  11.178  21.248  0.00  0.00    +0.000 A 
ATOM     14  C   UNL     1       0.027  10.410  20.353  0.00  0.00    +0.000 A 
BRANCH  14  15
ATOM     15  C   UNL     1       0.057  10.809  18.895  0.00  0.00    +0.000 C 
ATOM     16  F   UNL     1      -0.641  11.945  18.609  0.00  0.00    +0.000 F 
ATOM     17  F   UNL     1       1.328  11.049  18.458  0.00  0.00    +0.000 F 
ATOM     18  F   UNL     1      -0.441   9.868  18.048  0.00  0.00    +0.000 F 
ENDBRANCH  14  15
ENDBRANCH   8   9
ENDBRANCH   4   7
BRANCH   1  19
ATOM     19  C   UNL     1       5.129   3.920  16.203  0.00  0.00    +0.000 C 
BRANCH  19  20
ATOM     20  C   UNL     1       6.578   4.389  15.990  0.00  0.00    +0.000 C 
BRANCH  20  22
ATOM     21  O   UNL     1       7.690   5.427  14.128  0.00  0.00    +0.000 OA
ATOM     22  C   UNL     1       6.971   4.544  14.540  0.00  0.00    +0.000 C 
BRANCH  22  23
ATOM     23  O   UNL     1       6.456   3.611  13.706  0.00  0.00    +0.000 OA
ATOM     24  H   UNL     1       5.949   2.875  14.095  0.00  0.00    +0.000 HD
ENDBRANCH  22  23
ENDBRANCH  20  22
ENDBRANCH  19  20
ENDBRANCH   1  19
TORSDOF 7
ENDMDL
MODEL 2
REMARK VINA RESULT:      -7.6      1.887      2.537
REMARK  Name = 
REMARK  7 active torsions:
REMARK  status: ('A' for Active; 'I' for Inactive)
REMARK    1  A    between atoms: C_2  and  O_3
REMARK    2  A    between atoms: C_2  and  C_4
REMARK    3  A    between atoms: C_4  and  C_5
REMARK    4  A    between atoms: C_5  and  C_6
REMARK    5  A    between atoms: C_9  and  C_10
REMARK    6  A    between atoms: C_11  and  C_12
REMARK    7  A    between atoms: C_17  and  C_18
REMARK                            x       y       z     vdW  Elec       q    Type
REMARK                         _______ _______ _______ _____ _____    ______ ____
ROOT
ATOM      1  C   UNL     1       4.180   5.106  17.128  0.00  0.00    +0.000 A 
ATOM      2  C   UNL     1       2.989   4.850  17.822  0.00  0.00    +0.000 A 
ATOM      3  C   UNL     1       2.241   5.896  18.354  0.00  0.00    +0.000 A 
ATOM      4  C   UNL     1       2.675   7.209  18.194  0.00  0.00    +0.000 A 
ATOM      5  C   UNL     1       3.854   7.485  17.500  0.00  0.00    +0.000 A 
ATOM      6  C   UNL     1       4.607   6.434  16.971  0.00  0.00    +0.000 A 
ENDROOT
BRANCH   4   7
ATOM      7  C   UNL     1       1.884   8.263  18.745  0.00  0.00    +0.000 C 
ATOM      8  C   UNL     1       1.238   9.160  19.193  0.00  0.00    +0.000 C 
BRANCH   8   9
ATOM      9  C   UNL     1       0.505  10.254  19.770  0.00  0.00    +0.000 A 
ATOM     10  C   UNL     1       0.365  11.417  18.999  0.00  0.00    +0.000 A 
ATOM     11  C   UNL     1      -0.299  12.527  19.514  0.00  0.00    +0.000 A 
ATOM     12  C   UNL     1      -0.826  12.480  20.800  0.00  0.00    +0.000 A 
ATOM     13  C   UNL     1      -0.698  11.320  21.568  0.00  0.00    +0.000 A 
ATOM     14  C   UNL     1      -0.039  10.185  21.062  0.00  0.00    +0.000 A 
BRANCH  14  15
ATOM     15  C   UNL     1       0.086   8.965  21.946  0.00  0.00    +0.000 C 
ATOM     16  F   UNL     1       1.365   8.532  22.130  0.00  0.00    +0.000 F 
ATOM     17  F   UNL     1      -0.401   9.192  23.201  0.00  0.00    +0.000 F 
ATOM     18  F   UNL     1      -0.591   7.875  21.491  0.00  0.00    +0.000 F 
ENDBRANCH  14  15
ENDBRANCH   8   9
ENDBRANCH   4   7
BRANCH   1  19
ATOM     19  C   UNL     1       4.986   3.956  16.563  0.00  0.00    +0.000 C 
BRANCH  19  20
ATOM     20  C   UNL     1       5.678   4.344  15.247  0.00  0.00    +0.000 C 
BRANCH  20  22
ATOM     21  O   UNL     1       7.798   4.443  16.376  0.00  0.00    +0.000 OA
ATOM     22  C   UNL     1       7.136   4.709  15.398  0.00  0.00    +0.000 C 
BRANCH  22  23
ATOM     23  O   UNL     1       7.671   5.370  14.346  0.00  0.00    +0.000 OA
ATOM     24  H   UNL     1       8.027   4.845  13.606  0.00  0.00    +0.000 HD
ENDBRANCH  22  23
ENDBRANCH  20  22
ENDBRANCH  19  20
ENDBRANCH   1  19
TORSDOF 7
ENDMDL
MODEL 3
REMARK VINA RESULT:      -7.6      0.794      1.153
REMARK  Name = 
REMARK  7 active torsions:
REMARK  status: ('A' for Active; 'I' for Inactive)
REMARK    1  A    between atoms: C_2  and  O_3
REMARK    2  A    between atoms: C_2  and  C_4
REMARK    3  A    between atoms: C_4  and  C_5
REMARK    4  A    between atoms: C_5  and  C_6
REMARK    5  A    between atoms: C_9  and  C_10
REMARK    6  A    between atoms: C_11  and  C_12
REMARK    7  A    between atoms: C_17  and  C_18
REMARK                            x       y       z     vdW  Elec       q    Type
REMARK                         _______ _______ _______ _____ _____    ______ ____
ROOT
ATOM      1  C   UNL     1       4.925   4.794  16.539  0.00  0.00    +0.000 A 
ATOM      2  C   UNL     1       3.993   4.270  17.446  0.00  0.00    +0.000 A 
ATOM      3  C   UNL     1       3.207   5.118  18.221  0.00  0.00    +0.000 A 
ATOM      4  C   UNL     1       3.344   6.497  18.095  0.00  0.00    +0.000 A 
ATOM      5  C   UNL     1       4.261   7.038  17.193  0.00  0.00    +0.000 A 
ATOM      6  C   UNL     1       5.053   6.186  16.418  0.00  0.00    +0.000 A 
ENDROOT
BRANCH   4   7
ATOM      7  C   UNL     1       2.519   7.343  18.898  0.00  0.00    +0.000 C 
ATOM      8  C   UNL     1       1.852   8.060  19.578  0.00  0.00    +0.000 C 
BRANCH   8   9
ATOM      9  C   UNL     1       1.064   8.893  20.447  0.00  0.00    +0.000 A 
ATOM     10  C   UNL     1       0.981   8.524  21.797  0.00  0.00    +0.000 A 
ATOM     11  C   UNL     1       0.204   9.266  22.682  0.00  0.00    +0.000 A 
ATOM     12  C   UNL     1      -0.494  10.377  22.222  0.00  0.00    +0.000 A 
ATOM     13  C   UNL     1      -0.406  10.754  20.881  0.00  0.00    +0.000 A 
ATOM     14  C   UNL     1       0.382  10.024  19.973  0.00  0.00    +0.000 A 
BRANCH  14  15
ATOM     15  C   UNL     1       0.424  10.469  18.528  0.00  0.00    +0.000 C 
ATOM     16  F   UNL     1      -0.132   9.585  17.652  0.00  0.00    +0.000 F 
ATOM     17  F   UNL     1      -0.250  11.640  18.335  0.00  0.00    +0.000 F 
ATOM     18  F   UNL     1       1.679  10.695  18.050  0.00  0.00    +0.000 F 
ENDBRANCH  14  15
ENDBRANCH   8   9
ENDBRANCH   4   7
BRANCH   1  19
ATOM     19  C   UNL     1       5.779   3.858  15.710  0.00  0.00    +0.000 C 
BRANCH  19  20
ATOM     20  C   UNL     1       5.702   4.200  14.213  0.00  0.00    +0.000 C 
BRANCH  20  22
ATOM     21  O   UNL     1       7.794   5.382  14.239  0.00  0.00    +0.000 OA
ATOM     22  C   UNL     1       6.998   4.706  13.627  0.00  0.00    +0.000 C 
BRANCH  22  23
ATOM     23  O   UNL     1       7.221   4.350  12.340  0.00  0.00    +0.000 OA
ATOM     24  H   UNL     1       6.910   3.475  12.045  0.00  0.00    +0.000 HD
ENDBRANCH  22  23
ENDBRANCH  20  22
ENDBRANCH  19  20
ENDBRANCH   1  19
TORSDOF 7
ENDMDL
MODEL 4
REMARK VINA RESULT:      -7.6      5.034      8.965
REMARK  Name = 
REMARK  7 active torsions:
REMARK  status: ('A' for Active; 'I' for Inactive)
REMARK    1  A    between atoms: C_2  and  O_3
REMARK    2  A    between atoms: C_2  and  C_4
REMARK    3  A    between atoms: C_4  and  C_5
REMARK    4  A    between atoms: C_5  and  C_6
REMARK    5  A    between atoms: C_9  and  C_10
REMARK    6  A    between atoms: C_11  and  C_12
REMARK    7  A    between atoms: C_17  and  C_18
REMARK                            x       y       z     vdW  Elec       q    Type
REMARK                         _______ _______ _______ _____ _____    ______ ____
ROOT
ATOM      1  C   UNL     1       0.369   9.912  19.861  0.00  0.00    +0.000 A 
ATOM      2  C   UNL     1       0.701  10.029  18.503  0.00  0.00    +0.000 A 
ATOM      3  C   UNL     1       1.584   9.132  17.911  0.00  0.00    +0.000 A 
ATOM      4  C   UNL     1       2.143   8.107  18.670  0.00  0.00    +0.000 A 
ATOM      5  C   UNL     1       1.820   7.970  20.020  0.00  0.00    +0.000 A 
ATOM      6  C   UNL     1       0.936   8.875  20.616  0.00  0.00    +0.000 A 
ENDROOT
BRANCH   4   7
ATOM      7  C   UNL     1       3.041   7.197  18.034  0.00  0.00    +0.000 C 
ATOM      8  C   UNL     1       3.802   6.456  17.491  0.00  0.00    +0.000 C 
BRANCH   8   9
ATOM      9  C   UNL     1       4.692   5.573  16.786  0.00  0.00    +0.000 A 
ATOM     10  C   UNL     1       5.728   6.158  16.043  0.00  0.00    +0.000 A 
ATOM     11  C   UNL     1       6.600   5.361  15.306  0.00  0.00    +0.000 A 
ATOM     12  C   UNL     1       6.440   3.980  15.306  0.00  0.00    +0.000 A 
ATOM     13  C   UNL     1       5.416   3.394  16.052  0.00  0.00    +0.000 A 
ATOM     14  C   UNL     1       4.530   4.179  16.812  0.00  0.00    +0.000 A 
BRANCH  14  15
ATOM     15  C   UNL     1       3.429   3.490  17.585  0.00  0.00    +0.000 C 
ATOM     16  F   UNL     1       3.467   2.129  17.525  0.00  0.00    +0.000 F 
ATOM     17  F   UNL     1       3.474   3.792  18.916  0.00  0.00    +0.000 F 
ATOM     18  F   UNL     1       2.172   3.825  17.184  0.00  0.00    +0.000 F 
ENDBRANCH  14  15
ENDBRANCH   8   9
ENDBRANCH   4   7
BRANCH   1  19
ATOM     19  C   UNL     1      -0.586  10.903  20.492  0.00  0.00    +0.000 C 
BRANCH  19  20
ATOM     20  C   UNL     1      -0.104  11.345  21.883  0.00  0.00    +0.000 C 
BRANCH  20  22
ATOM     21  O   UNL     1      -2.041  11.411  23.305  0.00  0.00    +0.000 OA
ATOM     22  C   UNL     1      -0.988  10.887  23.018  0.00  0.00    +0.000 C 
BRANCH  22  23
ATOM     23  O   UNL     1      -0.519   9.827  23.716  0.00  0.00    +0.000 OA
ATOM     24  H   UNL     1      -0.361   8.994  23.235  0.00  0.00    +0.000 HD
ENDBRANCH  22  23
ENDBRANCH  20  22
ENDBRANCH  19  20
ENDBRANCH   1  19
TORSDOF 7
ENDMDL
MODEL 5
REMARK VINA RESULT:      -7.5      0.781      1.625
REMARK  Name = 
REMARK  7 active torsions:
REMARK  status: ('A' for Active; 'I' for Inactive)
REMARK    1  A    between atoms: C_2  and  O_3
REMARK    2  A    between atoms: C_2  and  C_4
REMARK    3  A    between atoms: C_4  and  C_5
REMARK    4  A    between atoms: C_5  and  C_6
REMARK    5  A    between atoms: C_9  and  C_10
REMARK    6  A    between atoms: C_11  and  C_12
REMARK    7  A    between atoms: C_17  and  C_18
REMARK                            x       y       z     vdW  Elec       q    Type
REMARK                         _______ _______ _______ _____ _____    ______ ____
ROOT
ATOM      1  C   UNL     1       4.857   4.751  16.654  0.00  0.00    +0.000 A 
ATOM      2  C   UNL     1       4.934   6.148  16.559  0.00  0.00    +0.000 A 
ATOM      3  C   UNL     1       4.148   6.956  17.374  0.00  0.00    +0.000 A 
ATOM      4  C   UNL     1       3.279   6.377  18.294  0.00  0.00    +0.000 A 
ATOM      5  C   UNL     1       3.193   4.989  18.409  0.00  0.00    +0.000 A 
ATOM      6  C   UNL     1       3.979   4.177  17.586  0.00  0.00    +0.000 A 
ENDROOT
BRANCH   4   7
ATOM      7  C   UNL     1       2.490   7.232  19.121  0.00  0.00    +0.000 C 
ATOM      8  C   UNL     1       1.823   7.959  19.792  0.00  0.00    +0.000 C 
BRANCH   8   9
ATOM      9  C   UNL     1       1.059   8.879  20.591  0.00  0.00    +0.000 A 
ATOM     10  C   UNL     1       0.858   8.551  21.940  0.00  0.00    +0.000 A 
ATOM     11  C   UNL     1       0.095   9.379  22.758  0.00  0.00    +0.000 A 
ATOM     12  C   UNL     1      -0.471  10.536  22.234  0.00  0.00    +0.000 A 
ATOM     13  C   UNL     1      -0.265  10.871  20.894  0.00  0.00    +0.000 A 
ATOM     14  C   UNL     1       0.511  10.054  20.053  0.00  0.00    +0.000 A 
BRANCH  14  15
ATOM     15  C   UNL     1       0.684  10.457  18.606  0.00  0.00    +0.000 C 
ATOM     16  F   UNL     1       1.982  10.571  18.206  0.00  0.00    +0.000 F 
ATOM     17  F   UNL     1       0.122   9.552  17.753  0.00  0.00    +0.000 F 
ATOM     18  F   UNL     1       0.113  11.651  18.288  0.00  0.00    +0.000 F 
ENDBRANCH  14  15
ENDBRANCH   8   9
ENDBRANCH   4   7
BRANCH   1  19
ATOM     19  C   UNL     1       5.712   3.885  15.754  0.00  0.00    +0.000 C 
BRANCH  19  20
ATOM     20  C   UNL     1       5.566   4.287  14.277  0.00  0.00    +0.000 C 
BRANCH  20  22
ATOM     21  O   UNL     1       7.146   4.286  12.466  0.00  0.00    +0.000 OA
ATOM     22  C   UNL     1       6.870   4.624  13.596  0.00  0.00    +0.000 C 
BRANCH  22  23
ATOM     23  O   UNL     1       7.737   5.345  14.344  0.00  0.00    +0.000 OA
ATOM     24  H   UNL     1       7.434   6.199  14.702  0.00  0.00    +0.000 HD
ENDBRANCH  22  23
ENDBRANCH  20  22
ENDBRANCH  19  20
ENDBRANCH   1  19
TORSDOF 7
ENDMDL
MODEL 6
REMARK VINA RESULT:      -7.5      0.895      1.168
REMARK  Name = 
REMARK  7 active torsions:
REMARK  status: ('A' for Active; 'I' for Inactive)
REMARK    1  A    between atoms: C_2  and  O_3
REMARK    2  A    between atoms: C_2  and  C_4
REMARK    3  A    between atoms: C_4  and  C_5
REMARK    4  A    between atoms: C_5  and  C_6
REMARK    5  A    between atoms: C_9  and  C_10
REMARK    6  A    between atoms: C_11  and  C_12
REMARK    7  A    between atoms: C_17  and  C_18
REMARK                            x       y       z     vdW  Elec       q    Type
REMARK                         _______ _______ _______ _____ _____    ______ ____
ROOT
ATOM      1  C   UNL     1       5.028   4.775  16.366  0.00  0.00    +0.000 A 
ATOM      2  C   UNL     1       4.037   4.248  17.206  0.00  0.00    +0.000 A 
ATOM      3  C   UNL     1       3.278   5.086  18.017  0.00  0.00    +0.000 A 
ATOM      4  C   UNL     1       3.500   6.460  17.994  0.00  0.00    +0.000 A 
ATOM      5  C   UNL     1       4.476   7.005  17.159  0.00  0.00    +0.000 A 
ATOM      6  C   UNL     1       5.242   6.162  16.348  0.00  0.00    +0.000 A 
ENDROOT
BRANCH   4   7
ATOM      7  C   UNL     1       2.702   7.296  18.832  0.00  0.00    +0.000 C 
ATOM      8  C   UNL     1       2.030   7.975  19.547  0.00  0.00    +0.000 C 
BRANCH   8   9
ATOM      9  C   UNL     1       1.171   8.765  20.388  0.00  0.00    +0.000 A 
ATOM     10  C   UNL     1       1.054   8.383  21.732  0.00  0.00    +0.000 A 
ATOM     11  C   UNL     1       0.210   9.083  22.590  0.00  0.00    +0.000 A 
ATOM     12  C   UNL     1      -0.522  10.163  22.109  0.00  0.00    +0.000 A 
ATOM     13  C   UNL     1      -0.400  10.552  20.774  0.00  0.00    +0.000 A 
ATOM     14  C   UNL     1       0.455   9.866  19.893  0.00  0.00    +0.000 A 
BRANCH  14  15
ATOM     15  C   UNL     1       0.532  10.320  18.453  0.00  0.00    +0.000 C 
ATOM     16  F   UNL     1      -0.209  11.430  18.174  0.00  0.00    +0.000 F 
ATOM     17  F   UNL     1       1.808  10.638  18.086  0.00  0.00    +0.000 F 
ATOM     18  F   UNL     1       0.121   9.388  17.551  0.00  0.00    +0.000 F 
ENDBRANCH  14  15
ENDBRANCH   8   9
ENDBRANCH   4   7
BRANCH   1  19
ATOM     19  C   UNL     1       5.851   3.849  15.496  0.00  0.00    +0.000 C 
BRANCH  19  20
ATOM     20  C   UNL     1       5.674   4.169  14.003  0.00  0.00    +0.000 C 
BRANCH  20  22
ATOM     21  O   UNL     1       7.236   4.258  12.179  0.00  0.00    +0.000 OA
ATOM     22  C   UNL     1       6.945   4.591  13.306  0.00  0.00    +0.000 C 
BRANCH  22  23
ATOM     23  O   UNL     1       7.762   5.384  14.037  0.00  0.00    +0.000 OA
ATOM     24  H   UNL     1       8.261   6.081  13.574  0.00  0.00    +0.000 HD
ENDBRANCH  22  23
ENDBRANCH  20  22
ENDBRANCH  19  20
ENDBRANCH   1  19
TORSDOF 7
ENDMDL
MODEL 7
REMARK VINA RESULT:      -7.5      0.795      1.533
REMARK  Name = 
REMARK  7 active torsions:
REMARK  status: ('A' for Active; 'I' for Inactive)
REMARK    1  A    between atoms: C_2  and  O_3
REMARK    2  A    between atoms: C_2  and  C_4
REMARK    3  A    between atoms: C_4  and  C_5
REMARK    4  A    between atoms: C_5  and  C_6
REMARK    5  A    between atoms: C_9  and  C_10
REMARK    6  A    between atoms: C_11  and  C_12
REMARK    7  A    between atoms: C_17  and  C_18
REMARK                            x       y       z     vdW  Elec       q    Type
REMARK                         _______ _______ _______ _____ _____    ______ ____
ROOT
ATOM      1  C   UNL     1       4.833   4.804  16.454  0.00  0.00    +0.000 A 
ATOM      2  C   UNL     1       5.011   6.194  16.434  0.00  0.00    +0.000 A 
ATOM      3  C   UNL     1       4.253   7.017  17.261  0.00  0.00    +0.000 A 
ATOM      4  C   UNL     1       3.310   6.457  18.119  0.00  0.00    +0.000 A 
ATOM      5  C   UNL     1       3.122   5.075  18.158  0.00  0.00    +0.000 A 
ATOM      6  C   UNL     1       3.881   4.249  17.324  0.00  0.00    +0.000 A 
ENDROOT
BRANCH   4   7
ATOM      7  C   UNL     1       2.550   7.325  18.961  0.00  0.00    +0.000 C 
ATOM      8  C   UNL     1       1.905   8.029  19.675  0.00  0.00    +0.000 C 
BRANCH   8   9
ATOM      9  C   UNL     1       1.079   8.865  20.504  0.00  0.00    +0.000 A 
ATOM     10  C   UNL     1       0.954   8.513  21.856  0.00  0.00    +0.000 A 
ATOM     11  C   UNL     1       0.138   9.258  22.703  0.00  0.00    +0.000 A 
ATOM     12  C   UNL     1      -0.557  10.354  22.204  0.00  0.00    +0.000 A 
ATOM     13  C   UNL     1      -0.427  10.714  20.861  0.00  0.00    +0.000 A 
ATOM     14  C   UNL     1       0.399   9.981  19.991  0.00  0.00    +0.000 A 
BRANCH  14  15
ATOM     15  C   UNL     1       0.486  10.406  18.542  0.00  0.00    +0.000 C 
ATOM     16  F   UNL     1       0.031   9.476  17.656  0.00  0.00    +0.000 F 
ATOM     17  F   UNL     1      -0.250  11.529  18.295  0.00  0.00    +0.000 F 
ATOM     18  F   UNL     1       1.746  10.704  18.123  0.00  0.00    +0.000 F 
ENDBRANCH  14  15
ENDBRANCH   8   9
ENDBRANCH   4   7
BRANCH   1  19
ATOM     19  C   UNL     1       5.660   3.924  15.541  0.00  0.00    +0.000 C 
BRANCH  19  20
ATOM     20  C   UNL     1       6.679   4.745  14.735  0.00  0.00    +0.000 C 
BRANCH  20  22
ATOM     21  O   UNL     1       7.501   4.885  12.481  0.00  0.00    +0.000 OA
ATOM     22  C   UNL     1       6.865   4.276  13.312  0.00  0.00    +0.000 C 
BRANCH  22  23
ATOM     23  O   UNL     1       6.261   3.103  13.014  0.00  0.00    +0.000 OA
ATOM     24  H   UNL     1       5.517   2.813  13.574  0.00  0.00    +0.000 HD
ENDBRANCH  22  23
ENDBRANCH  20  22
ENDBRANCH  19  20
ENDBRANCH   1  19
TORSDOF 7
ENDMDL
MODEL 8
REMARK VINA RESULT:      -7.5      2.029      2.690
REMARK  Name = 
REMARK  7 active torsions:
REMARK  status: ('A' for Active; 'I' for Inactive)
REMARK    1  A    between atoms: C_2  and  O_3
REMARK    2  A    between atoms: C_2  and  C_4
REMARK    3  A    between atoms: C_4  and  C_5
REMARK    4  A    between atoms: C_5  and  C_6
REMARK    5  A    between atoms: C_9  and  C_10
REMARK    6  A    between atoms: C_11  and  C_12
REMARK    7  A    between atoms: C_17  and  C_18
REMARK                            x       y       z     vdW  Elec       q    Type
REMARK                         _______ _______ _______ _____ _____    ______ ____
ROOT
ATOM      1  C   UNL     1       4.227   5.290  17.955  0.00  0.00    +0.000 A 
ATOM      2  C   UNL     1       3.420   5.211  19.099  0.00  0.00    +0.000 A 
ATOM      3  C   UNL     1       2.615   6.283  19.472  0.00  0.00    +0.000 A 
ATOM      4  C   UNL     1       2.608   7.445  18.705  0.00  0.00    +0.000 A 
ATOM      5  C   UNL     1       3.400   7.540  17.560  0.00  0.00    +0.000 A 
ATOM      6  C   UNL     1       4.211   6.465  17.187  0.00  0.00    +0.000 A 
ENDROOT
BRANCH   4   7
ATOM      7  C   UNL     1       1.768   8.526  19.109  0.00  0.00    +0.000 C 
ATOM      8  C   UNL     1       1.052   9.413  19.460  0.00  0.00    +0.000 C 
BRANCH   8   9
ATOM      9  C   UNL     1       0.146  10.462  19.845  0.00  0.00    +0.000 A 
ATOM     10  C   UNL     1      -0.118  11.466  18.902  0.00  0.00    +0.000 A 
ATOM     11  C   UNL     1      -0.956  12.530  19.225  0.00  0.00    +0.000 A 
ATOM     12  C   UNL     1      -1.529  12.598  20.491  0.00  0.00    +0.000 A 
ATOM     13  C   UNL     1      -1.275  11.595  21.429  0.00  0.00    +0.000 A 
ATOM     14  C   UNL     1      -0.441  10.506  21.119  0.00  0.00    +0.000 A 
BRANCH  14  15
ATOM     15  C   UNL     1      -0.187   9.460  22.181  0.00  0.00    +0.000 C 
ATOM     16  F   UNL     1      -0.645   8.216  21.865  0.00  0.00    +0.000 F 
ATOM     17  F   UNL     1       1.145   9.300  22.431  0.00  0.00    +0.000 F 
ATOM     18  F   UNL     1      -0.748   9.744  23.389  0.00  0.00    +0.000 F 
ENDBRANCH  14  15
ENDBRANCH   8   9
ENDBRANCH   4   7
BRANCH   1  19
ATOM     19  C   UNL     1       5.103   4.118  17.567  0.00  0.00    +0.000 C 
BRANCH  19  20
ATOM     20  C   UNL     1       5.684   4.290  16.154  0.00  0.00    +0.000 C 
BRANCH  20  22
ATOM     21  O   UNL     1       7.582   5.523  15.346  0.00  0.00    +0.000 OA
ATOM     22  C   UNL     1       7.132   4.715  16.128  0.00  0.00    +0.000 C 
BRANCH  22  23
ATOM     23  O   UNL     1       7.919   4.123  17.056  0.00  0.00    +0.000 OA
ATOM     24  H   UNL     1       8.486   3.382  16.773  0.00  0.00    +0.000 HD
ENDBRANCH  22  23
ENDBRANCH  20  22
ENDBRANCH  19  20
ENDBRANCH   1  19
TORSDOF 7
ENDMDL
MODEL 9
REMARK VINA RESULT:      -7.4      2.030      2.831
REMARK  Name = 
REMARK  7 active torsions:
REMARK  status: ('A' for Active; 'I' for Inactive)
REMARK    1  A    between atoms: C_2  and  O_3
REMARK    2  A    between atoms: C_2  and  C_4
REMARK    3  A    between atoms: C_4  and  C_5
REMARK    4  A    between atoms: C_5  and  C_6
REMARK    5  A    between atoms: C_9  and  C_10
REMARK    6  A    between atoms: C_11  and  C_12
REMARK    7  A    between atoms: C_17  and  C_18
REMARK                            x       y       z     vdW  Elec       q    Type
REMARK                         _______ _______ _______ _____ _____    ______ ____
ROOT
ATOM      1  C   UNL     1       4.177   5.335  17.829  0.00  0.00    +0.000 A 
ATOM      2  C   UNL     1       4.203   6.597  17.220  0.00  0.00    +0.000 A 
ATOM      3  C   UNL     1       3.375   7.619  17.676  0.00  0.00    +0.000 A 
ATOM      4  C   UNL     1       2.514   7.389  18.745  0.00  0.00    +0.000 A 
ATOM      5  C   UNL     1       2.478   6.141  19.368  0.00  0.00    +0.000 A 
ATOM      6  C   UNL     1       3.307   5.113  18.908  0.00  0.00    +0.000 A 
ENDROOT
BRANCH   4   7
ATOM      7  C   UNL     1       1.680   8.457  19.194  0.00  0.00    +0.000 C 
ATOM      8  C   UNL     1       1.000   9.367  19.560  0.00  0.00    +0.000 C 
BRANCH   8   9
ATOM      9  C   UNL     1       0.222  10.476  20.042  0.00  0.00    +0.000 A 
ATOM     10  C   UNL     1       0.035  11.560  19.173  0.00  0.00    +0.000 A 
ATOM     11  C   UNL     1      -0.676  12.682  19.592  0.00  0.00    +0.000 A 
ATOM     12  C   UNL     1      -1.200  12.725  20.880  0.00  0.00    +0.000 A 
ATOM     13  C   UNL     1      -1.024  11.643  21.744  0.00  0.00    +0.000 A 
ATOM     14  C   UNL     1      -0.318  10.497  21.338  0.00  0.00    +0.000 A 
BRANCH  14  15
ATOM     15  C   UNL     1      -0.143   9.364  22.324  0.00  0.00    +0.000 C 
ATOM     16  F   UNL     1      -0.725   8.192  21.942  0.00  0.00    +0.000 F 
ATOM     17  F   UNL     1       1.173   9.063  22.526  0.00  0.00    +0.000 F 
ATOM     18  F   UNL     1      -0.647   9.620  23.562  0.00  0.00    +0.000 F 
ENDBRANCH  14  15
ENDBRANCH   8   9
ENDBRANCH   4   7
BRANCH   1  19
ATOM     19  C   UNL     1       5.077   4.231  17.316  0.00  0.00    +0.000 C 
BRANCH  19  20
ATOM     20  C   UNL     1       5.613   4.547  15.910  0.00  0.00    +0.000 C 
BRANCH  20  22
ATOM     21  O   UNL     1       7.871   4.405  16.722  0.00  0.00    +0.000 OA
ATOM     22  C   UNL     1       7.107   4.753  15.850  0.00  0.00    +0.000 C 
BRANCH  22  23
ATOM     23  O   UNL     1       7.554   5.370  14.731  0.00  0.00    +0.000 OA
ATOM     24  H   UNL     1       7.766   6.319  14.783  0.00  0.00    +0.000 HD
ENDBRANCH  22  23
ENDBRANCH  20  22
ENDBRANCH  19  20
ENDBRANCH   1  19
TORSDOF 7
ENDMDL
