MODEL 1
REMARK VINA RESULT:      -8.1      0.000      0.000
REMARK  Name = 
REMARK  6 active torsions:
REMARK  status: ('A' for Active; 'I' for Inactive)
REMARK    1  A    between atoms: C_1  and  C_2
REMARK    2  A    between atoms: C_2  and  N_3
REMARK    3  A    between atoms: C_2  and  C_4
REMARK    4  A    between atoms: C_4  and  N_5
REMARK    5  A    between atoms: N_5  and  C_6
REMARK    6  A    between atoms: C_8  and  C_9
REMARK                            x       y       z     vdW  Elec       q    Type
REMARK                         _______ _______ _______ _____ _____    ______ ____
ROOT
ATOM      1  C   UNL     1       2.737   6.212  19.814  0.00  0.00    +0.000 A 
ATOM      2  N   UNL     1       3.560   5.627  18.913  0.00  0.00    +0.000 NA
ATOM      3  C   UNL     1       3.892   6.234  17.768  0.00  0.00    +0.000 A 
ATOM      4  N   UNL     1       3.486   7.449  17.401  0.00  0.00    +0.000 NA
ATOM      5  C   UNL     1       2.640   8.013  18.275  0.00  0.00    +0.000 A 
ATOM      6  S   UNL     1       2.040   9.566  17.946  0.00  0.00    +0.000 S 
ATOM      7  C   UNL     1       1.154   9.588  19.388  0.00  0.00    +0.000 A 
ATOM      8  C   UNL     1       1.264   8.411  20.112  0.00  0.00    +0.000 A 
ATOM      9  C   UNL     1       2.192   7.481  19.484  0.00  0.00    +0.000 A 
ATOM     10  C   UNL     1       0.505   8.227  21.399  0.00  0.00    +0.000 C 
ATOM     11  C   UNL     1      -0.474   9.382  21.702  0.00  0.00    +0.000 C 
ATOM     12  C   UNL     1       0.065  10.754  21.276  0.00  0.00    +0.000 C 
ATOM     13  C   UNL     1       0.340  10.783  19.771  0.00  0.00    +0.000 C 
ENDROOT
BRANCH   3  14
ATOM     14  C   UNL     1       4.851   5.553  16.897  0.00  0.00    +0.000 A 
ATOM     15  C   UNL     1       6.069   6.161  16.539  0.00  0.00    +0.000 A 
ATOM     16  C   UNL     1       6.965   5.481  15.729  0.00  0.00    +0.000 A 
ATOM     17  N   UNL     1       6.744   4.244  15.241  0.00  0.00    +0.000 NA
ATOM     18  C   UNL     1       5.569   3.668  15.583  0.00  0.00    +0.000 A 
ATOM     19  C   UNL     1       4.617   4.269  16.391  0.00  0.00    +0.000 A 
ATOM     20  F   UNL     1       3.483   3.605  16.646  0.00  0.00    +0.000 F 
ENDBRANCH   3  14
BRANCH   1  21
ATOM     21  N   UNL     1       2.524   5.524  21.030  0.00  0.00    +0.000 N 
ATOM     22  H   UNL     1       3.398   5.183  21.414  0.00  0.00    +0.000 HD
BRANCH  21  23
ATOM     23  C   UNL     1       1.497   4.473  20.871  0.00  0.00    +0.000 C 
BRANCH  23  25
ATOM     24  C   UNL     1       1.750   2.260  19.696  0.00  0.00    +0.000 C 
ATOM     25  C   UNL     1       2.083   3.046  20.967  0.00  0.00    +0.000 C 
BRANCH  25  26
ATOM     26  N   UNL     1       1.568   2.320  22.139  0.00  0.00    +0.000 NA
ATOM     27  H   UNL     1       0.852   1.657  21.829  0.00  0.00    +0.000 HD
ATOM     28  H   UNL     1       1.049   2.991  22.710  0.00  0.00    +0.000 HD
ENDBRANCH  25  26
ENDBRANCH  23  25
ENDBRANCH  21  23
ENDBRANCH   1  21
TORSDOF 5
ENDMDL
MODEL 2
REMARK VINA RESULT:      -8.0      0.972      1.347
REMARK  Name = 
REMARK  6 active torsions:
REMARK  status: ('A' for Active; 'I' for Inactive)
REMARK    1  A    between atoms: C_1  and  C_2
REMARK    2  A    between atoms: C_2  and  N_3
REMARK    3  A    between atoms: C_2  and  C_4
REMARK    4  A    between atoms: C_4  and  N_5
REMARK    5  A    between atoms: N_5  and  C_6
REMARK    6  A    between atoms: C_8  and  C_9
REMARK                            x       y       z     vdW  Elec       q    Type
REMARK                         _______ _______ _______ _____ _____    ______ ____
ROOT
ATOM      1  C   UNL     1       2.771   6.214  19.795  0.00  0.00    +0.000 A 
ATOM      2  N   UNL     1       3.612   5.638  18.904  0.00  0.00    +0.000 NA
ATOM      3  C   UNL     1       3.953   6.250  17.764  0.00  0.00    +0.000 A 
ATOM      4  N   UNL     1       3.541   7.461  17.394  0.00  0.00    +0.000 NA
ATOM      5  C   UNL     1       2.678   8.016  18.257  0.00  0.00    +0.000 A 
ATOM      6  S   UNL     1       2.068   9.564  17.922  0.00  0.00    +0.000 S 
ATOM      7  C   UNL     1       1.162   9.575  19.352  0.00  0.00    +0.000 A 
ATOM      8  C   UNL     1       1.273   8.398  20.076  0.00  0.00    +0.000 A 
ATOM      9  C   UNL     1       2.219   7.478  19.459  0.00  0.00    +0.000 A 
ATOM     10  C   UNL     1       0.499   8.204  21.352  0.00  0.00    +0.000 C 
ATOM     11  C   UNL     1      -0.494   9.350  21.644  0.00  0.00    +0.000 C 
ATOM     12  C   UNL     1       0.037  10.727  21.228  0.00  0.00    +0.000 C 
ATOM     13  C   UNL     1       0.332  10.762  19.727  0.00  0.00    +0.000 C 
ENDROOT
BRANCH   3  14
ATOM     14  C   UNL     1       4.930   5.580  16.904  0.00  0.00    +0.000 A 
ATOM     15  C   UNL     1       4.628   4.361  16.270  0.00  0.00    +0.000 A 
ATOM     16  C   UNL     1       5.568   3.763  15.445  0.00  0.00    +0.000 A 
ATOM     17  N   UNL     1       6.789   4.279  15.204  0.00  0.00    +0.000 NA
ATOM     18  C   UNL     1       7.076   5.448  15.821  0.00  0.00    +0.000 A 
ATOM     19  C   UNL     1       6.199   6.120  16.658  0.00  0.00    +0.000 A 
ATOM     20  F   UNL     1       6.603   7.262  17.226  0.00  0.00    +0.000 F 
ENDBRANCH   3  14
BRANCH   1  21
ATOM     21  N   UNL     1       2.549   5.521  21.007  0.00  0.00    +0.000 N 
ATOM     22  H   UNL     1       3.419   5.173  21.393  0.00  0.00    +0.000 HD
BRANCH  21  23
ATOM     23  C   UNL     1       1.515   4.478  20.838  0.00  0.00    +0.000 C 
BRANCH  23  25
ATOM     24  C   UNL     1       1.695   2.239  19.698  0.00  0.00    +0.000 C 
ATOM     25  C   UNL     1       2.091   3.046  20.937  0.00  0.00    +0.000 C 
BRANCH  25  26
ATOM     26  N   UNL     1       1.619   2.349  22.145  0.00  0.00    +0.000 NA
ATOM     27  H   UNL     1       2.251   2.568  22.920  0.00  0.00    +0.000 HD
ATOM     28  H   UNL     1       1.755   1.348  21.992  0.00  0.00    +0.000 HD
ENDBRANCH  25  26
ENDBRANCH  23  25
ENDBRANCH  21  23
ENDBRANCH   1  21
TORSDOF 5
ENDMDL
MODEL 3
REMARK VINA RESULT:      -7.7      1.158      1.420
REMARK  Name = 
REMARK  6 active torsions:
REMARK  status: ('A' for Active; 'I' for Inactive)
REMARK    1  A    between atoms: C_1  and  C_2
REMARK    2  A    between atoms: C_2  and  N_3
REMARK    3  A    between atoms: C_2  and  C_4
REMARK    4  A    between atoms: C_4  and  N_5
REMARK    5  A    between atoms: N_5  and  C_6
REMARK    6  A    between atoms: C_8  and  C_9
REMARK                            x       y       z     vdW  Elec       q    Type
REMARK                         _______ _______ _______ _____ _____    ______ ____
ROOT
ATOM      1  C   UNL     1       2.623   6.025  19.693  0.00  0.00    +0.000 A 
ATOM      2  N   UNL     1       3.397   5.438  18.750  0.00  0.00    +0.000 NA
ATOM      3  C   UNL     1       3.766   6.087  17.640  0.00  0.00    +0.000 A 
ATOM      4  N   UNL     1       3.449   7.348  17.351  0.00  0.00    +0.000 NA
ATOM      5  C   UNL     1       2.651   7.918  18.266  0.00  0.00    +0.000 A 
ATOM      6  S   UNL     1       2.165   9.529  18.037  0.00  0.00    +0.000 S 
ATOM      7  C   UNL     1       1.291   9.527  19.486  0.00  0.00    +0.000 A 
ATOM      8  C   UNL     1       1.317   8.303  20.137  0.00  0.00    +0.000 A 
ATOM      9  C   UNL     1       2.172   7.348  19.445  0.00  0.00    +0.000 A 
ATOM     10  C   UNL     1       0.554   8.097  21.418  0.00  0.00    +0.000 C 
ATOM     11  C   UNL     1      -0.336   9.300  21.799  0.00  0.00    +0.000 C 
ATOM     12  C   UNL     1       0.300  10.652  21.452  0.00  0.00    +0.000 C 
ATOM     13  C   UNL     1       0.569  10.753  19.949  0.00  0.00    +0.000 C 
ENDROOT
BRANCH   3  14
ATOM     14  C   UNL     1       4.668   5.393  16.720  0.00  0.00    +0.000 A 
ATOM     15  C   UNL     1       5.078   4.068  16.961  0.00  0.00    +0.000 A 
ATOM     16  C   UNL     1       5.916   3.432  16.058  0.00  0.00    +0.000 A 
ATOM     17  N   UNL     1       6.384   4.011  14.935  0.00  0.00    +0.000 NA
ATOM     18  C   UNL     1       5.992   5.286  14.712  0.00  0.00    +0.000 A 
ATOM     19  C   UNL     1       5.154   5.999  15.554  0.00  0.00    +0.000 A 
ATOM     20  F   UNL     1       4.849   7.262  15.236  0.00  0.00    +0.000 F 
ENDBRANCH   3  14
BRANCH   1  21
ATOM     21  N   UNL     1       2.367   5.281  20.867  0.00  0.00    +0.000 N 
ATOM     22  H   UNL     1       3.191   4.770  21.162  0.00  0.00    +0.000 HD
BRANCH  21  23
ATOM     23  C   UNL     1       1.168   4.432  20.704  0.00  0.00    +0.000 C 
BRANCH  23  25
ATOM     24  C   UNL     1       2.591   2.574  21.635  0.00  0.00    +0.000 C 
ATOM     25  C   UNL     1       1.512   2.927  20.608  0.00  0.00    +0.000 C 
BRANCH  25  26
ATOM     26  N   UNL     1       1.978   2.557  19.262  0.00  0.00    +0.000 NA
ATOM     27  H   UNL     1       2.538   1.703  19.330  0.00  0.00    +0.000 HD
ATOM     28  H   UNL     1       2.651   3.268  18.966  0.00  0.00    +0.000 HD
ENDBRANCH  25  26
ENDBRANCH  23  25
ENDBRANCH  21  23
ENDBRANCH   1  21
TORSDOF 5
ENDMDL
MODEL 4
REMARK VINA RESULT:      -7.3      3.015      5.236
REMARK  Name = 
REMARK  6 active torsions:
REMARK  status: ('A' for Active; 'I' for Inactive)
REMARK    1  A    between atoms: C_1  and  C_2
REMARK    2  A    between atoms: C_2  and  N_3
REMARK    3  A    between atoms: C_2  and  C_4
REMARK    4  A    between atoms: C_4  and  N_5
REMARK    5  A    between atoms: N_5  and  C_6
REMARK    6  A    between atoms: C_8  and  C_9
REMARK                            x       y       z     vdW  Elec       q    Type
REMARK                         _______ _______ _______ _____ _____    ______ ____
ROOT
ATOM      1  C   UNL     1       0.410   9.815  18.452  0.00  0.00    +0.000 A 
ATOM      2  N   UNL     1       1.276   8.889  17.979  0.00  0.00    +0.000 NA
ATOM      3  C   UNL     1       1.956   8.079  18.799  0.00  0.00    +0.000 A 
ATOM      4  N   UNL     1       1.848   8.071  20.127  0.00  0.00    +0.000 NA
ATOM      5  C   UNL     1       1.019   9.013  20.598  0.00  0.00    +0.000 A 
ATOM      6  S   UNL     1       0.776   9.124  22.275  0.00  0.00    +0.000 S 
ATOM      7  C   UNL     1      -0.314  10.405  22.087  0.00  0.00    +0.000 A 
ATOM      8  C   UNL     1      -0.474  10.794  20.766  0.00  0.00    +0.000 A 
ATOM      9  C   UNL     1       0.277   9.935  19.861  0.00  0.00    +0.000 A 
ATOM     10  C   UNL     1      -1.367  11.952  20.408  0.00  0.00    +0.000 C 
ATOM     11  C   UNL     1      -1.917  12.703  21.640  0.00  0.00    +0.000 C 
ATOM     12  C   UNL     1      -2.240  11.772  22.816  0.00  0.00    +0.000 C 
ATOM     13  C   UNL     1      -0.987  11.022  23.272  0.00  0.00    +0.000 C 
ENDROOT
BRANCH   3  14
ATOM     14  C   UNL     1       2.808   7.059  18.187  0.00  0.00    +0.000 A 
ATOM     15  C   UNL     1       3.926   7.414  17.410  0.00  0.00    +0.000 A 
ATOM     16  C   UNL     1       4.725   6.422  16.861  0.00  0.00    +0.000 A 
ATOM     17  N   UNL     1       4.498   5.103  17.021  0.00  0.00    +0.000 NA
ATOM     18  C   UNL     1       3.418   4.769  17.765  0.00  0.00    +0.000 A 
ATOM     19  C   UNL     1       2.567   5.689  18.355  0.00  0.00    +0.000 A 
ATOM     20  F   UNL     1       1.520   5.237  19.054  0.00  0.00    +0.000 F 
ENDBRANCH   3  14
BRANCH   1  21
ATOM     21  N   UNL     1      -0.323  10.555  17.497  0.00  0.00    +0.000 N 
ATOM     22  H   UNL     1      -0.338  11.541  17.733  0.00  0.00    +0.000 HD
BRANCH  21  23
ATOM     23  C   UNL     1      -1.666   9.973  17.291  0.00  0.00    +0.000 C 
BRANCH  23  25
ATOM     24  C   UNL     1      -4.069  10.598  17.712  0.00  0.00    +0.000 C 
ATOM     25  C   UNL     1      -2.754  11.047  17.068  0.00  0.00    +0.000 C 
BRANCH  25  26
ATOM     26  N   UNL     1      -2.977  11.312  15.637  0.00  0.00    +0.000 NA
ATOM     27  H   UNL     1      -2.304  10.767  15.092  0.00  0.00    +0.000 HD
ATOM     28  H   UNL     1      -2.707  12.282  15.461  0.00  0.00    +0.000 HD
ENDBRANCH  25  26
ENDBRANCH  23  25
ENDBRANCH  21  23
ENDBRANCH   1  21
TORSDOF 5
ENDMDL
MODEL 5
REMARK VINA RESULT:      -7.1      3.060      5.580
REMARK  Name = 
REMARK  6 active torsions:
REMARK  status: ('A' for Active; 'I' for Inactive)
REMARK    1  A    between atoms: C_1  and  C_2
REMARK    2  A    between atoms: C_2  and  N_3
REMARK    3  A    between atoms: C_2  and  C_4
REMARK    4  A    between atoms: C_4  and  N_5
REMARK    5  A    between atoms: N_5  and  C_6
REMARK    6  A    between atoms: C_8  and  C_9
REMARK                            x       y       z     vdW  Elec       q    Type
REMARK                         _______ _______ _______ _____ _____    ______ ____
ROOT
ATOM      1  C   UNL     1       0.417   9.847  18.881  0.00  0.00    +0.000 A 
ATOM      2  N   UNL     1       1.263   8.820  18.630  0.00  0.00    +0.000 NA
ATOM      3  C   UNL     1       1.737   8.045  19.611  0.00  0.00    +0.000 A 
ATOM      4  N   UNL     1       1.427   8.170  20.901  0.00  0.00    +0.000 NA
ATOM      5  C   UNL     1       0.620   9.210  21.155  0.00  0.00    +0.000 A 
ATOM      6  S   UNL     1       0.134   9.495  22.757  0.00  0.00    +0.000 S 
ATOM      7  C   UNL     1      -0.801  10.828  22.292  0.00  0.00    +0.000 A 
ATOM      8  C   UNL     1      -0.723  11.101  20.935  0.00  0.00    +0.000 A 
ATOM      9  C   UNL     1       0.081  10.109  20.235  0.00  0.00    +0.000 A 
ATOM     10  C   UNL     1      -1.448  12.281  20.345  0.00  0.00    +0.000 C 
ATOM     11  C   UNL     1      -2.113  13.183  21.408  0.00  0.00    +0.000 C 
ATOM     12  C   UNL     1      -2.691  12.394  22.590  0.00  0.00    +0.000 C 
ATOM     13  C   UNL     1      -1.591  11.602  23.300  0.00  0.00    +0.000 C 
ENDROOT
BRANCH   3  14
ATOM     14  C   UNL     1       2.582   6.913  19.229  0.00  0.00    +0.000 A 
ATOM     15  C   UNL     1       2.665   5.762  20.035  0.00  0.00    +0.000 A 
ATOM     16  C   UNL     1       3.459   4.698  19.634  0.00  0.00    +0.000 A 
ATOM     17  N   UNL     1       4.181   4.689  18.496  0.00  0.00    +0.000 NA
ATOM     18  C   UNL     1       4.101   5.801  17.730  0.00  0.00    +0.000 A 
ATOM     19  C   UNL     1       3.332   6.909  18.047  0.00  0.00    +0.000 A 
ATOM     20  F   UNL     1       3.347   7.958  17.216  0.00  0.00    +0.000 F 
ENDBRANCH   3  14
BRANCH   1  21
ATOM     21  N   UNL     1      -0.094  10.545  17.763  0.00  0.00    +0.000 N 
ATOM     22  H   UNL     1      -0.083  11.546  17.922  0.00  0.00    +0.000 HD
BRANCH  21  23
ATOM     23  C   UNL     1      -1.420  10.021  17.373  0.00  0.00    +0.000 C 
BRANCH  23  25
ATOM     24  C   UNL     1      -3.781  10.864  17.608  0.00  0.00    +0.000 C 
ATOM     25  C   UNL     1      -2.412  11.140  16.981  0.00  0.00    +0.000 C 
BRANCH  25  26
ATOM     26  N   UNL     1      -2.558  11.255  15.520  0.00  0.00    +0.000 NA
ATOM     27  H   UNL     1      -3.554  11.326  15.293  0.00  0.00    +0.000 HD
ATOM     28  H   UNL     1      -2.276  10.360  15.114  0.00  0.00    +0.000 HD
ENDBRANCH  25  26
ENDBRANCH  23  25
ENDBRANCH  21  23
ENDBRANCH   1  21
TORSDOF 5
ENDMDL
MODEL 6
REMARK VINA RESULT:      -7.1      2.880      5.288
REMARK  Name = 
REMARK  6 active torsions:
REMARK  status: ('A' for Active; 'I' for Inactive)
REMARK    1  A    between atoms: C_1  and  C_2
REMARK    2  A    between atoms: C_2  and  N_3
REMARK    3  A    between atoms: C_2  and  C_4
REMARK    4  A    between atoms: C_4  and  N_5
REMARK    5  A    between atoms: N_5  and  C_6
REMARK    6  A    between atoms: C_8  and  C_9
REMARK                            x       y       z     vdW  Elec       q    Type
REMARK                         _______ _______ _______ _____ _____    ______ ____
ROOT
ATOM      1  C   UNL     1       4.389   5.682  17.398  0.00  0.00    +0.000 A 
ATOM      2  N   UNL     1       5.095   5.550  16.251  0.00  0.00    +0.000 NA
ATOM      3  C   UNL     1       5.273   4.360  15.669  0.00  0.00    +0.000 A 
ATOM      4  N   UNL     1       4.776   3.207  16.118  0.00  0.00    +0.000 NA
ATOM      5  C   UNL     1       4.109   3.331  17.274  0.00  0.00    +0.000 A 
ATOM      6  S   UNL     1       3.413   1.947  17.968  0.00  0.00    +0.000 S 
ATOM      7  C   UNL     1       2.787   2.844  19.260  0.00  0.00    +0.000 A 
ATOM      8  C   UNL     1       3.131   4.186  19.208  0.00  0.00    +0.000 A 
ATOM      9  C   UNL     1       3.877   4.500  17.997  0.00  0.00    +0.000 A 
ATOM     10  C   UNL     1       2.707   5.132  20.300  0.00  0.00    +0.000 C 
ATOM     11  C   UNL     1       2.022   4.423  21.489  0.00  0.00    +0.000 C 
ATOM     12  C   UNL     1       1.140   3.244  21.060  0.00  0.00    +0.000 C 
ATOM     13  C   UNL     1       1.970   2.187  20.327  0.00  0.00    +0.000 C 
ENDROOT
BRANCH   3  14
ATOM     14  C   UNL     1       5.984   4.332  14.390  0.00  0.00    +0.000 A 
ATOM     15  C   UNL     1       5.480   3.611  13.291  0.00  0.00    +0.000 A 
ATOM     16  C   UNL     1       6.167   3.623  12.087  0.00  0.00    +0.000 A 
ATOM     17  N   UNL     1       7.320   4.293  11.889  0.00  0.00    +0.000 NA
ATOM     18  C   UNL     1       7.802   4.979  12.951  0.00  0.00    +0.000 A 
ATOM     19  C   UNL     1       7.183   5.028  14.189  0.00  0.00    +0.000 A 
ATOM     20  F   UNL     1       7.765   5.728  15.170  0.00  0.00    +0.000 F 
ENDBRANCH   3  14
BRANCH   1  21
ATOM     21  N   UNL     1       4.185   6.995  17.880  0.00  0.00    +0.000 N 
ATOM     22  H   UNL     1       4.337   7.045  18.881  0.00  0.00    +0.000 HD
BRANCH  21  23
ATOM     23  C   UNL     1       2.870   7.517  17.453  0.00  0.00    +0.000 C 
BRANCH  23  25
ATOM     24  C   UNL     1       1.698   8.428  19.487  0.00  0.00    +0.000 C 
ATOM     25  C   UNL     1       2.462   8.800  18.213  0.00  0.00    +0.000 C 
BRANCH  25  26
ATOM     26  N   UNL     1       1.627   9.686  17.384  0.00  0.00    +0.000 NA
ATOM     27  H   UNL     1       1.793   9.467  16.398  0.00  0.00    +0.000 HD
ATOM     28  H   UNL     1       1.993  10.635  17.490  0.00  0.00    +0.000 HD
ENDBRANCH  25  26
ENDBRANCH  23  25
ENDBRANCH  21  23
ENDBRANCH   1  21
TORSDOF 5
ENDMDL
MODEL 7
REMARK VINA RESULT:      -7.0      2.570      6.567
REMARK  Name = 
REMARK  6 active torsions:
REMARK  status: ('A' for Active; 'I' for Inactive)
REMARK    1  A    between atoms: C_1  and  C_2
REMARK    2  A    between atoms: C_2  and  N_3
REMARK    3  A    between atoms: C_2  and  C_4
REMARK    4  A    between atoms: C_4  and  N_5
REMARK    5  A    between atoms: N_5  and  C_6
REMARK    6  A    between atoms: C_8  and  C_9
REMARK                            x       y       z     vdW  Elec       q    Type
REMARK                         _______ _______ _______ _____ _____    ______ ____
ROOT
ATOM      1  C   UNL     1       2.007   6.221  20.544  0.00  0.00    +0.000 A 
ATOM      2  N   UNL     1       1.263   7.206  21.099  0.00  0.00    +0.000 NA
ATOM      3  C   UNL     1       1.175   8.419  20.542  0.00  0.00    +0.000 A 
ATOM      4  N   UNL     1       1.765   8.782  19.404  0.00  0.00    +0.000 NA
ATOM      5  C   UNL     1       2.532   7.820  18.873  0.00  0.00    +0.000 A 
ATOM      6  S   UNL     1       3.347   8.133  17.417  0.00  0.00    +0.000 S 
ATOM      7  C   UNL     1       4.008   6.576  17.389  0.00  0.00    +0.000 A 
ATOM      8  C   UNL     1       3.661   5.816  18.495  0.00  0.00    +0.000 A 
ATOM      9  C   UNL     1       2.735   6.530  19.364  0.00  0.00    +0.000 A 
ATOM     10  C   UNL     1       4.197   4.421  18.669  0.00  0.00    +0.000 C 
ATOM     11  C   UNL     1       5.246   4.032  17.605  0.00  0.00    +0.000 C 
ATOM     12  C   UNL     1       4.934   4.606  16.216  0.00  0.00    +0.000 C 
ATOM     13  C   UNL     1       4.888   6.135  16.262  0.00  0.00    +0.000 C 
ENDROOT
BRANCH   3  14
ATOM     14  C   UNL     1       0.282   9.390  21.176  0.00  0.00    +0.000 A 
ATOM     15  C   UNL     1       0.013   9.339  22.556  0.00  0.00    +0.000 A 
ATOM     16  C   UNL     1      -0.820  10.288  23.130  0.00  0.00    +0.000 A 
ATOM     17  N   UNL     1      -1.411  11.282  22.438  0.00  0.00    +0.000 NA
ATOM     18  C   UNL     1      -1.153  11.322  21.111  0.00  0.00    +0.000 A 
ATOM     19  C   UNL     1      -0.331  10.421  20.453  0.00  0.00    +0.000 A 
ATOM     20  F   UNL     1      -0.164  10.553  19.132  0.00  0.00    +0.000 F 
ENDBRANCH   3  14
BRANCH   1  21
ATOM     21  N   UNL     1       1.960   4.953  21.165  0.00  0.00    +0.000 N 
ATOM     22  H   UNL     1       2.891   4.572  21.288  0.00  0.00    +0.000 HD
BRANCH  21  23
ATOM     23  C   UNL     1       1.038   4.046  20.448  0.00  0.00    +0.000 C 
BRANCH  23  25
ATOM     24  C   UNL     1       2.688   2.435  21.459  0.00  0.00    +0.000 C 
ATOM     25  C   UNL     1       1.426   2.558  20.600  0.00  0.00    +0.000 C 
BRANCH  25  26
ATOM     26  N   UNL     1       1.659   1.916  19.296  0.00  0.00    +0.000 NA
ATOM     27  H   UNL     1       1.444   0.919  19.376  0.00  0.00    +0.000 HD
ATOM     28  H   UNL     1       2.666   1.938  19.121  0.00  0.00    +0.000 HD
ENDBRANCH  25  26
ENDBRANCH  23  25
ENDBRANCH  21  23
ENDBRANCH   1  21
TORSDOF 5
ENDMDL
MODEL 8
REMARK VINA RESULT:      -6.9      2.673      6.564
REMARK  Name = 
REMARK  6 active torsions:
REMARK  status: ('A' for Active; 'I' for Inactive)
REMARK    1  A    between atoms: C_1  and  C_2
REMARK    2  A    between atoms: C_2  and  N_3
REMARK    3  A    between atoms: C_2  and  C_4
REMARK    4  A    between atoms: C_4  and  N_5
REMARK    5  A    between atoms: N_5  and  C_6
REMARK    6  A    between atoms: C_8  and  C_9
REMARK                            x       y       z     vdW  Elec       q    Type
REMARK                         _______ _______ _______ _____ _____    ______ ____
ROOT
ATOM      1  C   UNL     1       2.020   6.406  20.443  0.00  0.00    +0.000 A 
ATOM      2  N   UNL     1       1.281   7.435  20.918  0.00  0.00    +0.000 NA
ATOM      3  C   UNL     1       1.221   8.609  20.281  0.00  0.00    +0.000 A 
ATOM      4  N   UNL     1       1.838   8.889  19.134  0.00  0.00    +0.000 NA
ATOM      5  C   UNL     1       2.601   7.883  18.682  0.00  0.00    +0.000 A 
ATOM      6  S   UNL     1       3.447   8.090  17.225  0.00  0.00    +0.000 S 
ATOM      7  C   UNL     1       4.086   6.525  17.312  0.00  0.00    +0.000 A 
ATOM      8  C   UNL     1       3.706   5.844  18.459  0.00  0.00    +0.000 A 
ATOM      9  C   UNL     1       2.775   6.626  19.260  0.00  0.00    +0.000 A 
ATOM     10  C   UNL     1       4.218   4.456  18.734  0.00  0.00    +0.000 C 
ATOM     11  C   UNL     1       5.281   3.984  17.718  0.00  0.00    +0.000 C 
ATOM     12  C   UNL     1       5.005   4.470  16.289  0.00  0.00    +0.000 C 
ATOM     13  C   UNL     1       4.980   5.999  16.234  0.00  0.00    +0.000 C 
ENDROOT
BRANCH   3  14
ATOM     14  C   UNL     1       0.332   9.633  20.833  0.00  0.00    +0.000 A 
ATOM     15  C   UNL     1      -0.474  10.426  19.996  0.00  0.00    +0.000 A 
ATOM     16  C   UNL     1      -1.321  11.373  20.552  0.00  0.00    +0.000 A 
ATOM     17  N   UNL     1      -1.427  11.597  21.876  0.00  0.00    +0.000 NA
ATOM     18  C   UNL     1      -0.645  10.834  22.675  0.00  0.00    +0.000 A 
ATOM     19  C   UNL     1       0.226   9.863  22.211  0.00  0.00    +0.000 A 
ATOM     20  F   UNL     1       0.961   9.184  23.099  0.00  0.00    +0.000 F 
ENDBRANCH   3  14
BRANCH   1  21
ATOM     21  N   UNL     1       1.942   5.181  21.145  0.00  0.00    +0.000 N 
ATOM     22  H   UNL     1       2.860   4.766  21.257  0.00  0.00    +0.000 HD
BRANCH  21  23
ATOM     23  C   UNL     1       0.953   4.276  20.521  0.00  0.00    +0.000 C 
BRANCH  23  25
ATOM     24  C   UNL     1       2.537   2.649  21.609  0.00  0.00    +0.000 C 
ATOM     25  C   UNL     1       1.322   2.784  20.689  0.00  0.00    +0.000 C 
BRANCH  25  26
ATOM     26  N   UNL     1       1.615   2.144  19.396  0.00  0.00    +0.000 NA
ATOM     27  H   UNL     1       2.141   2.801  18.814  0.00  0.00    +0.000 HD
ATOM     28  H   UNL     1       0.726   2.035  18.902  0.00  0.00    +0.000 HD
ENDBRANCH  25  26
ENDBRANCH  23  25
ENDBRANCH  21  23
ENDBRANCH   1  21
TORSDOF 5
ENDMDL
MODEL 9
REMARK VINA RESULT:      -6.8      2.790      5.145
REMARK  Name = 
REMARK  6 active torsions:
REMARK  status: ('A' for Active; 'I' for Inactive)
REMARK    1  A    between atoms: C_1  and  C_2
REMARK    2  A    between atoms: C_2  and  N_3
REMARK    3  A    between atoms: C_2  and  C_4
REMARK    4  A    between atoms: C_4  and  N_5
REMARK    5  A    between atoms: N_5  and  C_6
REMARK    6  A    between atoms: C_8  and  C_9
REMARK                            x       y       z     vdW  Elec       q    Type
REMARK                         _______ _______ _______ _____ _____    ______ ____
ROOT
ATOM      1  C   UNL     1       4.450   5.900  17.294  0.00  0.00    +0.000 A 
ATOM      2  N   UNL     1       5.182   5.781  16.161  0.00  0.00    +0.000 NA
ATOM      3  C   UNL     1       5.378   4.596  15.573  0.00  0.00    +0.000 A 
ATOM      4  N   UNL     1       4.878   3.438  16.002  0.00  0.00    +0.000 NA
ATOM      5  C   UNL     1       4.186   3.549  17.145  0.00  0.00    +0.000 A 
ATOM      6  S   UNL     1       3.482   2.156  17.813  0.00  0.00    +0.000 S 
ATOM      7  C   UNL     1       2.824   3.039  19.098  0.00  0.00    +0.000 A 
ATOM      8  C   UNL     1       3.162   4.384  19.064  0.00  0.00    +0.000 A 
ATOM      9  C   UNL     1       3.932   4.711  17.872  0.00  0.00    +0.000 A 
ATOM     10  C   UNL     1       2.709   5.318  20.154  0.00  0.00    +0.000 C 
ATOM     11  C   UNL     1       2.003   4.597  21.322  0.00  0.00    +0.000 C 
ATOM     12  C   UNL     1       1.136   3.416  20.865  0.00  0.00    +0.000 C 
ATOM     13  C   UNL     1       1.987   2.370  20.142  0.00  0.00    +0.000 C 
ENDROOT
BRANCH   3  14
ATOM     14  C   UNL     1       6.117   4.583  14.310  0.00  0.00    +0.000 A 
ATOM     15  C   UNL     1       7.362   5.226  14.187  0.00  0.00    +0.000 A 
ATOM     16  C   UNL     1       8.046   5.176  12.981  0.00  0.00    +0.000 A 
ATOM     17  N   UNL     1       7.586   4.542  11.885  0.00  0.00    +0.000 NA
ATOM     18  C   UNL     1       6.385   3.931  12.008  0.00  0.00    +0.000 A 
ATOM     19  C   UNL     1       5.634   3.923  13.172  0.00  0.00    +0.000 A 
ATOM     20  F   UNL     1       4.451   3.298  13.167  0.00  0.00    +0.000 F 
ENDBRANCH   3  14
BRANCH   1  21
ATOM     21  N   UNL     1       4.230   7.209  17.781  0.00  0.00    +0.000 N 
ATOM     22  H   UNL     1       4.444   7.271  18.770  0.00  0.00    +0.000 HD
BRANCH  21  23
ATOM     23  C   UNL     1       2.871   7.679  17.438  0.00  0.00    +0.000 C 
BRANCH  23  25
ATOM     24  C   UNL     1       1.520   8.536  19.382  0.00  0.00    +0.000 C 
ATOM     25  C   UNL     1       2.454   8.935  18.237  0.00  0.00    +0.000 C 
BRANCH  25  26
ATOM     26  N   UNL     1       1.784   9.930  17.383  0.00  0.00    +0.000 NA
ATOM     27  H   UNL     1       1.025  10.363  17.916  0.00  0.00    +0.000 HD
ATOM     28  H   UNL     1       1.302   9.419  16.641  0.00  0.00    +0.000 HD
ENDBRANCH  25  26
ENDBRANCH  23  25
ENDBRANCH  21  23
ENDBRANCH   1  21
TORSDOF 5
ENDMDL
