MODEL 1
REMARK VINA RESULT:      -6.6      0.000      0.000
REMARK  Name = 
REMARK  14 active torsions:
REMARK  status: ('A' for Active; 'I' for Inactive)
REMARK    1  A    between atoms: C_1  and  O_2
REMARK    2  A    between atoms: O_2  and  S_3
REMARK    3  A    between atoms: S_3  and  N_4
REMARK    4  A    between atoms: N_4  and  N_18
REMARK    5  A    between atoms: C_5  and  C_7
REMARK    6  A    between atoms: C_12  and  C_13
REMARK    7  A    between atoms: C_15  and  C_16
REMARK    8  A    between atoms: N_18  and  C_29
REMARK    9  A    between atoms: C_19  and  C_21
REMARK   10  A    between atoms: C_23  and  C_24
REMARK   11  A    between atoms: C_26  and  C_27
REMARK   12  A    between atoms: C_29  and  C_30
REMARK   13  A    between atoms: C_29  and  C_31
REMARK   14  A    between atoms: C_29  and  C_32
REMARK                            x       y       z     vdW  Elec       q    Type
REMARK                         _______ _______ _______ _____ _____    ______ ____
ROOT
ATOM      1  N   UNL     1       0.021  12.302  20.673  0.00  0.00    +0.000 N 
ATOM      2  C   UNL     1      -0.799  12.830  19.639  0.00  0.00    +0.000 C 
ATOM      3  O   UNL     1      -0.354  13.549  18.737  0.00  0.00    +0.000 OA
ENDROOT
BRANCH   2   4
ATOM      4  C   UNL     1      -2.284  12.656  19.640  0.00  0.00    +0.000 A 
ATOM      5  C   UNL     1      -3.096  13.533  20.381  0.00  0.00    +0.000 A 
ATOM      6  C   UNL     1      -4.489  13.430  20.339  0.00  0.00    +0.000 A 
ATOM      7  C   UNL     1      -5.054  12.409  19.599  0.00  0.00    +0.000 A 
ATOM      8  C   UNL     1      -4.264  11.507  18.910  0.00  0.00    +0.000 A 
ATOM      9  C   UNL     1      -2.875  11.587  18.905  0.00  0.00    +0.000 A 
ATOM     10  C   UNL     1      -2.082  10.563  18.138  0.00  0.00    +0.000 C 
ATOM     11  O   UNL     1      -4.989  10.550  18.244  0.00  0.00    +0.000 OA
ATOM     12  C   UNL     1      -6.382  10.876  18.477  0.00  0.00    +0.000 C 
ATOM     13  C   UNL     1      -7.071   9.643  19.043  0.00  0.00    +0.000 C 
ATOM     14  C   UNL     1      -6.485  12.078  19.422  0.00  0.00    +0.000 C 
ENDBRANCH   2   4
BRANCH   1  15
ATOM     15  N   UNL     1      -0.285  11.117  21.448  0.00  0.00    +0.000 N 
ATOM     16  C   UNL     1      -0.894  11.194  22.731  0.00  0.00    +0.000 C 
ATOM     17  O   UNL     1      -0.907  10.244  23.519  0.00  0.00    +0.000 OA
BRANCH  16  18
ATOM     18  C   UNL     1      -1.688  12.358  23.200  0.00  0.00    +0.000 A 
ATOM     19  C   UNL     1      -3.050  12.158  23.489  0.00  0.00    +0.000 A 
ATOM     20  C   UNL     1      -3.868  13.226  23.894  0.00  0.00    +0.000 A 
ATOM     21  C   UNL     1      -5.339  13.046  24.143  0.00  0.00    +0.000 C 
ATOM     22  C   UNL     1      -3.287  14.488  24.068  0.00  0.00    +0.000 A 
ATOM     23  C   UNL     1      -1.923  14.679  23.852  0.00  0.00    +0.000 A 
ATOM     24  C   UNL     1      -1.312  16.041  24.036  0.00  0.00    +0.000 C 
ATOM     25  C   UNL     1      -1.117  13.607  23.415  0.00  0.00    +0.000 A 
ENDBRANCH  16  18
BRANCH  15  26
ATOM     26  C   UNL     1       0.412   9.824  21.020  0.00  0.00    +0.000 C 
ATOM     27  C   UNL     1      -0.588   8.640  21.021  0.00  0.00    +0.000 C 
ATOM     28  C   UNL     1       0.996   9.966  19.585  0.00  0.00    +0.000 C 
ATOM     29  C   UNL     1       1.656   9.402  21.855  0.00  0.00    +0.000 C 
ENDBRANCH  15  26
ENDBRANCH   1  15
BRANCH   1  30
ATOM     30  S   UNL     1       1.659  12.898  20.722  0.00  0.00    +0.000 S 
BRANCH  30  32
ATOM     31  C   UNL     1       1.448  15.370  21.457  0.00  0.00    +0.000 C 
ATOM     32  O   UNL     1       1.519  14.030  21.920  0.00  0.00    +0.000 OA
ENDBRANCH  30  32
ENDBRANCH   1  30
TORSDOF 6
ENDMDL
MODEL 2
REMARK VINA RESULT:      -6.3      0.151      1.702
REMARK  Name = 
REMARK  14 active torsions:
REMARK  status: ('A' for Active; 'I' for Inactive)
REMARK    1  A    between atoms: C_1  and  O_2
REMARK    2  A    between atoms: O_2  and  S_3
REMARK    3  A    between atoms: S_3  and  N_4
REMARK    4  A    between atoms: N_4  and  N_18
REMARK    5  A    between atoms: C_5  and  C_7
REMARK    6  A    between atoms: C_12  and  C_13
REMARK    7  A    between atoms: C_15  and  C_16
REMARK    8  A    between atoms: N_18  and  C_29
REMARK    9  A    between atoms: C_19  and  C_21
REMARK   10  A    between atoms: C_23  and  C_24
REMARK   11  A    between atoms: C_26  and  C_27
REMARK   12  A    between atoms: C_29  and  C_30
REMARK   13  A    between atoms: C_29  and  C_31
REMARK   14  A    between atoms: C_29  and  C_32
REMARK                            x       y       z     vdW  Elec       q    Type
REMARK                         _______ _______ _______ _____ _____    ______ ____
ROOT
ATOM      1  N   UNL     1      -0.012  12.438  20.689  0.00  0.00    +0.000 N 
ATOM      2  C   UNL     1      -0.850  12.984  19.679  0.00  0.00    +0.000 C 
ATOM      3  O   UNL     1      -0.428  13.752  18.807  0.00  0.00    +0.000 OA
ENDROOT
BRANCH   2   4
ATOM      4  C   UNL     1      -2.329  12.769  19.676  0.00  0.00    +0.000 A 
ATOM      5  C   UNL     1      -3.167  13.616  20.423  0.00  0.00    +0.000 A 
ATOM      6  C   UNL     1      -4.556  13.475  20.379  0.00  0.00    +0.000 A 
ATOM      7  C   UNL     1      -5.091  12.444  19.629  0.00  0.00    +0.000 A 
ATOM      8  C   UNL     1      -4.275  11.571  18.934  0.00  0.00    +0.000 A 
ATOM      9  C   UNL     1      -2.889  11.690  18.931  0.00  0.00    +0.000 A 
ATOM     10  C   UNL     1      -2.066  10.695  18.157  0.00  0.00    +0.000 C 
ATOM     11  O   UNL     1      -4.972  10.599  18.258  0.00  0.00    +0.000 OA
ATOM     12  C   UNL     1      -6.373  10.884  18.491  0.00  0.00    +0.000 C 
ATOM     13  C   UNL     1      -7.029   9.628  19.047  0.00  0.00    +0.000 C 
ATOM     14  C   UNL     1      -6.512  12.075  19.447  0.00  0.00    +0.000 C 
ENDBRANCH   2   4
BRANCH   1  15
ATOM     15  N   UNL     1      -0.282  11.214  21.416  0.00  0.00    +0.000 N 
ATOM     16  C   UNL     1      -0.893  11.222  22.700  0.00  0.00    +0.000 C 
ATOM     17  O   UNL     1      -0.878  10.242  23.450  0.00  0.00    +0.000 OA
BRANCH  16  18
ATOM     18  C   UNL     1      -1.722  12.342  23.213  0.00  0.00    +0.000 A 
ATOM     19  C   UNL     1      -1.101  13.588  23.416  0.00  0.00    +0.000 A 
ATOM     20  C   UNL     1      -1.817  14.677  23.941  0.00  0.00    +0.000 A 
ATOM     21  C   UNL     1      -1.155  15.995  24.226  0.00  0.00    +0.000 C 
ATOM     22  C   UNL     1      -3.183  14.519  24.202  0.00  0.00    +0.000 A 
ATOM     23  C   UNL     1      -3.823  13.307  23.937  0.00  0.00    +0.000 A 
ATOM     24  C   UNL     1      -5.289  13.148  24.228  0.00  0.00    +0.000 C 
ATOM     25  C   UNL     1      -3.087  12.212  23.439  0.00  0.00    +0.000 A 
ENDBRANCH  16  18
BRANCH  15  26
ATOM     26  C   UNL     1       0.455   9.961  20.938  0.00  0.00    +0.000 C 
ATOM     27  C   UNL     1       1.605   9.603  21.912  0.00  0.00    +0.000 C 
ATOM     28  C   UNL     1      -0.517   8.749  20.865  0.00  0.00    +0.000 C 
ATOM     29  C   UNL     1       1.043  10.015  19.498  0.00  0.00    +0.000 C 
ENDBRANCH  15  26
ENDBRANCH   1  15
BRANCH   1  30
ATOM     30  S   UNL     1       1.609  13.078  20.759  0.00  0.00    +0.000 S 
BRANCH  30  32
ATOM     31  C   UNL     1       1.757  15.462  21.755  0.00  0.00    +0.000 C 
ATOM     32  O   UNL     1       1.460  14.105  22.048  0.00  0.00    +0.000 OA
ENDBRANCH  30  32
ENDBRANCH   1  30
TORSDOF 6
ENDMDL
MODEL 3
REMARK VINA RESULT:      -6.3      8.717     11.329
REMARK  Name = 
REMARK  14 active torsions:
REMARK  status: ('A' for Active; 'I' for Inactive)
REMARK    1  A    between atoms: C_1  and  O_2
REMARK    2  A    between atoms: O_2  and  S_3
REMARK    3  A    between atoms: S_3  and  N_4
REMARK    4  A    between atoms: N_4  and  N_18
REMARK    5  A    between atoms: C_5  and  C_7
REMARK    6  A    between atoms: C_12  and  C_13
REMARK    7  A    between atoms: C_15  and  C_16
REMARK    8  A    between atoms: N_18  and  C_29
REMARK    9  A    between atoms: C_19  and  C_21
REMARK   10  A    between atoms: C_23  and  C_24
REMARK   11  A    between atoms: C_26  and  C_27
REMARK   12  A    between atoms: C_29  and  C_30
REMARK   13  A    between atoms: C_29  and  C_31
REMARK   14  A    between atoms: C_29  and  C_32
REMARK                            x       y       z     vdW  Elec       q    Type
REMARK                         _______ _______ _______ _____ _____    ______ ____
ROOT
ATOM      1  N   UNL     1      10.620  14.790  19.083  0.00  0.00    +0.000 N 
ATOM      2  C   UNL     1       9.793  15.540  18.203  0.00  0.00    +0.000 C 
ATOM      3  O   UNL     1      10.219  16.488  17.533  0.00  0.00    +0.000 OA
ENDROOT
BRANCH   2   4
ATOM      4  C   UNL     1       8.317  15.315  18.120  0.00  0.00    +0.000 A 
ATOM      5  C   UNL     1       7.816  14.090  17.646  0.00  0.00    +0.000 A 
ATOM      6  C   UNL     1       6.443  13.834  17.626  0.00  0.00    +0.000 A 
ATOM      7  C   UNL     1       5.579  14.835  18.028  0.00  0.00    +0.000 A 
ATOM      8  C   UNL     1       6.057  16.064  18.445  0.00  0.00    +0.000 A 
ATOM      9  C   UNL     1       7.417  16.353  18.503  0.00  0.00    +0.000 A 
ATOM     10  C   UNL     1       7.862  17.716  18.959  0.00  0.00    +0.000 C 
ATOM     11  O   UNL     1       5.062  16.944  18.791  0.00  0.00    +0.000 OA
ATOM     12  C   UNL     1       3.819  16.217  18.633  0.00  0.00    +0.000 C 
ATOM     13  C   UNL     1       2.908  17.025  17.720  0.00  0.00    +0.000 C 
ATOM     14  C   UNL     1       4.100  14.818  18.072  0.00  0.00    +0.000 C 
ENDBRANCH   2   4
BRANCH   1  15
ATOM     15  N   UNL     1      10.354  13.432  19.512  0.00  0.00    +0.000 N 
ATOM     16  C   UNL     1       9.796  13.142  20.787  0.00  0.00    +0.000 C 
ATOM     17  O   UNL     1       9.822  12.012  21.282  0.00  0.00    +0.000 OA
BRANCH  16  18
ATOM     18  C   UNL     1       9.011  14.116  21.586  0.00  0.00    +0.000 A 
ATOM     19  C   UNL     1       9.703  14.937  22.496  0.00  0.00    +0.000 A 
ATOM     20  C   UNL     1       9.017  15.849  23.315  0.00  0.00    +0.000 A 
ATOM     21  C   UNL     1       9.729  16.686  24.339  0.00  0.00    +0.000 C 
ATOM     22  C   UNL     1       7.630  15.974  23.164  0.00  0.00    +0.000 A 
ATOM     23  C   UNL     1       6.946  15.215  22.215  0.00  0.00    +0.000 A 
ATOM     24  C   UNL     1       5.456  15.354  22.067  0.00  0.00    +0.000 C 
ATOM     25  C   UNL     1       7.641  14.281  21.420  0.00  0.00    +0.000 A 
ENDBRANCH  16  18
BRANCH  15  26
ATOM     26  C   UNL     1      11.045  12.320  18.719  0.00  0.00    +0.000 C 
ATOM     27  C   UNL     1      12.260  11.767  19.506  0.00  0.00    +0.000 C 
ATOM     28  C   UNL     1      10.062  11.145  18.453  0.00  0.00    +0.000 C 
ATOM     29  C   UNL     1      11.529  12.693  17.287  0.00  0.00    +0.000 C 
ENDBRANCH  15  26
ENDBRANCH   1  15
BRANCH   1  30
ATOM     30  S   UNL     1      12.229  15.414  19.329  0.00  0.00    +0.000 S 
BRANCH  30  32
ATOM     31  C   UNL     1      12.303  17.897  20.057  0.00  0.00    +0.000 C 
ATOM     32  O   UNL     1      11.916  16.589  20.451  0.00  0.00    +0.000 OA
ENDBRANCH  30  32
ENDBRANCH   1  30
TORSDOF 6
ENDMDL
MODEL 4
REMARK VINA RESULT:      -6.2      0.838      1.772
REMARK  Name = 
REMARK  14 active torsions:
REMARK  status: ('A' for Active; 'I' for Inactive)
REMARK    1  A    between atoms: C_1  and  O_2
REMARK    2  A    between atoms: O_2  and  S_3
REMARK    3  A    between atoms: S_3  and  N_4
REMARK    4  A    between atoms: N_4  and  N_18
REMARK    5  A    between atoms: C_5  and  C_7
REMARK    6  A    between atoms: C_12  and  C_13
REMARK    7  A    between atoms: C_15  and  C_16
REMARK    8  A    between atoms: N_18  and  C_29
REMARK    9  A    between atoms: C_19  and  C_21
REMARK   10  A    between atoms: C_23  and  C_24
REMARK   11  A    between atoms: C_26  and  C_27
REMARK   12  A    between atoms: C_29  and  C_30
REMARK   13  A    between atoms: C_29  and  C_31
REMARK   14  A    between atoms: C_29  and  C_32
REMARK                            x       y       z     vdW  Elec       q    Type
REMARK                         _______ _______ _______ _____ _____    ______ ____
ROOT
ATOM      1  N   UNL     1       0.140  11.949  20.532  0.00  0.00    +0.000 N 
ATOM      2  C   UNL     1      -0.464  12.184  19.266  0.00  0.00    +0.000 C 
ATOM      3  O   UNL     1       0.086  12.847  18.379  0.00  0.00    +0.000 OA
ENDROOT
BRANCH   2   4
ATOM      4  C   UNL     1      -1.863  11.752  18.964  0.00  0.00    +0.000 A 
ATOM      5  C   UNL     1      -2.094  10.575  18.231  0.00  0.00    +0.000 A 
ATOM      6  C   UNL     1      -3.394  10.118  17.998  0.00  0.00    +0.000 A 
ATOM      7  C   UNL     1      -4.453  10.879  18.453  0.00  0.00    +0.000 A 
ATOM      8  C   UNL     1      -4.239  12.067  19.127  0.00  0.00    +0.000 A 
ATOM      9  C   UNL     1      -2.962  12.547  19.402  0.00  0.00    +0.000 A 
ATOM     10  C   UNL     1      -2.808  13.854  20.134  0.00  0.00    +0.000 C 
ATOM     11  O   UNL     1      -5.401  12.702  19.491  0.00  0.00    +0.000 OA
ATOM     12  C   UNL     1      -6.477  11.833  19.059  0.00  0.00    +0.000 C 
ATOM     13  C   UNL     1      -7.426  12.646  18.190  0.00  0.00    +0.000 C 
ATOM     14  C   UNL     1      -5.904  10.624  18.309  0.00  0.00    +0.000 C 
ENDBRANCH   2   4
BRANCH   1  15
ATOM     15  N   UNL     1      -0.180  10.840  21.408  0.00  0.00    +0.000 N 
ATOM     16  C   UNL     1      -0.781  11.037  22.681  0.00  0.00    +0.000 C 
ATOM     17  O   UNL     1      -0.804  10.159  23.548  0.00  0.00    +0.000 OA
BRANCH  16  18
ATOM     18  C   UNL     1      -1.555  12.249  23.051  0.00  0.00    +0.000 A 
ATOM     19  C   UNL     1      -2.945  12.120  23.226  0.00  0.00    +0.000 A 
ATOM     20  C   UNL     1      -3.743  13.235  23.532  0.00  0.00    +0.000 A 
ATOM     21  C   UNL     1      -5.236  13.130  23.658  0.00  0.00    +0.000 C 
ATOM     22  C   UNL     1      -3.119  14.473  23.724  0.00  0.00    +0.000 A 
ATOM     23  C   UNL     1      -1.733  14.596  23.622  0.00  0.00    +0.000 A 
ATOM     24  C   UNL     1      -1.076  15.933  23.823  0.00  0.00    +0.000 C 
ATOM     25  C   UNL     1      -0.946  13.476  23.283  0.00  0.00    +0.000 A 
ENDBRANCH  16  18
BRANCH  15  26
ATOM     26  C   UNL     1       0.496   9.504  21.090  0.00  0.00    +0.000 C 
ATOM     27  C   UNL     1       1.630   9.214  22.105  0.00  0.00    +0.000 C 
ATOM     28  C   UNL     1      -0.532   8.339  21.163  0.00  0.00    +0.000 C 
ATOM     29  C   UNL     1       1.083   9.353  19.656  0.00  0.00    +0.000 C 
ENDBRANCH  15  26
ENDBRANCH   1  15
BRANCH   1  30
ATOM     30  S   UNL     1       1.614  12.826  20.845  0.00  0.00    +0.000 S 
BRANCH  30  32
ATOM     31  C   UNL     1       1.821  15.333  20.236  0.00  0.00    +0.000 C 
ATOM     32  O   UNL     1       1.024  14.371  20.909  0.00  0.00    +0.000 OA
ENDBRANCH  30  32
ENDBRANCH   1  30
TORSDOF 6
ENDMDL
MODEL 5
REMARK VINA RESULT:      -6.2      0.868      1.173
REMARK  Name = 
REMARK  14 active torsions:
REMARK  status: ('A' for Active; 'I' for Inactive)
REMARK    1  A    between atoms: C_1  and  O_2
REMARK    2  A    between atoms: O_2  and  S_3
REMARK    3  A    between atoms: S_3  and  N_4
REMARK    4  A    between atoms: N_4  and  N_18
REMARK    5  A    between atoms: C_5  and  C_7
REMARK    6  A    between atoms: C_12  and  C_13
REMARK    7  A    between atoms: C_15  and  C_16
REMARK    8  A    between atoms: N_18  and  C_29
REMARK    9  A    between atoms: C_19  and  C_21
REMARK   10  A    between atoms: C_23  and  C_24
REMARK   11  A    between atoms: C_26  and  C_27
REMARK   12  A    between atoms: C_29  and  C_30
REMARK   13  A    between atoms: C_29  and  C_31
REMARK   14  A    between atoms: C_29  and  C_32
REMARK                            x       y       z     vdW  Elec       q    Type
REMARK                         _______ _______ _______ _____ _____    ______ ____
ROOT
ATOM      1  N   UNL     1      -0.076  12.346  20.570  0.00  0.00    +0.000 N 
ATOM      2  C   UNL     1      -0.939  12.846  19.556  0.00  0.00    +0.000 C 
ATOM      3  O   UNL     1      -0.538  13.572  18.638  0.00  0.00    +0.000 OA
ENDROOT
BRANCH   2   4
ATOM      4  C   UNL     1      -2.418  12.632  19.598  0.00  0.00    +0.000 A 
ATOM      5  C   UNL     1      -3.231  13.480  20.371  0.00  0.00    +0.000 A 
ATOM      6  C   UNL     1      -4.621  13.340  20.369  0.00  0.00    +0.000 A 
ATOM      7  C   UNL     1      -5.180  12.310  19.636  0.00  0.00    +0.000 A 
ATOM      8  C   UNL     1      -4.387  11.436  18.916  0.00  0.00    +0.000 A 
ATOM      9  C   UNL     1      -3.001  11.554  18.870  0.00  0.00    +0.000 A 
ATOM     10  C   UNL     1      -2.204  10.558  18.071  0.00  0.00    +0.000 C 
ATOM     11  O   UNL     1      -5.105  10.466  18.262  0.00  0.00    +0.000 OA
ATOM     12  C   UNL     1      -6.499  10.752  18.538  0.00  0.00    +0.000 C 
ATOM     13  C   UNL     1      -7.138   9.496  19.113  0.00  0.00    +0.000 C 
ATOM     14  C   UNL     1      -6.607  11.943  19.497  0.00  0.00    +0.000 C 
ENDBRANCH   2   4
BRANCH   1  15
ATOM     15  N   UNL     1      -0.330  11.158  21.359  0.00  0.00    +0.000 N 
ATOM     16  C   UNL     1      -0.877  11.229  22.669  0.00  0.00    +0.000 C 
ATOM     17  O   UNL     1      -0.839  10.279  23.457  0.00  0.00    +0.000 OA
BRANCH  16  18
ATOM     18  C   UNL     1      -1.663  12.382  23.175  0.00  0.00    +0.000 A 
ATOM     19  C   UNL     1      -3.014  12.170  23.504  0.00  0.00    +0.000 A 
ATOM     20  C   UNL     1      -3.826  13.228  23.945  0.00  0.00    +0.000 A 
ATOM     21  C   UNL     1      -5.287  13.036  24.238  0.00  0.00    +0.000 C 
ATOM     22  C   UNL     1      -3.248  14.492  24.116  0.00  0.00    +0.000 A 
ATOM     23  C   UNL     1      -1.892  14.694  23.860  0.00  0.00    +0.000 A 
ATOM     24  C   UNL     1      -1.284  16.058  24.040  0.00  0.00    +0.000 C 
ATOM     25  C   UNL     1      -1.094  13.632  23.387  0.00  0.00    +0.000 A 
ENDBRANCH  16  18
BRANCH  15  26
ATOM     26  C   UNL     1       0.364   9.874  20.898  0.00  0.00    +0.000 C 
ATOM     27  C   UNL     1       1.574   9.552  21.811  0.00  0.00    +0.000 C 
ATOM     28  C   UNL     1      -0.620   8.671  20.951  0.00  0.00    +0.000 C 
ATOM     29  C   UNL     1       0.857   9.848  19.421  0.00  0.00    +0.000 C 
ENDBRANCH  15  26
ENDBRANCH   1  15
BRANCH   1  30
ATOM     30  S   UNL     1       1.545  12.987  20.570  0.00  0.00    +0.000 S 
BRANCH  30  32
ATOM     31  C   UNL     1       3.039  13.597  18.547  0.00  0.00    +0.000 C 
ATOM     32  O   UNL     1       1.918  12.833  18.965  0.00  0.00    +0.000 OA
ENDBRANCH  30  32
ENDBRANCH   1  30
TORSDOF 6
ENDMDL
MODEL 6
REMARK VINA RESULT:      -6.1      8.297     10.968
REMARK  Name = 
REMARK  14 active torsions:
REMARK  status: ('A' for Active; 'I' for Inactive)
REMARK    1  A    between atoms: C_1  and  O_2
REMARK    2  A    between atoms: O_2  and  S_3
REMARK    3  A    between atoms: S_3  and  N_4
REMARK    4  A    between atoms: N_4  and  N_18
REMARK    5  A    between atoms: C_5  and  C_7
REMARK    6  A    between atoms: C_12  and  C_13
REMARK    7  A    between atoms: C_15  and  C_16
REMARK    8  A    between atoms: N_18  and  C_29
REMARK    9  A    between atoms: C_19  and  C_21
REMARK   10  A    between atoms: C_23  and  C_24
REMARK   11  A    between atoms: C_26  and  C_27
REMARK   12  A    between atoms: C_29  and  C_30
REMARK   13  A    between atoms: C_29  and  C_31
REMARK   14  A    between atoms: C_29  and  C_32
REMARK                            x       y       z     vdW  Elec       q    Type
REMARK                         _______ _______ _______ _____ _____    ______ ____
ROOT
ATOM      1  N   UNL     1      10.409  14.977  19.326  0.00  0.00    +0.000 N 
ATOM      2  C   UNL     1       9.560  15.704  18.448  0.00  0.00    +0.000 C 
ATOM      3  O   UNL     1       9.941  16.706  17.830  0.00  0.00    +0.000 OA
ENDROOT
BRANCH   2   4
ATOM      4  C   UNL     1       8.107  15.384  18.305  0.00  0.00    +0.000 A 
ATOM      5  C   UNL     1       7.706  14.209  17.647  0.00  0.00    +0.000 A 
ATOM      6  C   UNL     1       6.356  13.856  17.564  0.00  0.00    +0.000 A 
ATOM      7  C   UNL     1       5.415  14.719  18.093  0.00  0.00    +0.000 A 
ATOM      8  C   UNL     1       5.794  15.905  18.695  0.00  0.00    +0.000 A 
ATOM      9  C   UNL     1       7.128  16.283  18.820  0.00  0.00    +0.000 A 
ATOM     10  C   UNL     1       7.462  17.593  19.480  0.00  0.00    +0.000 C 
ATOM     11  O   UNL     1       4.731  16.646  19.149  0.00  0.00    +0.000 OA
ATOM     12  C   UNL     1       3.549  15.859  18.862  0.00  0.00    +0.000 C 
ATOM     13  C   UNL     1       2.585  16.723  18.062  0.00  0.00    +0.000 C 
ATOM     14  C   UNL     1       3.942  14.584  18.106  0.00  0.00    +0.000 C 
ENDBRANCH   2   4
BRANCH   1  15
ATOM     15  N   UNL     1      10.224  13.587  19.693  0.00  0.00    +0.000 N 
ATOM     16  C   UNL     1       9.641  13.209  20.933  0.00  0.00    +0.000 C 
ATOM     17  O   UNL     1       9.729  12.064  21.386  0.00  0.00    +0.000 OA
BRANCH  16  18
ATOM     18  C   UNL     1       8.762  14.094  21.737  0.00  0.00    +0.000 A 
ATOM     19  C   UNL     1       7.370  13.922  21.628  0.00  0.00    +0.000 A 
ATOM     20  C   UNL     1       6.481  14.755  22.327  0.00  0.00    +0.000 A 
ATOM     21  C   UNL     1       4.991  14.631  22.171  0.00  0.00    +0.000 C 
ATOM     22  C   UNL     1       7.007  15.725  23.189  0.00  0.00    +0.000 A 
ATOM     23  C   UNL     1       8.385  15.855  23.358  0.00  0.00    +0.000 A 
ATOM     24  C   UNL     1       8.937  16.904  24.282  0.00  0.00    +0.000 C 
ATOM     25  C   UNL     1       9.269  15.033  22.628  0.00  0.00    +0.000 A 
ENDBRANCH  16  18
BRANCH  15  26
ATOM     26  C   UNL     1      11.020  12.559  18.886  0.00  0.00    +0.000 C 
ATOM     27  C   UNL     1      12.270  12.098  19.677  0.00  0.00    +0.000 C 
ATOM     28  C   UNL     1      10.147  11.307  18.583  0.00  0.00    +0.000 C 
ATOM     29  C   UNL     1      11.485  13.004  17.469  0.00  0.00    +0.000 C 
ENDBRANCH  15  26
ENDBRANCH   1  15
BRANCH   1  30
ATOM     30  S   UNL     1      11.963  15.698  19.651  0.00  0.00    +0.000 S 
BRANCH  30  32
ATOM     31  C   UNL     1      12.332  17.233  21.702  0.00  0.00    +0.000 C 
ATOM     32  O   UNL     1      11.496  16.984  20.582  0.00  0.00    +0.000 OA
ENDBRANCH  30  32
ENDBRANCH   1  30
TORSDOF 6
ENDMDL
MODEL 7
REMARK VINA RESULT:      -6.1      2.489      6.038
REMARK  Name = 
REMARK  14 active torsions:
REMARK  status: ('A' for Active; 'I' for Inactive)
REMARK    1  A    between atoms: C_1  and  O_2
REMARK    2  A    between atoms: O_2  and  S_3
REMARK    3  A    between atoms: S_3  and  N_4
REMARK    4  A    between atoms: N_4  and  N_18
REMARK    5  A    between atoms: C_5  and  C_7
REMARK    6  A    between atoms: C_12  and  C_13
REMARK    7  A    between atoms: C_15  and  C_16
REMARK    8  A    between atoms: N_18  and  C_29
REMARK    9  A    between atoms: C_19  and  C_21
REMARK   10  A    between atoms: C_23  and  C_24
REMARK   11  A    between atoms: C_26  and  C_27
REMARK   12  A    between atoms: C_29  and  C_30
REMARK   13  A    between atoms: C_29  and  C_31
REMARK   14  A    between atoms: C_29  and  C_32
REMARK                            x       y       z     vdW  Elec       q    Type
REMARK                         _______ _______ _______ _____ _____    ______ ____
ROOT
ATOM      1  N   UNL     1      -2.984  14.486  21.076  0.00  0.00    +0.000 N 
ATOM      2  C   UNL     1      -1.594  14.346  20.811  0.00  0.00    +0.000 C 
ATOM      3  O   UNL     1      -0.866  15.310  20.549  0.00  0.00    +0.000 OA
ENDROOT
BRANCH   2   4
ATOM      4  C   UNL     1      -0.939  13.007  20.706  0.00  0.00    +0.000 A 
ATOM      5  C   UNL     1      -0.667  12.262  21.867  0.00  0.00    +0.000 A 
ATOM      6  C   UNL     1      -0.119  10.979  21.786  0.00  0.00    +0.000 A 
ATOM      7  C   UNL     1       0.206  10.477  20.539  0.00  0.00    +0.000 A 
ATOM      8  C   UNL     1      -0.008  11.222  19.394  0.00  0.00    +0.000 A 
ATOM      9  C   UNL     1      -0.573  12.494  19.427  0.00  0.00    +0.000 A 
ATOM     10  C   UNL     1      -0.766  13.247  18.139  0.00  0.00    +0.000 C 
ATOM     11  O   UNL     1       0.387  10.579  18.247  0.00  0.00    +0.000 OA
ATOM     12  C   UNL     1       0.861   9.275  18.669  0.00  0.00    +0.000 C 
ATOM     13  C   UNL     1       2.269   9.083  18.127  0.00  0.00    +0.000 C 
ATOM     14  C   UNL     1       0.813   9.172  20.198  0.00  0.00    +0.000 C 
ENDBRANCH   2   4
BRANCH   1  15
ATOM     15  N   UNL     1      -3.780  13.543  21.836  0.00  0.00    +0.000 N 
ATOM     16  C   UNL     1      -4.811  12.772  21.231  0.00  0.00    +0.000 C 
ATOM     17  O   UNL     1      -5.674  12.185  21.890  0.00  0.00    +0.000 OA
BRANCH  16  18
ATOM     18  C   UNL     1      -4.879  12.478  19.778  0.00  0.00    +0.000 A 
ATOM     19  C   UNL     1      -3.970  11.544  19.247  0.00  0.00    +0.000 A 
ATOM     20  C   UNL     1      -3.951  11.254  17.873  0.00  0.00    +0.000 A 
ATOM     21  C   UNL     1      -2.945  10.310  17.277  0.00  0.00    +0.000 C 
ATOM     22  C   UNL     1      -4.899  11.865  17.044  0.00  0.00    +0.000 A 
ATOM     23  C   UNL     1      -5.850  12.739  17.574  0.00  0.00    +0.000 A 
ATOM     24  C   UNL     1      -6.859  13.394  16.672  0.00  0.00    +0.000 C 
ATOM     25  C   UNL     1      -5.840  13.046  18.950  0.00  0.00    +0.000 A 
ENDBRANCH  16  18
BRANCH  15  26
ATOM     26  C   UNL     1      -3.739  13.688  23.358  0.00  0.00    +0.000 C 
ATOM     27  C   UNL     1      -5.054  14.320  23.880  0.00  0.00    +0.000 C 
ATOM     28  C   UNL     1      -3.564  12.299  24.036  0.00  0.00    +0.000 C 
ATOM     29  C   UNL     1      -2.549  14.506  23.941  0.00  0.00    +0.000 C 
ENDBRANCH  15  26
ENDBRANCH   1  15
BRANCH   1  30
ATOM     30  S   UNL     1      -3.653  16.073  20.804  0.00  0.00    +0.000 S 
BRANCH  30  32
ATOM     31  C   UNL     1      -6.105  16.865  21.051  0.00  0.00    +0.000 C 
ATOM     32  O   UNL     1      -5.269  15.727  20.906  0.00  0.00    +0.000 OA
ENDBRANCH  30  32
ENDBRANCH   1  30
TORSDOF 6
ENDMDL
MODEL 8
REMARK VINA RESULT:      -6.1      2.484      6.011
REMARK  Name = 
REMARK  14 active torsions:
REMARK  status: ('A' for Active; 'I' for Inactive)
REMARK    1  A    between atoms: C_1  and  O_2
REMARK    2  A    between atoms: O_2  and  S_3
REMARK    3  A    between atoms: S_3  and  N_4
REMARK    4  A    between atoms: N_4  and  N_18
REMARK    5  A    between atoms: C_5  and  C_7
REMARK    6  A    between atoms: C_12  and  C_13
REMARK    7  A    between atoms: C_15  and  C_16
REMARK    8  A    between atoms: N_18  and  C_29
REMARK    9  A    between atoms: C_19  and  C_21
REMARK   10  A    between atoms: C_23  and  C_24
REMARK   11  A    between atoms: C_26  and  C_27
REMARK   12  A    between atoms: C_29  and  C_30
REMARK   13  A    between atoms: C_29  and  C_31
REMARK   14  A    between atoms: C_29  and  C_32
REMARK                            x       y       z     vdW  Elec       q    Type
REMARK                         _______ _______ _______ _____ _____    ______ ____
ROOT
ATOM      1  N   UNL     1      -2.985  14.507  21.049  0.00  0.00    +0.000 N 
ATOM      2  C   UNL     1      -1.595  14.361  20.789  0.00  0.00    +0.000 C 
ATOM      3  O   UNL     1      -0.861  15.322  20.528  0.00  0.00    +0.000 OA
ENDROOT
BRANCH   2   4
ATOM      4  C   UNL     1      -0.944  13.019  20.690  0.00  0.00    +0.000 A 
ATOM      5  C   UNL     1      -0.703  12.264  21.851  0.00  0.00    +0.000 A 
ATOM      6  C   UNL     1      -0.160  10.979  21.774  0.00  0.00    +0.000 A 
ATOM      7  C   UNL     1       0.191  10.485  20.532  0.00  0.00    +0.000 A 
ATOM      8  C   UNL     1       0.008  11.239  19.387  0.00  0.00    +0.000 A 
ATOM      9  C   UNL     1      -0.551  12.513  19.416  0.00  0.00    +0.000 A 
ATOM     10  C   UNL     1      -0.709  13.276  18.129  0.00  0.00    +0.000 C 
ATOM     11  O   UNL     1       0.426  10.601  18.245  0.00  0.00    +0.000 OA
ATOM     12  C   UNL     1       0.883   9.292  18.668  0.00  0.00    +0.000 C 
ATOM     13  C   UNL     1       2.303   9.095  18.158  0.00  0.00    +0.000 C 
ATOM     14  C   UNL     1       0.799   9.179  20.195  0.00  0.00    +0.000 C 
ENDBRANCH   2   4
BRANCH   1  15
ATOM     15  N   UNL     1      -3.788  13.569  21.807  0.00  0.00    +0.000 N 
ATOM     16  C   UNL     1      -4.785  12.764  21.191  0.00  0.00    +0.000 C 
ATOM     17  O   UNL     1      -5.659  12.178  21.837  0.00  0.00    +0.000 OA
BRANCH  16  18
ATOM     18  C   UNL     1      -4.803  12.433  19.744  0.00  0.00    +0.000 A 
ATOM     19  C   UNL     1      -5.787  13.035  18.938  0.00  0.00    +0.000 A 
ATOM     20  C   UNL     1      -5.887  12.731  17.570  0.00  0.00    +0.000 A 
ATOM     21  C   UNL     1      -6.972  13.311  16.708  0.00  0.00    +0.000 C 
ATOM     22  C   UNL     1      -4.945  11.863  17.005  0.00  0.00    +0.000 A 
ATOM     23  C   UNL     1      -3.923  11.318  17.782  0.00  0.00    +0.000 A 
ATOM     24  C   UNL     1      -2.922  10.382  17.164  0.00  0.00    +0.000 C 
ATOM     25  C   UNL     1      -3.851  11.606  19.161  0.00  0.00    +0.000 A 
ENDBRANCH  16  18
BRANCH  15  26
ATOM     26  C   UNL     1      -3.797  13.753  23.326  0.00  0.00    +0.000 C 
ATOM     27  C   UNL     1      -3.603  12.391  24.039  0.00  0.00    +0.000 C 
ATOM     28  C   UNL     1      -2.647  14.702  23.769  0.00  0.00    +0.000 C 
ATOM     29  C   UNL     1      -5.058  14.437  23.930  0.00  0.00    +0.000 C 
ENDBRANCH  15  26
ENDBRANCH   1  15
BRANCH   1  30
ATOM     30  S   UNL     1      -3.647  16.095  20.770  0.00  0.00    +0.000 S 
BRANCH  30  32
ATOM     31  C   UNL     1      -6.104  16.760  21.239  0.00  0.00    +0.000 C 
ATOM     32  O   UNL     1      -5.261  15.734  20.735  0.00  0.00    +0.000 OA
ENDBRANCH  30  32
ENDBRANCH   1  30
TORSDOF 6
ENDMDL
MODEL 9
REMARK VINA RESULT:      -6.0      2.647      6.083
REMARK  Name = 
REMARK  14 active torsions:
REMARK  status: ('A' for Active; 'I' for Inactive)
REMARK    1  A    between atoms: C_1  and  O_2
REMARK    2  A    between atoms: O_2  and  S_3
REMARK    3  A    between atoms: S_3  and  N_4
REMARK    4  A    between atoms: N_4  and  N_18
REMARK    5  A    between atoms: C_5  and  C_7
REMARK    6  A    between atoms: C_12  and  C_13
REMARK    7  A    between atoms: C_15  and  C_16
REMARK    8  A    between atoms: N_18  and  C_29
REMARK    9  A    between atoms: C_19  and  C_21
REMARK   10  A    between atoms: C_23  and  C_24
REMARK   11  A    between atoms: C_26  and  C_27
REMARK   12  A    between atoms: C_29  and  C_30
REMARK   13  A    between atoms: C_29  and  C_31
REMARK   14  A    between atoms: C_29  and  C_32
REMARK                            x       y       z     vdW  Elec       q    Type
REMARK                         _______ _______ _______ _____ _____    ______ ____
ROOT
ATOM      1  N   UNL     1      -3.538  14.468  21.477  0.00  0.00    +0.000 N 
ATOM      2  C   UNL     1      -2.133  14.254  21.510  0.00  0.00    +0.000 C 
ATOM      3  O   UNL     1      -1.315  15.163  21.322  0.00  0.00    +0.000 OA
ENDROOT
BRANCH   2   4
ATOM      4  C   UNL     1      -1.543  12.887  21.650  0.00  0.00    +0.000 A 
ATOM      5  C   UNL     1      -1.434  12.293  22.919  0.00  0.00    +0.000 A 
ATOM      6  C   UNL     1      -0.951  10.990  23.064  0.00  0.00    +0.000 A 
ATOM      7  C   UNL     1      -0.525  10.315  21.935  0.00  0.00    +0.000 A 
ATOM      8  C   UNL     1      -0.576  10.909  20.688  0.00  0.00    +0.000 A 
ATOM      9  C   UNL     1      -1.072  12.195  20.496  0.00  0.00    +0.000 A 
ATOM     10  C   UNL     1      -1.088  12.779  19.108  0.00  0.00    +0.000 C 
ATOM     11  O   UNL     1      -0.098  10.104  19.683  0.00  0.00    +0.000 OA
ATOM     12  C   UNL     1       0.258   8.851  20.318  0.00  0.00    +0.000 C 
ATOM     13  C   UNL     1       1.703   8.532  19.965  0.00  0.00    +0.000 C 
ATOM     14  C   UNL     1       0.044   8.953  21.833  0.00  0.00    +0.000 C 
ENDBRANCH   2   4
BRANCH   1  15
ATOM     15  N   UNL     1      -4.518  13.628  22.135  0.00  0.00    +0.000 N 
ATOM     16  C   UNL     1      -5.505  12.911  21.404  0.00  0.00    +0.000 C 
ATOM     17  O   UNL     1      -6.506  12.426  21.939  0.00  0.00    +0.000 OA
BRANCH  16  18
ATOM     18  C   UNL     1      -5.373  12.553  19.970  0.00  0.00    +0.000 A 
ATOM     19  C   UNL     1      -6.152  13.261  19.035  0.00  0.00    +0.000 A 
ATOM     20  C   UNL     1      -6.108  12.942  17.668  0.00  0.00    +0.000 A 
ATOM     21  C   UNL     1      -6.981  13.640  16.664  0.00  0.00    +0.000 C 
ATOM     22  C   UNL     1      -5.223  11.946  17.239  0.00  0.00    +0.000 A 
ATOM     23  C   UNL     1      -4.396  11.289  18.149  0.00  0.00    +0.000 A 
ATOM     24  C   UNL     1      -3.454  10.216  17.677  0.00  0.00    +0.000 C 
ATOM     25  C   UNL     1      -4.470  11.595  19.524  0.00  0.00    +0.000 A 
ENDBRANCH  16  18
BRANCH  15  26
ATOM     26  C   UNL     1      -4.700  13.844  23.639  0.00  0.00    +0.000 C 
ATOM     27  C   UNL     1      -6.020  14.603  23.924  0.00  0.00    +0.000 C 
ATOM     28  C   UNL     1      -4.752  12.480  24.385  0.00  0.00    +0.000 C 
ATOM     29  C   UNL     1      -3.547  14.591  24.373  0.00  0.00    +0.000 C 
ENDBRANCH  15  26
ENDBRANCH   1  15
BRANCH   1  30
ATOM     30  S   UNL     1      -4.053  16.046  20.945  0.00  0.00    +0.000 S 
BRANCH  30  32
ATOM     31  C   UNL     1      -4.669  17.853  22.693  0.00  0.00    +0.000 C 
ATOM     32  O   UNL     1      -3.661  16.944  22.279  0.00  0.00    +0.000 OA
ENDBRANCH  30  32
ENDBRANCH   1  30
TORSDOF 6
ENDMDL
