MODEL 1
REMARK VINA RESULT:      -7.4      0.000      0.000
REMARK  Name = 
REMARK  7 active torsions:
REMARK  status: ('A' for Active; 'I' for Inactive)
REMARK    1  A    between atoms: C_1  and  O_2
REMARK    2  A    between atoms: O_2  and  C_3
REMARK    3  A    between atoms: C_6  and  N_7
REMARK    4  A    between atoms: C_8  and  C_10
REMARK    5  A    between atoms: C_16  and  O_17
REMARK    6  A    between atoms: O_17  and  C_18
REMARK    7  A    between atoms: C_18  and  C_19
REMARK                            x       y       z     vdW  Elec       q    Type
REMARK                         _______ _______ _______ _____ _____    ______ ____
ROOT
ATOM      1  C   UNL     1       6.368   5.329  18.434  0.00  0.00    +0.000 A 
ATOM      2  C   UNL     1       7.446   4.675  17.822  0.00  0.00    +0.000 A 
ATOM      3  C   UNL     1       7.379   4.220  16.503  0.00  0.00    +0.000 A 
ATOM      4  C   UNL     1       6.248   4.460  15.743  0.00  0.00    +0.000 A 
ATOM      5  C   UNL     1       5.171   5.128  16.342  0.00  0.00    +0.000 A 
ATOM      6  C   UNL     1       5.190   5.529  17.700  0.00  0.00    +0.000 A 
ENDROOT
BRANCH   4   7
ATOM      7  N   UNL     1       6.105   4.077  14.397  0.00  0.00    +0.000 N 
ATOM      8  C   UNL     1       6.818   4.542  13.307  0.00  0.00    +0.000 C 
ATOM      9  O   UNL     1       7.741   5.349  13.320  0.00  0.00    +0.000 OA
ATOM     10  H   UNL     1       5.399   3.389  14.160  0.00  0.00    +0.000 HD
BRANCH   8  11
ATOM     11  C   UNL     1       6.316   3.951  11.983  0.00  0.00    +0.000 C 
ATOM     12  C   UNL     1       4.813   3.716  12.048  0.00  0.00    +0.000 C 
ATOM     13  C   UNL     1       4.626   2.494  11.188  0.00  0.00    +0.000 C 
ATOM     14  C   UNL     1       5.889   1.717  11.469  0.00  0.00    +0.000 C 
ATOM     15  O   UNL     1       6.929   2.685  11.668  0.00  0.00    +0.000 OA
ENDBRANCH   8  11
ENDBRANCH   4   7
BRANCH   1  17
ATOM     16  C   UNL     1       8.006   5.584  20.177  0.00  0.00    +0.000 C 
ATOM     17  O   UNL     1       6.678   5.711  19.708  0.00  0.00    +0.000 OA
ENDBRANCH   1  17
BRANCH   6  18
ATOM     18  O   UNL     1       4.093   6.117  18.301  0.00  0.00    +0.000 OA
BRANCH  18  19
ATOM     19  C   UNL     1       2.839   5.522  17.930  0.00  0.00    +0.000 C 
BRANCH  19  20
ATOM     20  C   UNL     1       2.325   4.465  18.866  0.00  0.00    +0.000 A 
ATOM     21  C   UNL     1       1.741   4.718  20.104  0.00  0.00    +0.000 A 
ATOM     22  C   UNL     1       1.312   3.648  20.888  0.00  0.00    +0.000 A 
ATOM     23  C   UNL     1       1.476   2.360  20.402  0.00  0.00    +0.000 A 
ATOM     24  N   UNL     1       2.025   2.075  19.205  0.00  0.00    +0.000 NA
ATOM     25  C   UNL     1       2.434   3.131  18.469  0.00  0.00    +0.000 A 
ENDBRANCH  19  20
ENDBRANCH  18  19
ENDBRANCH   6  18
TORSDOF 6
ENDMDL
MODEL 2
REMARK VINA RESULT:      -7.1      3.582      6.818
REMARK  Name = 
REMARK  7 active torsions:
REMARK  status: ('A' for Active; 'I' for Inactive)
REMARK    1  A    between atoms: C_1  and  O_2
REMARK    2  A    between atoms: O_2  and  C_3
REMARK    3  A    between atoms: C_6  and  N_7
REMARK    4  A    between atoms: C_8  and  C_10
REMARK    5  A    between atoms: C_16  and  O_17
REMARK    6  A    between atoms: O_17  and  C_18
REMARK    7  A    between atoms: C_18  and  C_19
REMARK                            x       y       z     vdW  Elec       q    Type
REMARK                         _______ _______ _______ _____ _____    ______ ____
ROOT
ATOM      1  C   UNL     1       4.877   5.237  16.837  0.00  0.00    +0.000 A 
ATOM      2  C   UNL     1       5.185   6.594  17.018  0.00  0.00    +0.000 A 
ATOM      3  C   UNL     1       4.284   7.481  17.610  0.00  0.00    +0.000 A 
ATOM      4  C   UNL     1       3.069   7.021  18.089  0.00  0.00    +0.000 A 
ATOM      5  C   UNL     1       2.760   5.663  17.927  0.00  0.00    +0.000 A 
ATOM      6  C   UNL     1       3.628   4.763  17.261  0.00  0.00    +0.000 A 
ENDROOT
BRANCH   4   7
ATOM      7  N   UNL     1       2.117   7.830  18.734  0.00  0.00    +0.000 N 
ATOM      8  C   UNL     1       1.671   9.081  18.346  0.00  0.00    +0.000 C 
ATOM      9  O   UNL     1       1.996   9.699  17.339  0.00  0.00    +0.000 OA
ATOM     10  H   UNL     1       1.696   7.494  19.592  0.00  0.00    +0.000 HD
BRANCH   8  11
ATOM     11  C   UNL     1       0.690   9.692  19.355  0.00  0.00    +0.000 C 
ATOM     12  C   UNL     1      -0.560  10.186  18.642  0.00  0.00    +0.000 C 
ATOM     13  C   UNL     1      -0.965  11.383  19.462  0.00  0.00    +0.000 C 
ATOM     14  C   UNL     1       0.373  11.940  19.883  0.00  0.00    +0.000 C 
ATOM     15  O   UNL     1       1.246  10.817  20.065  0.00  0.00    +0.000 OA
ENDBRANCH   8  11
ENDBRANCH   4   7
BRANCH   1  17
ATOM     16  C   UNL     1       7.174   4.528  16.928  0.00  0.00    +0.000 C 
ATOM     17  O   UNL     1       5.921   4.563  16.273  0.00  0.00    +0.000 OA
ENDBRANCH   1  17
BRANCH   6  18
ATOM     18  O   UNL     1       3.277   3.445  17.038  0.00  0.00    +0.000 OA
BRANCH  18  19
ATOM     19  C   UNL     1       3.676   2.552  18.090  0.00  0.00    +0.000 C 
BRANCH  19  20
ATOM     20  C   UNL     1       2.845   2.615  19.340  0.00  0.00    +0.000 A 
ATOM     21  C   UNL     1       1.460   2.752  19.365  0.00  0.00    +0.000 A 
ATOM     22  C   UNL     1       0.801   2.809  20.593  0.00  0.00    +0.000 A 
ATOM     23  C   UNL     1       1.552   2.719  21.754  0.00  0.00    +0.000 A 
ATOM     24  N   UNL     1       2.892   2.573  21.771  0.00  0.00    +0.000 NA
ATOM     25  C   UNL     1       3.502   2.525  20.568  0.00  0.00    +0.000 A 
ENDBRANCH  19  20
ENDBRANCH  18  19
ENDBRANCH   6  18
TORSDOF 6
ENDMDL
MODEL 3
REMARK VINA RESULT:      -7.1      1.611      2.269
REMARK  Name = 
REMARK  7 active torsions:
REMARK  status: ('A' for Active; 'I' for Inactive)
REMARK    1  A    between atoms: C_1  and  O_2
REMARK    2  A    between atoms: O_2  and  C_3
REMARK    3  A    between atoms: C_6  and  N_7
REMARK    4  A    between atoms: C_8  and  C_10
REMARK    5  A    between atoms: C_16  and  O_17
REMARK    6  A    between atoms: O_17  and  C_18
REMARK    7  A    between atoms: C_18  and  C_19
REMARK                            x       y       z     vdW  Elec       q    Type
REMARK                         _______ _______ _______ _____ _____    ______ ____
ROOT
ATOM      1  C   UNL     1       4.696   5.455  18.383  0.00  0.00    +0.000 A 
ATOM      2  C   UNL     1       4.514   6.366  17.333  0.00  0.00    +0.000 A 
ATOM      3  C   UNL     1       4.798   6.030  16.008  0.00  0.00    +0.000 A 
ATOM      4  C   UNL     1       5.219   4.750  15.692  0.00  0.00    +0.000 A 
ATOM      5  C   UNL     1       5.389   3.827  16.734  0.00  0.00    +0.000 A 
ATOM      6  C   UNL     1       5.179   4.172  18.091  0.00  0.00    +0.000 A 
ENDROOT
BRANCH   4   7
ATOM      7  N   UNL     1       5.490   4.308  14.384  0.00  0.00    +0.000 N 
ATOM      8  C   UNL     1       6.632   4.535  13.636  0.00  0.00    +0.000 C 
ATOM      9  O   UNL     1       7.641   5.131  13.995  0.00  0.00    +0.000 OA
ATOM     10  H   UNL     1       4.784   3.767  13.898  0.00  0.00    +0.000 HD
BRANCH   8  11
ATOM     11  C   UNL     1       6.523   3.967  12.215  0.00  0.00    +0.000 C 
ATOM     12  C   UNL     1       5.282   3.094  12.090  0.00  0.00    +0.000 C 
ATOM     13  C   UNL     1       5.709   2.040  11.103  0.00  0.00    +0.000 C 
ATOM     14  C   UNL     1       7.168   1.862  11.448  0.00  0.00    +0.000 C 
ATOM     15  O   UNL     1       7.654   3.150  11.852  0.00  0.00    +0.000 OA
ENDBRANCH   8  11
ENDBRANCH   4   7
BRANCH   1  17
ATOM     16  C   UNL     1       2.949   6.209  19.856  0.00  0.00    +0.000 C 
ATOM     17  O   UNL     1       4.320   5.995  19.579  0.00  0.00    +0.000 OA
ENDBRANCH   1  17
BRANCH   6  18
ATOM     18  O   UNL     1       5.425   3.277  19.115  0.00  0.00    +0.000 OA
BRANCH  18  19
ATOM     19  C   UNL     1       4.498   2.180  19.164  0.00  0.00    +0.000 C 
BRANCH  19  20
ATOM     20  C   UNL     1       3.182   2.478  19.825  0.00  0.00    +0.000 A 
ATOM     21  C   UNL     1       1.977   2.653  19.152  0.00  0.00    +0.000 A 
ATOM     22  C   UNL     1       0.822   2.936  19.879  0.00  0.00    +0.000 A 
ATOM     23  C   UNL     1       0.912   3.029  21.259  0.00  0.00    +0.000 A 
ATOM     24  N   UNL     1       2.057   2.854  21.949  0.00  0.00    +0.000 NA
ATOM     25  C   UNL     1       3.159   2.584  21.218  0.00  0.00    +0.000 A 
ENDBRANCH  19  20
ENDBRANCH  18  19
ENDBRANCH   6  18
TORSDOF 6
ENDMDL
MODEL 4
REMARK VINA RESULT:      -7.1      3.783      8.878
REMARK  Name = 
REMARK  7 active torsions:
REMARK  status: ('A' for Active; 'I' for Inactive)
REMARK    1  A    between atoms: C_1  and  O_2
REMARK    2  A    between atoms: O_2  and  C_3
REMARK    3  A    between atoms: C_6  and  N_7
REMARK    4  A    between atoms: C_8  and  C_10
REMARK    5  A    between atoms: C_16  and  O_17
REMARK    6  A    between atoms: O_17  and  C_18
REMARK    7  A    between atoms: C_18  and  C_19
REMARK                            x       y       z     vdW  Elec       q    Type
REMARK                         _______ _______ _______ _____ _____    ______ ____
ROOT
ATOM      1  C   UNL     1       2.156   3.864  19.113  0.00  0.00    +0.000 A 
ATOM      2  C   UNL     1       1.524   3.969  20.360  0.00  0.00    +0.000 A 
ATOM      3  C   UNL     1       1.381   5.195  21.013  0.00  0.00    +0.000 A 
ATOM      4  C   UNL     1       1.818   6.359  20.406  0.00  0.00    +0.000 A 
ATOM      5  C   UNL     1       2.437   6.266  19.152  0.00  0.00    +0.000 A 
ATOM      6  C   UNL     1       2.660   5.024  18.509  0.00  0.00    +0.000 A 
ENDROOT
BRANCH   4   7
ATOM      7  N   UNL     1       1.681   7.641  20.968  0.00  0.00    +0.000 N 
ATOM      8  C   UNL     1       0.519   8.250  21.408  0.00  0.00    +0.000 C 
ATOM      9  O   UNL     1      -0.606   7.763  21.428  0.00  0.00    +0.000 OA
ATOM     10  H   UNL     1       2.508   8.220  21.066  0.00  0.00    +0.000 HD
BRANCH   8  11
ATOM     11  C   UNL     1       0.755   9.691  21.878  0.00  0.00    +0.000 C 
ATOM     12  C   UNL     1      -0.363  10.130  22.814  0.00  0.00    +0.000 C 
ATOM     13  C   UNL     1      -0.488  11.602  22.521  0.00  0.00    +0.000 C 
ATOM     14  C   UNL     1      -0.185  11.655  21.044  0.00  0.00    +0.000 C 
ATOM     15  O   UNL     1       0.792  10.635  20.789  0.00  0.00    +0.000 OA
ENDBRANCH   8  11
ENDBRANCH   4   7
BRANCH   1  17
ATOM     16  C   UNL     1       3.361   1.864  18.534  0.00  0.00    +0.000 C 
ATOM     17  O   UNL     1       2.146   2.577  18.658  0.00  0.00    +0.000 OA
ENDBRANCH   1  17
BRANCH   6  18
ATOM     18  O   UNL     1       3.342   4.938  17.309  0.00  0.00    +0.000 OA
BRANCH  18  19
ATOM     19  C   UNL     1       4.722   5.327  17.396  0.00  0.00    +0.000 C 
BRANCH  19  20
ATOM     20  C   UNL     1       5.541   5.074  16.161  0.00  0.00    +0.000 A 
ATOM     21  C   UNL     1       5.138   4.283  15.090  0.00  0.00    +0.000 A 
ATOM     22  C   UNL     1       5.995   4.118  14.003  0.00  0.00    +0.000 A 
ATOM     23  C   UNL     1       7.225   4.756  14.023  0.00  0.00    +0.000 A 
ATOM     24  N   UNL     1       7.646   5.540  15.035  0.00  0.00    +0.000 NA
ATOM     25  C   UNL     1       6.797   5.679  16.075  0.00  0.00    +0.000 A 
ENDBRANCH  19  20
ENDBRANCH  18  19
ENDBRANCH   6  18
TORSDOF 6
ENDMDL
MODEL 5
REMARK VINA RESULT:      -7.1      3.373      6.861
REMARK  Name = 
REMARK  7 active torsions:
REMARK  status: ('A' for Active; 'I' for Inactive)
REMARK    1  A    between atoms: C_1  and  O_2
REMARK    2  A    between atoms: O_2  and  C_3
REMARK    3  A    between atoms: C_6  and  N_7
REMARK    4  A    between atoms: C_8  and  C_10
REMARK    5  A    between atoms: C_16  and  O_17
REMARK    6  A    between atoms: O_17  and  C_18
REMARK    7  A    between atoms: C_18  and  C_19
REMARK                            x       y       z     vdW  Elec       q    Type
REMARK                         _______ _______ _______ _____ _____    ______ ____
ROOT
ATOM      1  C   UNL     1       4.906   5.171  16.752  0.00  0.00    +0.000 A 
ATOM      2  C   UNL     1       5.192   6.535  16.905  0.00  0.00    +0.000 A 
ATOM      3  C   UNL     1       4.285   7.415  17.500  0.00  0.00    +0.000 A 
ATOM      4  C   UNL     1       3.089   6.940  18.010  0.00  0.00    +0.000 A 
ATOM      5  C   UNL     1       2.802   5.575  17.875  0.00  0.00    +0.000 A 
ATOM      6  C   UNL     1       3.674   4.681  17.207  0.00  0.00    +0.000 A 
ENDROOT
BRANCH   4   7
ATOM      7  N   UNL     1       2.134   7.742  18.660  0.00  0.00    +0.000 N 
ATOM      8  C   UNL     1       1.723   9.016  18.310  0.00  0.00    +0.000 C 
ATOM      9  O   UNL     1       2.088   9.667  17.338  0.00  0.00    +0.000 OA
ATOM     10  H   UNL     1       1.682   7.381  19.492  0.00  0.00    +0.000 HD
BRANCH   8  11
ATOM     11  C   UNL     1       0.725   9.606  19.316  0.00  0.00    +0.000 C 
ATOM     12  C   UNL     1       1.029  11.078  19.558  0.00  0.00    +0.000 C 
ATOM     13  C   UNL     1       0.635  11.270  20.999  0.00  0.00    +0.000 C 
ATOM     14  C   UNL     1       1.009   9.939  21.605  0.00  0.00    +0.000 C 
ATOM     15  O   UNL     1       0.769   8.947  20.597  0.00  0.00    +0.000 OA
ENDBRANCH   8  11
ENDBRANCH   4   7
BRANCH   1  17
ATOM     16  C   UNL     1       5.945   4.249  14.788  0.00  0.00    +0.000 C 
ATOM     17  O   UNL     1       5.952   4.506  16.178  0.00  0.00    +0.000 OA
ENDBRANCH   1  17
BRANCH   6  18
ATOM     18  O   UNL     1       3.344   3.353  17.012  0.00  0.00    +0.000 OA
BRANCH  18  19
ATOM     19  C   UNL     1       3.730   2.492  18.095  0.00  0.00    +0.000 C 
BRANCH  19  20
ATOM     20  C   UNL     1       2.866   2.571  19.321  0.00  0.00    +0.000 A 
ATOM     21  C   UNL     1       1.478   2.672  19.308  0.00  0.00    +0.000 A 
ATOM     22  C   UNL     1       0.787   2.749  20.517  0.00  0.00    +0.000 A 
ATOM     23  C   UNL     1       1.510   2.716  21.699  0.00  0.00    +0.000 A 
ATOM     24  N   UNL     1       2.852   2.607  21.753  0.00  0.00    +0.000 NA
ATOM     25  C   UNL     1       3.495   2.538  20.568  0.00  0.00    +0.000 A 
ENDBRANCH  19  20
ENDBRANCH  18  19
ENDBRANCH   6  18
TORSDOF 6
ENDMDL
MODEL 6
REMARK VINA RESULT:      -7.1      1.618      2.297
REMARK  Name = 
REMARK  7 active torsions:
REMARK  status: ('A' for Active; 'I' for Inactive)
REMARK    1  A    between atoms: C_1  and  O_2
REMARK    2  A    between atoms: O_2  and  C_3
REMARK    3  A    between atoms: C_6  and  N_7
REMARK    4  A    between atoms: C_8  and  C_10
REMARK    5  A    between atoms: C_16  and  O_17
REMARK    6  A    between atoms: O_17  and  C_18
REMARK    7  A    between atoms: C_18  and  C_19
REMARK                            x       y       z     vdW  Elec       q    Type
REMARK                         _______ _______ _______ _____ _____    ______ ____
ROOT
ATOM      1  C   UNL     1       6.362   4.810  18.543  0.00  0.00    +0.000 A 
ATOM      2  C   UNL     1       7.455   5.039  17.694  0.00  0.00    +0.000 A 
ATOM      3  C   UNL     1       7.418   4.706  16.339  0.00  0.00    +0.000 A 
ATOM      4  C   UNL     1       6.261   4.186  15.784  0.00  0.00    +0.000 A 
ATOM      5  C   UNL     1       5.159   3.969  16.621  0.00  0.00    +0.000 A 
ATOM      6  C   UNL     1       5.203   4.228  18.013  0.00  0.00    +0.000 A 
ENDROOT
BRANCH   4   7
ATOM      7  N   UNL     1       6.116   3.859  14.423  0.00  0.00    +0.000 N 
ATOM      8  C   UNL     1       6.781   4.417  13.345  0.00  0.00    +0.000 C 
ATOM      9  O   UNL     1       7.655   5.276  13.384  0.00  0.00    +0.000 OA
ATOM     10  H   UNL     1       5.447   3.143  14.164  0.00  0.00    +0.000 HD
BRANCH   8  11
ATOM     11  C   UNL     1       6.290   3.861  12.003  0.00  0.00    +0.000 C 
ATOM     12  C   UNL     1       4.786   3.628  12.048  0.00  0.00    +0.000 C 
ATOM     13  C   UNL     1       4.605   2.428  11.156  0.00  0.00    +0.000 C 
ATOM     14  C   UNL     1       5.864   1.642  11.428  0.00  0.00    +0.000 C 
ATOM     15  O   UNL     1       6.904   2.602  11.661  0.00  0.00    +0.000 OA
ENDBRANCH   8  11
ENDBRANCH   4   7
BRANCH   1  17
ATOM     16  C   UNL     1       7.939   5.592  20.183  0.00  0.00    +0.000 C 
ATOM     17  O   UNL     1       6.619   5.247  19.810  0.00  0.00    +0.000 OA
ENDBRANCH   1  17
BRANCH   6  18
ATOM     18  O   UNL     1       4.136   3.936  18.841  0.00  0.00    +0.000 OA
BRANCH  18  19
ATOM     19  C   UNL     1       2.872   4.413  18.352  0.00  0.00    +0.000 C 
BRANCH  19  20
ATOM     20  C   UNL     1       2.520   5.821  18.742  0.00  0.00    +0.000 A 
ATOM     21  C   UNL     1       2.618   6.925  17.901  0.00  0.00    +0.000 A 
ATOM     22  C   UNL     1       2.270   8.186  18.384  0.00  0.00    +0.000 A 
ATOM     23  C   UNL     1       1.830   8.297  19.694  0.00  0.00    +0.000 A 
ATOM     24  N   UNL     1       1.710   7.251  20.535  0.00  0.00    +0.000 NA
ATOM     25  C   UNL     1       2.056   6.044  20.040  0.00  0.00    +0.000 A 
ENDBRANCH  19  20
ENDBRANCH  18  19
ENDBRANCH   6  18
TORSDOF 6
ENDMDL
MODEL 7
REMARK VINA RESULT:      -7.0      2.833      4.351
REMARK  Name = 
REMARK  7 active torsions:
REMARK  status: ('A' for Active; 'I' for Inactive)
REMARK    1  A    between atoms: C_1  and  O_2
REMARK    2  A    between atoms: O_2  and  C_3
REMARK    3  A    between atoms: C_6  and  N_7
REMARK    4  A    between atoms: C_8  and  C_10
REMARK    5  A    between atoms: C_16  and  O_17
REMARK    6  A    between atoms: O_17  and  C_18
REMARK    7  A    between atoms: C_18  and  C_19
REMARK                            x       y       z     vdW  Elec       q    Type
REMARK                         _______ _______ _______ _____ _____    ______ ____
ROOT
ATOM      1  C   UNL     1       3.265   3.284  19.938  0.00  0.00    +0.000 A 
ATOM      2  C   UNL     1       3.444   2.248  19.011  0.00  0.00    +0.000 A 
ATOM      3  C   UNL     1       3.866   2.495  17.703  0.00  0.00    +0.000 A 
ATOM      4  C   UNL     1       4.176   3.784  17.305  0.00  0.00    +0.000 A 
ATOM      5  C   UNL     1       4.015   4.824  18.231  0.00  0.00    +0.000 A 
ATOM      6  C   UNL     1       3.515   4.604  19.538  0.00  0.00    +0.000 A 
ENDROOT
BRANCH   4   7
ATOM      7  N   UNL     1       4.646   4.123  16.024  0.00  0.00    +0.000 N 
ATOM      8  C   UNL     1       5.947   4.417  15.653  0.00  0.00    +0.000 C 
ATOM      9  O   UNL     1       6.940   4.395  16.370  0.00  0.00    +0.000 OA
ATOM     10  H   UNL     1       3.981   4.179  15.261  0.00  0.00    +0.000 HD
BRANCH   8  11
ATOM     11  C   UNL     1       6.055   4.829  14.179  0.00  0.00    +0.000 C 
ATOM     12  C   UNL     1       6.093   3.594  13.289  0.00  0.00    +0.000 C 
ATOM     13  C   UNL     1       6.977   4.028  12.149  0.00  0.00    +0.000 C 
ATOM     14  C   UNL     1       7.965   4.932  12.845  0.00  0.00    +0.000 C 
ATOM     15  O   UNL     1       7.246   5.591  13.898  0.00  0.00    +0.000 OA
ENDBRANCH   8  11
ENDBRANCH   4   7
BRANCH   1  17
ATOM     16  C   UNL     1       1.510   2.722  21.486  0.00  0.00    +0.000 C 
ATOM     17  O   UNL     1       2.883   2.799  21.156  0.00  0.00    +0.000 OA
ENDBRANCH   1  17
BRANCH   6  18
ATOM     18  O   UNL     1       3.287   5.647  20.415  0.00  0.00    +0.000 OA
BRANCH  18  19
ATOM     19  C   UNL     1       1.952   6.174  20.356  0.00  0.00    +0.000 C 
BRANCH  19  20
ATOM     20  C   UNL     1       1.816   7.513  19.689  0.00  0.00    +0.000 A 
ATOM     21  C   UNL     1       2.240   7.802  18.396  0.00  0.00    +0.000 A 
ATOM     22  C   UNL     1       2.067   9.090  17.891  0.00  0.00    +0.000 A 
ATOM     23  C   UNL     1       1.469  10.045  18.698  0.00  0.00    +0.000 A 
ATOM     24  N   UNL     1       1.034   9.802  19.950  0.00  0.00    +0.000 NA
ATOM     25  C   UNL     1       1.217   8.547  20.413  0.00  0.00    +0.000 A 
ENDBRANCH  19  20
ENDBRANCH  18  19
ENDBRANCH   6  18
TORSDOF 6
ENDMDL
MODEL 8
REMARK VINA RESULT:      -6.9      3.904      8.260
REMARK  Name = 
REMARK  7 active torsions:
REMARK  status: ('A' for Active; 'I' for Inactive)
REMARK    1  A    between atoms: C_1  and  O_2
REMARK    2  A    between atoms: O_2  and  C_3
REMARK    3  A    between atoms: C_6  and  N_7
REMARK    4  A    between atoms: C_8  and  C_10
REMARK    5  A    between atoms: C_16  and  O_17
REMARK    6  A    between atoms: O_17  and  C_18
REMARK    7  A    between atoms: C_18  and  C_19
REMARK                            x       y       z     vdW  Elec       q    Type
REMARK                         _______ _______ _______ _____ _____    ______ ____
ROOT
ATOM      1  C   UNL     1       2.920   3.069  19.064  0.00  0.00    +0.000 A 
ATOM      2  C   UNL     1       1.577   3.326  19.375  0.00  0.00    +0.000 A 
ATOM      3  C   UNL     1       1.173   4.529  19.958  0.00  0.00    +0.000 A 
ATOM      4  C   UNL     1       2.098   5.531  20.192  0.00  0.00    +0.000 A 
ATOM      5  C   UNL     1       3.440   5.289  19.869  0.00  0.00    +0.000 A 
ATOM      6  C   UNL     1       3.881   4.048  19.349  0.00  0.00    +0.000 A 
ENDROOT
BRANCH   4   7
ATOM      7  N   UNL     1       1.779   6.788  20.737  0.00  0.00    +0.000 N 
ATOM      8  C   UNL     1       1.750   8.008  20.084  0.00  0.00    +0.000 C 
ATOM      9  O   UNL     1       1.958   8.211  18.893  0.00  0.00    +0.000 OA
ATOM     10  H   UNL     1       1.549   6.847  21.723  0.00  0.00    +0.000 HD
BRANCH   8  11
ATOM     11  C   UNL     1       1.442   9.173  21.034  0.00  0.00    +0.000 C 
ATOM     12  C   UNL     1       0.903   8.646  22.356  0.00  0.00    +0.000 C 
ATOM     13  C   UNL     1      -0.059   9.725  22.780  0.00  0.00    +0.000 C 
ATOM     14  C   UNL     1      -0.613  10.189  21.456  0.00  0.00    +0.000 C 
ATOM     15  O   UNL     1       0.455  10.081  20.504  0.00  0.00    +0.000 OA
ENDBRANCH   8  11
ENDBRANCH   4   7
BRANCH   1  17
ATOM     16  C   UNL     1       4.024   0.933  18.970  0.00  0.00    +0.000 C 
ATOM     17  O   UNL     1       3.066   1.847  18.472  0.00  0.00    +0.000 OA
ENDBRANCH   1  17
BRANCH   6  18
ATOM     18  O   UNL     1       5.218   3.794  19.108  0.00  0.00    +0.000 OA
BRANCH  18  19
ATOM     19  C   UNL     1       5.678   4.262  17.830  0.00  0.00    +0.000 C 
BRANCH  19  20
ATOM     20  C   UNL     1       6.499   5.520  17.862  0.00  0.00    +0.000 A 
ATOM     21  C   UNL     1       7.531   5.771  18.761  0.00  0.00    +0.000 A 
ATOM     22  C   UNL     1       8.214   6.985  18.696  0.00  0.00    +0.000 A 
ATOM     23  C   UNL     1       7.844   7.904  17.727  0.00  0.00    +0.000 A 
ATOM     24  N   UNL     1       6.860   7.693  16.832  0.00  0.00    +0.000 NA
ATOM     25  C   UNL     1       6.214   6.511  16.921  0.00  0.00    +0.000 A 
ENDBRANCH  19  20
ENDBRANCH  18  19
ENDBRANCH   6  18
TORSDOF 6
ENDMDL
MODEL 9
REMARK VINA RESULT:      -6.9      4.158      6.620
REMARK  Name = 
REMARK  7 active torsions:
REMARK  status: ('A' for Active; 'I' for Inactive)
REMARK    1  A    between atoms: C_1  and  O_2
REMARK    2  A    between atoms: O_2  and  C_3
REMARK    3  A    between atoms: C_6  and  N_7
REMARK    4  A    between atoms: C_8  and  C_10
REMARK    5  A    between atoms: C_16  and  O_17
REMARK    6  A    between atoms: O_17  and  C_18
REMARK    7  A    between atoms: C_18  and  C_19
REMARK                            x       y       z     vdW  Elec       q    Type
REMARK                         _______ _______ _______ _____ _____    ______ ____
ROOT
ATOM      1  C   UNL     1       6.372   5.463  18.136  0.00  0.00    +0.000 A 
ATOM      2  C   UNL     1       7.648   5.728  18.652  0.00  0.00    +0.000 A 
ATOM      3  C   UNL     1       8.274   6.963  18.472  0.00  0.00    +0.000 A 
ATOM      4  C   UNL     1       7.613   7.987  17.817  0.00  0.00    +0.000 A 
ATOM      5  C   UNL     1       6.329   7.736  17.311  0.00  0.00    +0.000 A 
ATOM      6  C   UNL     1       5.709   6.468  17.417  0.00  0.00    +0.000 A 
ENDROOT
BRANCH   4   7
ATOM      7  N   UNL     1       8.145   9.275  17.623  0.00  0.00    +0.000 N 
ATOM      8  C   UNL     1       8.846  10.044  18.535  0.00  0.00    +0.000 C 
ATOM      9  O   UNL     1       9.168   9.725  19.674  0.00  0.00    +0.000 OA
ATOM     10  H   UNL     1       8.010   9.727  16.726  0.00  0.00    +0.000 HD
BRANCH   8  11
ATOM     11  C   UNL     1       9.189  11.435  17.986  0.00  0.00    +0.000 C 
ATOM     12  C   UNL     1      10.685  11.544  17.727  0.00  0.00    +0.000 C 
ATOM     13  C   UNL     1      10.973  12.993  18.017  0.00  0.00    +0.000 C 
ATOM     14  C   UNL     1      10.012  13.283  19.145  0.00  0.00    +0.000 C 
ATOM     15  O   UNL     1       8.838  12.497  18.895  0.00  0.00    +0.000 OA
ENDBRANCH   8  11
ENDBRANCH   4   7
BRANCH   1  17
ATOM     16  C   UNL     1       5.214   4.000  19.655  0.00  0.00    +0.000 C 
ATOM     17  O   UNL     1       5.954   4.207  18.468  0.00  0.00    +0.000 OA
ENDBRANCH   1  17
BRANCH   6  18
ATOM     18  O   UNL     1       4.477   6.211  16.846  0.00  0.00    +0.000 OA
BRANCH  18  19
ATOM     19  C   UNL     1       3.370   6.760  17.580  0.00  0.00    +0.000 C 
BRANCH  19  20
ATOM     20  C   UNL     1       2.570   5.769  18.377  0.00  0.00    +0.000 A 
ATOM     21  C   UNL     1       2.037   4.588  17.870  0.00  0.00    +0.000 A 
ATOM     22  C   UNL     1       1.302   3.753  18.710  0.00  0.00    +0.000 A 
ATOM     23  C   UNL     1       1.132   4.127  20.034  0.00  0.00    +0.000 A 
ATOM     24  N   UNL     1       1.642   5.255  20.566  0.00  0.00    +0.000 NA
ATOM     25  C   UNL     1       2.347   6.045  19.728  0.00  0.00    +0.000 A 
ENDBRANCH  19  20
ENDBRANCH  18  19
ENDBRANCH   6  18
TORSDOF 6
ENDMDL
