MODEL 1
REMARK VINA RESULT:      -7.0      0.000      0.000
REMARK  Name = 
REMARK  8 active torsions:
REMARK  status: ('A' for Active; 'I' for Inactive)
REMARK    1  A    between atoms: S_2  and  N_4
REMARK    2  A    between atoms: S_2  and  C_10
REMARK    3  A    between atoms: N_4  and  C_5
REMARK    4  A    between atoms: C_5  and  C_6
REMARK    5  A    between atoms: C_6  and  C_7
REMARK    6  A    between atoms: C_7  and  C_8
REMARK    7  A    between atoms: C_8  and  O_9
REMARK    8  A    between atoms: C_13  and  C_14
REMARK                            x       y       z     vdW  Elec       q    Type
REMARK                         _______ _______ _______ _____ _____    ______ ____
ROOT
ATOM      1  C   UNL     1       1.609   8.308  20.018  0.00  0.00    +0.000 A 
ATOM      2  C   UNL     1       2.034   7.053  20.448  0.00  0.00    +0.000 A 
ATOM      3  C   UNL     1       2.810   6.254  19.593  0.00  0.00    +0.000 A 
ATOM      4  C   UNL     1       3.144   6.669  18.282  0.00  0.00    +0.000 A 
ATOM      5  C   UNL     1       2.610   7.898  17.863  0.00  0.00    +0.000 A 
ATOM      6  C   UNL     1       1.890   8.733  18.723  0.00  0.00    +0.000 A 
ENDROOT
BRANCH   4   7
ATOM      7  C   UNL     1       3.970   5.815  17.376  0.00  0.00    +0.000 A 
ATOM      8  C   UNL     1       4.986   6.434  16.603  0.00  0.00    +0.000 A 
ATOM      9  C   UNL     1       5.826   5.713  15.745  0.00  0.00    +0.000 A 
ATOM     10  C   UNL     1       5.713   4.336  15.661  0.00  0.00    +0.000 A 
ATOM     11  C   UNL     1       4.729   3.686  16.398  0.00  0.00    +0.000 A 
ATOM     12  C   UNL     1       3.845   4.413  17.217  0.00  0.00    +0.000 A 
ATOM     13  I   UNL     1       2.279   3.229  18.025  0.00  0.00    +0.000 I 
ENDBRANCH   4   7
BRANCH   1  15
ATOM     14  O   UNL     1       1.487   9.900  22.101  0.00  0.00    +0.000 OA
ATOM     15  S   UNL     1       0.638   9.350  21.071  0.00  0.00    +0.000 S 
ATOM     16  O   UNL     1      -0.580   8.632  21.387  0.00  0.00    +0.000 OA
BRANCH  15  17
ATOM     17  N   UNL     1       0.180  10.605  20.033  0.00  0.00    +0.000 NA
ATOM     18  H   UNL     1       0.931  10.822  19.378  0.00  0.00    +0.000 HD
BRANCH  17  19
ATOM     19  C   UNL     1      -1.193  10.569  19.521  0.00  0.00    +0.000 C 
BRANCH  19  20
ATOM     20  C   UNL     1      -1.196  10.332  18.011  0.00  0.00    +0.000 C 
BRANCH  20  21
ATOM     21  C   UNL     1      -2.578   9.850  17.569  0.00  0.00    +0.000 C 
BRANCH  21  22
ATOM     22  C   UNL     1      -2.870  10.144  16.105  0.00  0.00    +0.000 C 
BRANCH  22  23
ATOM     23  O   UNL     1      -2.448  11.467  15.798  0.00  0.00    +0.000 OA
ATOM     24  H   UNL     1      -1.671  11.667  16.349  0.00  0.00    +0.000 HD
ENDBRANCH  22  23
ENDBRANCH  21  22
ENDBRANCH  20  21
ENDBRANCH  19  20
ENDBRANCH  17  19
ENDBRANCH  15  17
ENDBRANCH   1  15
TORSDOF 8
ENDMDL
MODEL 2
REMARK VINA RESULT:      -7.0      0.943      1.391
REMARK  Name = 
REMARK  8 active torsions:
REMARK  status: ('A' for Active; 'I' for Inactive)
REMARK    1  A    between atoms: S_2  and  N_4
REMARK    2  A    between atoms: S_2  and  C_10
REMARK    3  A    between atoms: N_4  and  C_5
REMARK    4  A    between atoms: C_5  and  C_6
REMARK    5  A    between atoms: C_6  and  C_7
REMARK    6  A    between atoms: C_7  and  C_8
REMARK    7  A    between atoms: C_8  and  O_9
REMARK    8  A    between atoms: C_13  and  C_14
REMARK                            x       y       z     vdW  Elec       q    Type
REMARK                         _______ _______ _______ _____ _____    ______ ____
ROOT
ATOM      1  C   UNL     1       1.211   8.844  19.972  0.00  0.00    +0.000 A 
ATOM      2  C   UNL     1       1.527   9.161  18.653  0.00  0.00    +0.000 A 
ATOM      3  C   UNL     1       2.284   8.261  17.887  0.00  0.00    +0.000 A 
ATOM      4  C   UNL     1       2.776   7.049  18.428  0.00  0.00    +0.000 A 
ATOM      5  C   UNL     1       2.512   6.822  19.788  0.00  0.00    +0.000 A 
ATOM      6  C   UNL     1       1.707   7.678  20.547  0.00  0.00    +0.000 A 
ENDROOT
BRANCH   4   7
ATOM      7  C   UNL     1       3.581   6.094  17.608  0.00  0.00    +0.000 A 
ATOM      8  C   UNL     1       4.671   6.600  16.856  0.00  0.00    +0.000 A 
ATOM      9  C   UNL     1       5.497   5.779  16.078  0.00  0.00    +0.000 A 
ATOM     10  C   UNL     1       5.293   4.410  16.058  0.00  0.00    +0.000 A 
ATOM     11  C   UNL     1       4.233   3.868  16.777  0.00  0.00    +0.000 A 
ATOM     12  C   UNL     1       3.365   4.697  17.514  0.00  0.00    +0.000 A 
ATOM     13  I   UNL     1       1.684   3.666  18.302  0.00  0.00    +0.000 I 
ENDBRANCH   4   7
BRANCH   1  15
ATOM     14  O   UNL     1       1.083  11.047  21.392  0.00  0.00    +0.000 OA
ATOM     15  S   UNL     1       0.249   9.948  20.967  0.00  0.00    +0.000 S 
ATOM     16  O   UNL     1      -0.494   9.144  21.915  0.00  0.00    +0.000 OA
BRANCH  15  17
ATOM     17  N   UNL     1      -0.893  10.542  19.868  0.00  0.00    +0.000 NA
ATOM     18  H   UNL     1      -1.788  10.066  19.987  0.00  0.00    +0.000 HD
BRANCH  17  19
ATOM     19  C   UNL     1      -0.905  11.990  19.648  0.00  0.00    +0.000 C 
BRANCH  19  20
ATOM     20  C   UNL     1      -1.239  12.308  18.190  0.00  0.00    +0.000 C 
BRANCH  20  21
ATOM     21  C   UNL     1      -2.521  11.581  17.787  0.00  0.00    +0.000 C 
BRANCH  21  22
ATOM     22  C   UNL     1      -2.387  10.821  16.476  0.00  0.00    +0.000 C 
BRANCH  22  23
ATOM     23  O   UNL     1      -3.207  11.433  15.490  0.00  0.00    +0.000 OA
ATOM     24  H   UNL     1      -2.955  12.372  15.435  0.00  0.00    +0.000 HD
ENDBRANCH  22  23
ENDBRANCH  21  22
ENDBRANCH  20  21
ENDBRANCH  19  20
ENDBRANCH  17  19
ENDBRANCH  15  17
ENDBRANCH   1  15
TORSDOF 8
ENDMDL
MODEL 3
REMARK VINA RESULT:      -7.0      1.040      1.484
REMARK  Name = 
REMARK  8 active torsions:
REMARK  status: ('A' for Active; 'I' for Inactive)
REMARK    1  A    between atoms: S_2  and  N_4
REMARK    2  A    between atoms: S_2  and  C_10
REMARK    3  A    between atoms: N_4  and  C_5
REMARK    4  A    between atoms: C_5  and  C_6
REMARK    5  A    between atoms: C_6  and  C_7
REMARK    6  A    between atoms: C_7  and  C_8
REMARK    7  A    between atoms: C_8  and  O_9
REMARK    8  A    between atoms: C_13  and  C_14
REMARK                            x       y       z     vdW  Elec       q    Type
REMARK                         _______ _______ _______ _____ _____    ______ ____
ROOT
ATOM      1  C   UNL     1       1.335   9.039  19.526  0.00  0.00    +0.000 A 
ATOM      2  C   UNL     1       1.784   9.268  18.227  0.00  0.00    +0.000 A 
ATOM      3  C   UNL     1       2.557   8.292  17.579  0.00  0.00    +0.000 A 
ATOM      4  C   UNL     1       2.933   7.089  18.222  0.00  0.00    +0.000 A 
ATOM      5  C   UNL     1       2.538   6.949  19.562  0.00  0.00    +0.000 A 
ATOM      6  C   UNL     1       1.716   7.882  20.201  0.00  0.00    +0.000 A 
ENDROOT
BRANCH   4   7
ATOM      7  C   UNL     1       3.757   6.053  17.528  0.00  0.00    +0.000 A 
ATOM      8  C   UNL     1       4.910   6.470  16.816  0.00  0.00    +0.000 A 
ATOM      9  C   UNL     1       5.755   5.570  16.155  0.00  0.00    +0.000 A 
ATOM     10  C   UNL     1       5.506   4.211  16.219  0.00  0.00    +0.000 A 
ATOM     11  C   UNL     1       4.384   3.754  16.903  0.00  0.00    +0.000 A 
ATOM     12  C   UNL     1       3.499   4.661  17.519  0.00  0.00    +0.000 A 
ATOM     13  I   UNL     1       1.738   3.740  18.266  0.00  0.00    +0.000 I 
ENDBRANCH   4   7
BRANCH   1  15
ATOM     14  O   UNL     1       1.214  11.096  21.152  0.00  0.00    +0.000 OA
ATOM     15  S   UNL     1       0.349  10.241  20.373  0.00  0.00    +0.000 S 
ATOM     16  O   UNL     1      -0.771   9.541  20.969  0.00  0.00    +0.000 OA
BRANCH  15  17
ATOM     17  N   UNL     1      -0.299  11.153  19.104  0.00  0.00    +0.000 NA
ATOM     18  H   UNL     1       0.403  11.312  18.381  0.00  0.00    +0.000 HD
BRANCH  17  19
ATOM     19  C   UNL     1      -1.662  10.821  18.682  0.00  0.00    +0.000 C 
BRANCH  19  20
ATOM     20  C   UNL     1      -1.638   9.960  17.419  0.00  0.00    +0.000 C 
BRANCH  20  21
ATOM     21  C   UNL     1      -2.804  10.348  16.510  0.00  0.00    +0.000 C 
BRANCH  21  22
ATOM     22  C   UNL     1      -3.716  11.397  17.128  0.00  0.00    +0.000 C 
BRANCH  22  23
ATOM     23  O   UNL     1      -5.061  11.134  16.749  0.00  0.00    +0.000 OA
ATOM     24  H   UNL     1      -5.517  11.989  16.660  0.00  0.00    +0.000 HD
ENDBRANCH  22  23
ENDBRANCH  21  22
ENDBRANCH  20  21
ENDBRANCH  19  20
ENDBRANCH  17  19
ENDBRANCH  15  17
ENDBRANCH   1  15
TORSDOF 8
ENDMDL
MODEL 4
REMARK VINA RESULT:      -6.9      2.011      2.824
REMARK  Name = 
REMARK  8 active torsions:
REMARK  status: ('A' for Active; 'I' for Inactive)
REMARK    1  A    between atoms: S_2  and  N_4
REMARK    2  A    between atoms: S_2  and  C_10
REMARK    3  A    between atoms: N_4  and  C_5
REMARK    4  A    between atoms: C_5  and  C_6
REMARK    5  A    between atoms: C_6  and  C_7
REMARK    6  A    between atoms: C_7  and  C_8
REMARK    7  A    between atoms: C_8  and  O_9
REMARK    8  A    between atoms: C_13  and  C_14
REMARK                            x       y       z     vdW  Elec       q    Type
REMARK                         _______ _______ _______ _____ _____    ______ ____
ROOT
ATOM      1  C   UNL     1       1.339   8.519  19.909  0.00  0.00    +0.000 A 
ATOM      2  C   UNL     1       1.654   8.915  18.611  0.00  0.00    +0.000 A 
ATOM      3  C   UNL     1       2.449   8.083  17.807  0.00  0.00    +0.000 A 
ATOM      4  C   UNL     1       2.979   6.863  18.289  0.00  0.00    +0.000 A 
ATOM      5  C   UNL     1       2.713   6.557  19.633  0.00  0.00    +0.000 A 
ATOM      6  C   UNL     1       1.873   7.343  20.427  0.00  0.00    +0.000 A 
ENDROOT
BRANCH   4   7
ATOM      7  C   UNL     1       3.824   5.981  17.429  0.00  0.00    +0.000 A 
ATOM      8  C   UNL     1       4.871   6.571  16.675  0.00  0.00    +0.000 A 
ATOM      9  C   UNL     1       5.729   5.823  15.860  0.00  0.00    +0.000 A 
ATOM     10  C   UNL     1       5.604   4.446  15.803  0.00  0.00    +0.000 A 
ATOM     11  C   UNL     1       4.589   3.822  16.521  0.00  0.00    +0.000 A 
ATOM     12  C   UNL     1       3.688   4.577  17.296  0.00  0.00    +0.000 A 
ATOM     13  I   UNL     1       2.084   3.428  18.078  0.00  0.00    +0.000 I 
ENDBRANCH   4   7
BRANCH   1  15
ATOM     14  O   UNL     1       1.151  10.572  21.534  0.00  0.00    +0.000 OA
ATOM     15  S   UNL     1       0.331   9.536  20.951  0.00  0.00    +0.000 S 
ATOM     16  O   UNL     1      -0.478   8.654  21.766  0.00  0.00    +0.000 OA
BRANCH  15  17
ATOM     17  N   UNL     1      -0.734  10.256  19.851  0.00  0.00    +0.000 NA
ATOM     18  H   UNL     1      -1.645   9.797  19.879  0.00  0.00    +0.000 HD
BRANCH  17  19
ATOM     19  C   UNL     1      -0.699  11.718  19.761  0.00  0.00    +0.000 C 
BRANCH  19  20
ATOM     20  C   UNL     1      -1.956  12.323  20.387  0.00  0.00    +0.000 C 
BRANCH  20  21
ATOM     21  C   UNL     1      -1.631  12.846  21.787  0.00  0.00    +0.000 C 
BRANCH  21  22
ATOM     22  C   UNL     1      -2.108  11.918  22.893  0.00  0.00    +0.000 C 
BRANCH  22  23
ATOM     23  O   UNL     1      -1.001  11.186  23.403  0.00  0.00    +0.000 OA
ATOM     24  H   UNL     1      -1.295  10.270  23.556  0.00  0.00    +0.000 HD
ENDBRANCH  22  23
ENDBRANCH  21  22
ENDBRANCH  20  21
ENDBRANCH  19  20
ENDBRANCH  17  19
ENDBRANCH  15  17
ENDBRANCH   1  15
TORSDOF 8
ENDMDL
MODEL 5
REMARK VINA RESULT:      -6.9      1.386      1.694
REMARK  Name = 
REMARK  8 active torsions:
REMARK  status: ('A' for Active; 'I' for Inactive)
REMARK    1  A    between atoms: S_2  and  N_4
REMARK    2  A    between atoms: S_2  and  C_10
REMARK    3  A    between atoms: N_4  and  C_5
REMARK    4  A    between atoms: C_5  and  C_6
REMARK    5  A    between atoms: C_6  and  C_7
REMARK    6  A    between atoms: C_7  and  C_8
REMARK    7  A    between atoms: C_8  and  O_9
REMARK    8  A    between atoms: C_13  and  C_14
REMARK                            x       y       z     vdW  Elec       q    Type
REMARK                         _______ _______ _______ _____ _____    ______ ____
ROOT
ATOM      1  C   UNL     1       1.346   9.455  19.598  0.00  0.00    +0.000 A 
ATOM      2  C   UNL     1       1.514   8.397  20.489  0.00  0.00    +0.000 A 
ATOM      3  C   UNL     1       2.097   7.201  20.042  0.00  0.00    +0.000 A 
ATOM      4  C   UNL     1       2.487   7.018  18.694  0.00  0.00    +0.000 A 
ATOM      5  C   UNL     1       2.209   8.078  17.816  0.00  0.00    +0.000 A 
ATOM      6  C   UNL     1       1.687   9.298  18.258  0.00  0.00    +0.000 A 
ENDROOT
BRANCH   4   7
ATOM      7  C   UNL     1       3.108   5.743  18.224  0.00  0.00    +0.000 A 
ATOM      8  C   UNL     1       4.075   5.803  17.187  0.00  0.00    +0.000 A 
ATOM      9  C   UNL     1       4.728   4.665  16.697  0.00  0.00    +0.000 A 
ATOM     10  C   UNL     1       4.473   3.425  17.258  0.00  0.00    +0.000 A 
ATOM     11  C   UNL     1       3.529   3.317  18.274  0.00  0.00    +0.000 A 
ATOM     12  C   UNL     1       2.828   4.450  18.729  0.00  0.00    +0.000 A 
ATOM     13  I   UNL     1       1.268   3.983  20.091  0.00  0.00    +0.000 I 
ENDBRANCH   4   7
BRANCH   1  15
ATOM     14  O   UNL     1       0.935  12.010  19.159  0.00  0.00    +0.000 OA
ATOM     15  S   UNL     1       0.624  10.983  20.126  0.00  0.00    +0.000 S 
ATOM     16  O   UNL     1       0.927  11.143  21.533  0.00  0.00    +0.000 OA
BRANCH  15  17
ATOM     17  N   UNL     1      -1.034  10.660  20.043  0.00  0.00    +0.000 NA
ATOM     18  H   UNL     1      -1.488  10.878  20.931  0.00  0.00    +0.000 HD
BRANCH  17  19
ATOM     19  C   UNL     1      -1.720  11.041  18.805  0.00  0.00    +0.000 C 
BRANCH  19  20
ATOM     20  C   UNL     1      -1.877   9.830  17.885  0.00  0.00    +0.000 C 
BRANCH  20  21
ATOM     21  C   UNL     1      -3.112  10.012  17.003  0.00  0.00    +0.000 C 
BRANCH  21  22
ATOM     22  C   UNL     1      -2.768  10.355  15.562  0.00  0.00    +0.000 C 
BRANCH  22  23
ATOM     23  O   UNL     1      -3.338  11.614  15.228  0.00  0.00    +0.000 OA
ATOM     24  H   UNL     1      -3.563  12.068  16.059  0.00  0.00    +0.000 HD
ENDBRANCH  22  23
ENDBRANCH  21  22
ENDBRANCH  20  21
ENDBRANCH  19  20
ENDBRANCH  17  19
ENDBRANCH  15  17
ENDBRANCH   1  15
TORSDOF 8
ENDMDL
MODEL 6
REMARK VINA RESULT:      -6.8      4.111      7.784
REMARK  Name = 
REMARK  8 active torsions:
REMARK  status: ('A' for Active; 'I' for Inactive)
REMARK    1  A    between atoms: S_2  and  N_4
REMARK    2  A    between atoms: S_2  and  C_10
REMARK    3  A    between atoms: N_4  and  C_5
REMARK    4  A    between atoms: C_5  and  C_6
REMARK    5  A    between atoms: C_6  and  C_7
REMARK    6  A    between atoms: C_7  and  C_8
REMARK    7  A    between atoms: C_8  and  O_9
REMARK    8  A    between atoms: C_13  and  C_14
REMARK                            x       y       z     vdW  Elec       q    Type
REMARK                         _______ _______ _______ _____ _____    ______ ____
ROOT
ATOM      1  C   UNL     1       2.213   7.343  19.224  0.00  0.00    +0.000 A 
ATOM      2  C   UNL     1       2.283   8.021  18.010  0.00  0.00    +0.000 A 
ATOM      3  C   UNL     1       1.810   9.340  17.925  0.00  0.00    +0.000 A 
ATOM      4  C   UNL     1       1.221   9.995  19.033  0.00  0.00    +0.000 A 
ATOM      5  C   UNL     1       1.086   9.235  20.206  0.00  0.00    +0.000 A 
ATOM      6  C   UNL     1       1.609   7.944  20.325  0.00  0.00    +0.000 A 
ENDROOT
BRANCH   4   7
ATOM      7  C   UNL     1       0.720  11.400  18.938  0.00  0.00    +0.000 A 
ATOM      8  C   UNL     1       1.546  12.448  19.417  0.00  0.00    +0.000 A 
ATOM      9  C   UNL     1       1.172  13.796  19.349  0.00  0.00    +0.000 A 
ATOM     10  C   UNL     1      -0.027  14.152  18.755  0.00  0.00    +0.000 A 
ATOM     11  C   UNL     1      -0.872  13.158  18.274  0.00  0.00    +0.000 A 
ATOM     12  C   UNL     1      -0.526  11.799  18.394  0.00  0.00    +0.000 A 
ATOM     13  I   UNL     1      -2.089  10.479  17.827  0.00  0.00    +0.000 I 
ENDBRANCH   4   7
BRANCH   1  15
ATOM     14  O   UNL     1       2.333   5.121  20.617  0.00  0.00    +0.000 OA
ATOM     15  S   UNL     1       2.809   5.682  19.374  0.00  0.00    +0.000 S 
ATOM     16  O   UNL     1       4.216   5.693  19.031  0.00  0.00    +0.000 OA
BRANCH  15  17
ATOM     17  N   UNL     1       2.028   4.890  18.099  0.00  0.00    +0.000 NA
ATOM     18  H   UNL     1       2.360   5.240  17.201  0.00  0.00    +0.000 HD
BRANCH  17  19
ATOM     19  C   UNL     1       1.826   3.445  18.245  0.00  0.00    +0.000 C 
BRANCH  19  20
ATOM     20  C   UNL     1       2.968   2.675  17.583  0.00  0.00    +0.000 C 
BRANCH  20  21
ATOM     21  C   UNL     1       3.477   1.592  18.534  0.00  0.00    +0.000 C 
BRANCH  21  22
ATOM     22  C   UNL     1       4.106   2.159  19.798  0.00  0.00    +0.000 C 
BRANCH  22  23
ATOM     23  O   UNL     1       5.291   1.435  20.099  0.00  0.00    +0.000 OA
ATOM     24  H   UNL     1       5.028   0.567  20.452  0.00  0.00    +0.000 HD
ENDBRANCH  22  23
ENDBRANCH  21  22
ENDBRANCH  20  21
ENDBRANCH  19  20
ENDBRANCH  17  19
ENDBRANCH  15  17
ENDBRANCH   1  15
TORSDOF 8
ENDMDL
MODEL 7
REMARK VINA RESULT:      -6.8      4.245      7.571
REMARK  Name = 
REMARK  8 active torsions:
REMARK  status: ('A' for Active; 'I' for Inactive)
REMARK    1  A    between atoms: S_2  and  N_4
REMARK    2  A    between atoms: S_2  and  C_10
REMARK    3  A    between atoms: N_4  and  C_5
REMARK    4  A    between atoms: C_5  and  C_6
REMARK    5  A    between atoms: C_6  and  C_7
REMARK    6  A    between atoms: C_7  and  C_8
REMARK    7  A    between atoms: C_8  and  O_9
REMARK    8  A    between atoms: C_13  and  C_14
REMARK                            x       y       z     vdW  Elec       q    Type
REMARK                         _______ _______ _______ _____ _____    ______ ____
ROOT
ATOM      1  C   UNL     1       2.210   7.359  19.163  0.00  0.00    +0.000 A 
ATOM      2  C   UNL     1       1.653   7.937  20.302  0.00  0.00    +0.000 A 
ATOM      3  C   UNL     1       1.162   9.250  20.242  0.00  0.00    +0.000 A 
ATOM      4  C   UNL     1       1.252  10.029  19.064  0.00  0.00    +0.000 A 
ATOM      5  C   UNL     1       1.908   9.435  17.974  0.00  0.00    +0.000 A 
ATOM      6  C   UNL     1       2.346   8.107  17.997  0.00  0.00    +0.000 A 
ENDROOT
BRANCH   4   7
ATOM      7  C   UNL     1       0.728  11.427  19.006  0.00  0.00    +0.000 A 
ATOM      8  C   UNL     1       1.536  12.475  19.515  0.00  0.00    +0.000 A 
ATOM      9  C   UNL     1       1.140  13.818  19.482  0.00  0.00    +0.000 A 
ATOM     10  C   UNL     1      -0.062  14.171  18.895  0.00  0.00    +0.000 A 
ATOM     11  C   UNL     1      -0.891  13.177  18.386  0.00  0.00    +0.000 A 
ATOM     12  C   UNL     1      -0.523  11.820  18.470  0.00  0.00    +0.000 A 
ATOM     13  I   UNL     1      -2.064  10.491  17.864  0.00  0.00    +0.000 I 
ENDBRANCH   4   7
BRANCH   1  15
ATOM     14  O   UNL     1       4.230   5.728  19.547  0.00  0.00    +0.000 OA
ATOM     15  S   UNL     1       2.830   5.700  19.195  0.00  0.00    +0.000 S 
ATOM     16  O   UNL     1       2.357   5.037  17.998  0.00  0.00    +0.000 OA
BRANCH  15  17
ATOM     17  N   UNL     1       1.973   5.007  20.478  0.00  0.00    +0.000 NA
ATOM     18  H   UNL     1       1.701   5.719  21.156  0.00  0.00    +0.000 HD
BRANCH  17  19
ATOM     19  C   UNL     1       0.994   3.972  20.134  0.00  0.00    +0.000 C 
BRANCH  19  20
ATOM     20  C   UNL     1       1.531   2.586  20.491  0.00  0.00    +0.000 C 
BRANCH  20  21
ATOM     21  C   UNL     1       2.004   1.875  19.224  0.00  0.00    +0.000 C 
BRANCH  21  22
ATOM     22  C   UNL     1       3.514   1.924  19.043  0.00  0.00    +0.000 C 
BRANCH  22  23
ATOM     23  O   UNL     1       3.946   0.746  18.375  0.00  0.00    +0.000 OA
ATOM     24  H   UNL     1       4.084   0.970  17.438  0.00  0.00    +0.000 HD
ENDBRANCH  22  23
ENDBRANCH  21  22
ENDBRANCH  20  21
ENDBRANCH  19  20
ENDBRANCH  17  19
ENDBRANCH  15  17
ENDBRANCH   1  15
TORSDOF 8
ENDMDL
MODEL 8
REMARK VINA RESULT:      -6.8      1.332      1.893
REMARK  Name = 
REMARK  8 active torsions:
REMARK  status: ('A' for Active; 'I' for Inactive)
REMARK    1  A    between atoms: S_2  and  N_4
REMARK    2  A    between atoms: S_2  and  C_10
REMARK    3  A    between atoms: N_4  and  C_5
REMARK    4  A    between atoms: C_5  and  C_6
REMARK    5  A    between atoms: C_6  and  C_7
REMARK    6  A    between atoms: C_7  and  C_8
REMARK    7  A    between atoms: C_8  and  O_9
REMARK    8  A    between atoms: C_13  and  C_14
REMARK                            x       y       z     vdW  Elec       q    Type
REMARK                         _______ _______ _______ _____ _____    ______ ____
ROOT
ATOM      1  C   UNL     1       1.385   9.258  19.572  0.00  0.00    +0.000 A 
ATOM      2  C   UNL     1       1.785   9.135  18.243  0.00  0.00    +0.000 A 
ATOM      3  C   UNL     1       2.340   7.926  17.797  0.00  0.00    +0.000 A 
ATOM      4  C   UNL     1       2.548   6.832  18.670  0.00  0.00    +0.000 A 
ATOM      5  C   UNL     1       2.219   7.041  20.019  0.00  0.00    +0.000 A 
ATOM      6  C   UNL     1       1.607   8.215  20.466  0.00  0.00    +0.000 A 
ENDROOT
BRANCH   4   7
ATOM      7  C   UNL     1       3.140   5.546  18.190  0.00  0.00    +0.000 A 
ATOM      8  C   UNL     1       4.107   5.592  17.153  0.00  0.00    +0.000 A 
ATOM      9  C   UNL     1       4.734   4.443  16.655  0.00  0.00    +0.000 A 
ATOM     10  C   UNL     1       4.452   3.205  17.207  0.00  0.00    +0.000 A 
ATOM     11  C   UNL     1       3.508   3.111  18.224  0.00  0.00    +0.000 A 
ATOM     12  C   UNL     1       2.832   4.256  18.687  0.00  0.00    +0.000 A 
ATOM     13  I   UNL     1       1.263   3.815  20.047  0.00  0.00    +0.000 I 
ENDBRANCH   4   7
BRANCH   1  15
ATOM     14  O   UNL     1       1.290  11.880  19.498  0.00  0.00    +0.000 OA
ATOM     15  S   UNL     1       0.670  10.764  20.171  0.00  0.00    +0.000 S 
ATOM     16  O   UNL     1       0.618  10.676  21.615  0.00  0.00    +0.000 OA
BRANCH  15  17
ATOM     17  N   UNL     1      -0.934  10.649  19.643  0.00  0.00    +0.000 NA
ATOM     18  H   UNL     1      -1.540  10.333  20.400  0.00  0.00    +0.000 HD
BRANCH  17  19
ATOM     19  C   UNL     1      -1.419  11.724  18.772  0.00  0.00    +0.000 C 
BRANCH  19  20
ATOM     20  C   UNL     1      -2.624  11.251  17.958  0.00  0.00    +0.000 C 
BRANCH  20  21
ATOM     21  C   UNL     1      -2.209  10.091  17.053  0.00  0.00    +0.000 C 
BRANCH  21  22
ATOM     22  C   UNL     1      -2.722  10.236  15.628  0.00  0.00    +0.000 C 
BRANCH  22  23
ATOM     23  O   UNL     1      -3.132  11.579  15.410  0.00  0.00    +0.000 OA
ATOM     24  H   UNL     1      -3.897  11.563  14.809  0.00  0.00    +0.000 HD
ENDBRANCH  22  23
ENDBRANCH  21  22
ENDBRANCH  20  21
ENDBRANCH  19  20
ENDBRANCH  17  19
ENDBRANCH  15  17
ENDBRANCH   1  15
TORSDOF 8
ENDMDL
MODEL 9
REMARK VINA RESULT:      -6.8      4.173      7.623
REMARK  Name = 
REMARK  8 active torsions:
REMARK  status: ('A' for Active; 'I' for Inactive)
REMARK    1  A    between atoms: S_2  and  N_4
REMARK    2  A    between atoms: S_2  and  C_10
REMARK    3  A    between atoms: N_4  and  C_5
REMARK    4  A    between atoms: C_5  and  C_6
REMARK    5  A    between atoms: C_6  and  C_7
REMARK    6  A    between atoms: C_7  and  C_8
REMARK    7  A    between atoms: C_8  and  O_9
REMARK    8  A    between atoms: C_13  and  C_14
REMARK                            x       y       z     vdW  Elec       q    Type
REMARK                         _______ _______ _______ _____ _____    ______ ____
ROOT
ATOM      1  C   UNL     1       2.618   7.430  18.739  0.00  0.00    +0.000 A 
ATOM      2  C   UNL     1       2.262   8.420  17.826  0.00  0.00    +0.000 A 
ATOM      3  C   UNL     1       1.420   9.467  18.233  0.00  0.00    +0.000 A 
ATOM      4  C   UNL     1       0.883   9.528  19.541  0.00  0.00    +0.000 A 
ATOM      5  C   UNL     1       1.193   8.455  20.392  0.00  0.00    +0.000 A 
ATOM      6  C   UNL     1       2.080   7.440  20.023  0.00  0.00    +0.000 A 
ENDROOT
BRANCH   4   7
ATOM      7  C   UNL     1      -0.013  10.644  19.969  0.00  0.00    +0.000 A 
ATOM      8  C   UNL     1       0.285  11.326  21.176  0.00  0.00    +0.000 A 
ATOM      9  C   UNL     1      -0.482  12.400  21.646  0.00  0.00    +0.000 A 
ATOM     10  C   UNL     1      -1.553  12.864  20.902  0.00  0.00    +0.000 A 
ATOM     11  C   UNL     1      -1.886  12.224  19.713  0.00  0.00    +0.000 A 
ATOM     12  C   UNL     1      -1.153  11.107  19.267  0.00  0.00    +0.000 A 
ATOM     13  I   UNL     1      -2.015  10.155  17.577  0.00  0.00    +0.000 I 
ENDBRANCH   4   7
BRANCH   1  15
ATOM     14  O   UNL     1       4.342   5.581  19.445  0.00  0.00    +0.000 OA
ATOM     15  S   UNL     1       3.687   6.099  18.268  0.00  0.00    +0.000 S 
ATOM     16  O   UNL     1       4.436   6.534  17.107  0.00  0.00    +0.000 OA
BRANCH  15  17
ATOM     17  N   UNL     1       2.600   4.930  17.705  0.00  0.00    +0.000 NA
ATOM     18  H   UNL     1       2.679   4.823  16.694  0.00  0.00    +0.000 HD
BRANCH  17  19
ATOM     19  C   UNL     1       2.455   3.720  18.519  0.00  0.00    +0.000 C 
BRANCH  19  20
ATOM     20  C   UNL     1       1.090   3.698  19.208  0.00  0.00    +0.000 C 
BRANCH  20  21
ATOM     21  C   UNL     1       1.264   3.976  20.701  0.00  0.00    +0.000 C 
BRANCH  21  22
ATOM     22  C   UNL     1       2.171   2.969  21.392  0.00  0.00    +0.000 C 
BRANCH  22  23
ATOM     23  O   UNL     1       1.441   2.302  22.413  0.00  0.00    +0.000 OA
ATOM     24  H   UNL     1       1.514   2.833  23.226  0.00  0.00    +0.000 HD
ENDBRANCH  22  23
ENDBRANCH  21  22
ENDBRANCH  20  21
ENDBRANCH  19  20
ENDBRANCH  17  19
ENDBRANCH  15  17
ENDBRANCH   1  15
TORSDOF 8
ENDMDL
