MODEL 1
REMARK VINA RESULT:      -5.1      0.000      0.000
REMARK  Name = 
REMARK  2 active torsions:
REMARK  status: ('A' for Active; 'I' for Inactive)
REMARK    1  A    between atoms: C_1  and  N_2
REMARK    2  A    between atoms: C_9  and  S_10
REMARK                            x       y       z     vdW  Elec       q    Type
REMARK                         _______ _______ _______ _____ _____    ______ ____
ROOT
ATOM      1  C   UNL     1       6.756   5.448  18.888  0.00  0.00    +0.000 C 
ATOM      2  N   UNL     1       5.915   4.284  18.999  0.00  0.00    +0.000 NA
ATOM      3  C   UNL     1       4.673   4.170  18.699  0.00  0.00    +0.000 A 
ATOM      4  C   UNL     1       4.104   2.846  19.113  0.00  0.00    +0.000 A 
ATOM      5  C   UNL     1       3.487   2.203  18.108  0.00  0.00    +0.000 A 
ATOM      6  C   UNL     1       2.048   2.355  18.130  0.00  0.00    +0.000 A 
ATOM      7  C   UNL     1       1.531   3.596  18.085  0.00  0.00    +0.000 A 
ATOM      8  C   UNL     1       2.300   4.825  17.877  0.00  0.00    +0.000 A 
ATOM      9  C   UNL     1       3.613   5.117  18.086  0.00  0.00    +0.000 A 
ENDROOT
BRANCH   9  10
ATOM     10  S   UNL     1       4.124   6.694  17.531  0.00  0.00    +0.000 S 
ATOM     11  H   UNL     1       3.982   6.487  16.216  0.00  0.00    +0.000 HD
ENDBRANCH   9  10
TORSDOF 1
ENDMDL
MODEL 2
REMARK VINA RESULT:      -4.9      1.738      2.016
REMARK  Name = 
REMARK  2 active torsions:
REMARK  status: ('A' for Active; 'I' for Inactive)
REMARK    1  A    between atoms: C_1  and  N_2
REMARK    2  A    between atoms: C_9  and  S_10
REMARK                            x       y       z     vdW  Elec       q    Type
REMARK                         _______ _______ _______ _____ _____    ______ ____
ROOT
ATOM      1  C   UNL     1       7.810   5.758  19.254  0.00  0.00    +0.000 C 
ATOM      2  N   UNL     1       6.488   5.316  19.616  0.00  0.00    +0.000 NA
ATOM      3  C   UNL     1       5.580   4.822  18.857  0.00  0.00    +0.000 A 
ATOM      4  C   UNL     1       4.275   4.638  19.572  0.00  0.00    +0.000 A 
ATOM      5  C   UNL     1       3.789   3.390  19.462  0.00  0.00    +0.000 A 
ATOM      6  C   UNL     1       2.768   3.262  18.443  0.00  0.00    +0.000 A 
ATOM      7  C   UNL     1       3.075   3.603  17.178  0.00  0.00    +0.000 A 
ATOM      8  C   UNL     1       4.410   3.970  16.703  0.00  0.00    +0.000 A 
ATOM      9  C   UNL     1       5.502   4.455  17.356  0.00  0.00    +0.000 A 
ENDROOT
BRANCH   9  10
ATOM     10  S   UNL     1       6.951   4.594  16.387  0.00  0.00    +0.000 S 
ATOM     11  H   UNL     1       6.755   3.530  15.598  0.00  0.00    +0.000 HD
ENDBRANCH   9  10
TORSDOF 1
ENDMDL
MODEL 3
REMARK VINA RESULT:      -4.8      2.133      2.341
REMARK  Name = 
REMARK  2 active torsions:
REMARK  status: ('A' for Active; 'I' for Inactive)
REMARK    1  A    between atoms: C_1  and  N_2
REMARK    2  A    between atoms: C_9  and  S_10
REMARK                            x       y       z     vdW  Elec       q    Type
REMARK                         _______ _______ _______ _____ _____    ______ ____
ROOT
ATOM      1  C   UNL     1       5.753   5.540  18.848  0.00  0.00    +0.000 C 
ATOM      2  N   UNL     1       4.648   5.316  19.744  0.00  0.00    +0.000 NA
ATOM      3  C   UNL     1       3.595   4.611  19.546  0.00  0.00    +0.000 A 
ATOM      4  C   UNL     1       2.592   4.757  20.651  0.00  0.00    +0.000 A 
ATOM      5  C   UNL     1       2.201   3.578  21.163  0.00  0.00    +0.000 A 
ATOM      6  C   UNL     1       0.932   3.120  20.640  0.00  0.00    +0.000 A 
ATOM      7  C   UNL     1       0.806   2.953  19.311  0.00  0.00    +0.000 A 
ATOM      8  C   UNL     1       1.896   3.064  18.339  0.00  0.00    +0.000 A 
ATOM      9  C   UNL     1       3.091   3.714  18.389  0.00  0.00    +0.000 A 
ENDROOT
BRANCH   9  10
ATOM     10  S   UNL     1       4.155   3.426  17.033  0.00  0.00    +0.000 S 
ATOM     11  H   UNL     1       4.881   2.436  17.568  0.00  0.00    +0.000 HD
ENDBRANCH   9  10
TORSDOF 1
ENDMDL
MODEL 4
REMARK VINA RESULT:      -4.8      1.809      2.129
REMARK  Name = 
REMARK  2 active torsions:
REMARK  status: ('A' for Active; 'I' for Inactive)
REMARK    1  A    between atoms: C_1  and  N_2
REMARK    2  A    between atoms: C_9  and  S_10
REMARK                            x       y       z     vdW  Elec       q    Type
REMARK                         _______ _______ _______ _____ _____    ______ ____
ROOT
ATOM      1  C   UNL     1       4.976   4.382  16.390  0.00  0.00    +0.000 C 
ATOM      2  N   UNL     1       4.106   3.489  17.112  0.00  0.00    +0.000 NA
ATOM      3  C   UNL     1       3.280   3.773  18.051  0.00  0.00    +0.000 A 
ATOM      4  C   UNL     1       2.675   2.548  18.669  0.00  0.00    +0.000 A 
ATOM      5  C   UNL     1       1.332   2.581  18.693  0.00  0.00    +0.000 A 
ATOM      6  C   UNL     1       0.793   2.981  19.975  0.00  0.00    +0.000 A 
ATOM      7  C   UNL     1       1.156   4.174  20.481  0.00  0.00    +0.000 A 
ATOM      8  C   UNL     1       1.954   5.182  19.780  0.00  0.00    +0.000 A 
ATOM      9  C   UNL     1       2.832   5.081  18.745  0.00  0.00    +0.000 A 
ENDROOT
BRANCH   9  10
ATOM     10  S   UNL     1       3.433   6.602  18.125  0.00  0.00    +0.000 S 
ATOM     11  H   UNL     1       4.224   6.115  17.161  0.00  0.00    +0.000 HD
ENDBRANCH   9  10
TORSDOF 1
ENDMDL
MODEL 5
REMARK VINA RESULT:      -4.8      1.830      4.129
REMARK  Name = 
REMARK  2 active torsions:
REMARK  status: ('A' for Active; 'I' for Inactive)
REMARK    1  A    between atoms: C_1  and  N_2
REMARK    2  A    between atoms: C_9  and  S_10
REMARK                            x       y       z     vdW  Elec       q    Type
REMARK                         _______ _______ _______ _____ _____    ______ ____
ROOT
ATOM      1  C   UNL     1       4.052   2.986  19.641  0.00  0.00    +0.000 C 
ATOM      2  N   UNL     1       5.340   3.558  19.343  0.00  0.00    +0.000 NA
ATOM      3  C   UNL     1       5.600   4.637  18.701  0.00  0.00    +0.000 A 
ATOM      4  C   UNL     1       7.068   4.813  18.450  0.00  0.00    +0.000 A 
ATOM      5  C   UNL     1       7.531   6.004  18.862  0.00  0.00    +0.000 A 
ATOM      6  C   UNL     1       7.660   6.969  17.791  0.00  0.00    +0.000 A 
ATOM      7  C   UNL     1       6.568   7.279  17.070  0.00  0.00    +0.000 A 
ATOM      8  C   UNL     1       5.207   6.823  17.359  0.00  0.00    +0.000 A 
ATOM      9  C   UNL     1       4.741   5.750  18.055  0.00  0.00    +0.000 A 
ENDROOT
BRANCH   9  10
ATOM     10  S   UNL     1       3.007   5.700  18.276  0.00  0.00    +0.000 S 
ATOM     11  H   UNL     1       2.664   6.514  17.270  0.00  0.00    +0.000 HD
ENDBRANCH   9  10
TORSDOF 1
ENDMDL
MODEL 6
REMARK VINA RESULT:      -4.7      2.037      2.381
REMARK  Name = 
REMARK  2 active torsions:
REMARK  status: ('A' for Active; 'I' for Inactive)
REMARK    1  A    between atoms: C_1  and  N_2
REMARK    2  A    between atoms: C_9  and  S_10
REMARK                            x       y       z     vdW  Elec       q    Type
REMARK                         _______ _______ _______ _____ _____    ______ ____
ROOT
ATOM      1  C   UNL     1       4.288   6.713  17.323  0.00  0.00    +0.000 C 
ATOM      2  N   UNL     1       3.812   5.361  17.454  0.00  0.00    +0.000 NA
ATOM      3  C   UNL     1       3.015   4.882  18.337  0.00  0.00    +0.000 A 
ATOM      4  C   UNL     1       2.886   3.391  18.243  0.00  0.00    +0.000 A 
ATOM      5  C   UNL     1       1.610   2.979  18.161  0.00  0.00    +0.000 A 
ATOM      6  C   UNL     1       1.073   2.524  19.425  0.00  0.00    +0.000 A 
ATOM      7  C   UNL     1       1.071   3.376  20.467  0.00  0.00    +0.000 A 
ATOM      8  C   UNL     1       1.446   4.790  20.402  0.00  0.00    +0.000 A 
ATOM      9  C   UNL     1       2.225   5.481  19.526  0.00  0.00    +0.000 A 
ENDROOT
BRANCH   9  10
ATOM     10  S   UNL     1       2.255   7.213  19.759  0.00  0.00    +0.000 S 
ATOM     11  H   UNL     1       3.495   7.444  19.309  0.00  0.00    +0.000 HD
ENDBRANCH   9  10
TORSDOF 1
ENDMDL
MODEL 7
REMARK VINA RESULT:      -4.7      2.488      3.066
REMARK  Name = 
REMARK  2 active torsions:
REMARK  status: ('A' for Active; 'I' for Inactive)
REMARK    1  A    between atoms: C_1  and  N_2
REMARK    2  A    between atoms: C_9  and  S_10
REMARK                            x       y       z     vdW  Elec       q    Type
REMARK                         _______ _______ _______ _____ _____    ______ ____
ROOT
ATOM      1  C   UNL     1       3.645   6.993  17.837  0.00  0.00    +0.000 C 
ATOM      2  N   UNL     1       2.919   6.481  18.971  0.00  0.00    +0.000 NA
ATOM      3  C   UNL     1       2.579   5.269  19.214  0.00  0.00    +0.000 A 
ATOM      4  C   UNL     1       1.686   5.155  20.413  0.00  0.00    +0.000 A 
ATOM      5  C   UNL     1       2.134   4.269  21.318  0.00  0.00    +0.000 A 
ATOM      6  C   UNL     1       1.478   2.981  21.231  0.00  0.00    +0.000 A 
ATOM      7  C   UNL     1       1.532   2.309  20.067  0.00  0.00    +0.000 A 
ATOM      8  C   UNL     1       2.321   2.705  18.899  0.00  0.00    +0.000 A 
ATOM      9  C   UNL     1       2.811   3.913  18.504  0.00  0.00    +0.000 A 
ENDROOT
BRANCH   9  10
ATOM     10  S   UNL     1       3.851   3.874  17.099  0.00  0.00    +0.000 S 
ATOM     11  H   UNL     1       3.312   4.904  16.436  0.00  0.00    +0.000 HD
ENDBRANCH   9  10
TORSDOF 1
ENDMDL
MODEL 8
REMARK VINA RESULT:      -4.7      1.979      2.422
REMARK  Name = 
REMARK  2 active torsions:
REMARK  status: ('A' for Active; 'I' for Inactive)
REMARK    1  A    between atoms: C_1  and  N_2
REMARK    2  A    between atoms: C_9  and  S_10
REMARK                            x       y       z     vdW  Elec       q    Type
REMARK                         _______ _______ _______ _____ _____    ______ ____
ROOT
ATOM      1  C   UNL     1       5.967   4.383  15.945  0.00  0.00    +0.000 C 
ATOM      2  N   UNL     1       4.606   3.998  16.222  0.00  0.00    +0.000 NA
ATOM      3  C   UNL     1       3.992   4.008  17.347  0.00  0.00    +0.000 A 
ATOM      4  C   UNL     1       2.634   3.376  17.262  0.00  0.00    +0.000 A 
ATOM      5  C   UNL     1       1.657   4.167  17.736  0.00  0.00    +0.000 A 
ATOM      6  C   UNL     1       1.262   3.841  19.089  0.00  0.00    +0.000 A 
ATOM      7  C   UNL     1       2.197   3.867  20.056  0.00  0.00    +0.000 A 
ATOM      8  C   UNL     1       3.574   4.335  19.887  0.00  0.00    +0.000 A 
ATOM      9  C   UNL     1       4.364   4.445  18.784  0.00  0.00    +0.000 A 
ENDROOT
BRANCH   9  10
ATOM     10  S   UNL     1       5.909   5.221  19.046  0.00  0.00    +0.000 S 
ATOM     11  H   UNL     1       5.475   6.276  19.747  0.00  0.00    +0.000 HD
ENDBRANCH   9  10
TORSDOF 1
ENDMDL
MODEL 9
REMARK VINA RESULT:      -4.7      2.523      3.279
REMARK  Name = 
REMARK  2 active torsions:
REMARK  status: ('A' for Active; 'I' for Inactive)
REMARK    1  A    between atoms: C_1  and  N_2
REMARK    2  A    between atoms: C_9  and  S_10
REMARK                            x       y       z     vdW  Elec       q    Type
REMARK                         _______ _______ _______ _____ _____    ______ ____
ROOT
ATOM      1  C   UNL     1       4.920   3.967  16.410  0.00  0.00    +0.000 C 
ATOM      2  N   UNL     1       4.112   4.837  17.225  0.00  0.00    +0.000 NA
ATOM      3  C   UNL     1       3.250   4.514  18.119  0.00  0.00    +0.000 A 
ATOM      4  C   UNL     1       2.490   5.699  18.634  0.00  0.00    +0.000 A 
ATOM      5  C   UNL     1       2.517   5.797  19.974  0.00  0.00    +0.000 A 
ATOM      6  C   UNL     1       1.322   5.284  20.610  0.00  0.00    +0.000 A 
ATOM      7  C   UNL     1       0.974   4.004  20.386  0.00  0.00    +0.000 A 
ATOM      8  C   UNL     1       1.780   3.025  19.653  0.00  0.00    +0.000 A 
ATOM      9  C   UNL     1       2.760   3.176  18.721  0.00  0.00    +0.000 A 
ENDROOT
BRANCH   9  10
ATOM     10  S   UNL     1       3.563   1.700  18.237  0.00  0.00    +0.000 S 
ATOM     11  H   UNL     1       2.605   0.836  18.597  0.00  0.00    +0.000 HD
ENDBRANCH   9  10
TORSDOF 1
ENDMDL
