MODEL 1
REMARK VINA RESULT:      -7.4      0.000      0.000
REMARK  Name = 
REMARK  8 active torsions:
REMARK  status: ('A' for Active; 'I' for Inactive)
REMARK    1  A    between atoms: C_1  and  C_2
REMARK    2  A    between atoms: C_2  and  O_3
REMARK    3  A    between atoms: O_3  and  C_4
REMARK    4  A    between atoms: C_4  and  C_6
REMARK    5  A    between atoms: C_7  and  C_8
REMARK    6  A    between atoms: C_12  and  C_13
REMARK    7  A    between atoms: C_17  and  C_18
REMARK    8  A    between atoms: C_22  and  C_23
REMARK                            x       y       z     vdW  Elec       q    Type
REMARK                         _______ _______ _______ _____ _____    ______ ____
ROOT
ATOM      1  C   UNL     1       2.523   7.180  19.373  0.00  0.00    +0.000 C 
ATOM      2  C   UNL     1       2.648   7.943  18.264  0.00  0.00    +0.000 C 
ATOM      3  C   UNL     1       1.840   9.183  17.962  0.00  0.00    +0.000 C 
ATOM      4  N   UNL     1       3.580   7.671  17.276  0.00  0.00    +0.000 NA
ATOM      5  C   UNL     1       4.379   6.676  17.443  0.00  0.00    +0.000 C 
ATOM      6  N   UNL     1       5.393   6.315  16.611  0.00  0.00    +0.000 N 
ATOM      7  C   UNL     1       5.962   5.043  17.034  0.00  0.00    +0.000 C 
ATOM      8  C   UNL     1       7.468   5.106  17.152  0.00  0.00    +0.000 C 
ATOM      9  C   UNL     1       5.298   4.862  18.406  0.00  0.00    +0.000 C 
ATOM     10  O   UNL     1       5.593   4.024  19.244  0.00  0.00    +0.000 OA
ATOM     11  N   UNL     1       4.318   5.822  18.490  0.00  0.00    +0.000 N 
ATOM     12  C   UNL     1       3.353   5.931  19.557  0.00  0.00    +0.000 C 
ATOM     13  H   UNL     1       5.332   6.574  15.634  0.00  0.00    +0.000 HD
ENDROOT
BRANCH  12  14
ATOM     14  C   UNL     1       2.474   4.687  19.619  0.00  0.00    +0.000 A 
ATOM     15  C   UNL     1       1.752   4.240  18.501  0.00  0.00    +0.000 A 
ATOM     16  C   UNL     1       0.893   3.149  18.609  0.00  0.00    +0.000 A 
ATOM     17  C   UNL     1       0.742   2.494  19.831  0.00  0.00    +0.000 A 
ATOM     18  C   UNL     1       1.463   2.914  20.954  0.00  0.00    +0.000 A 
ATOM     19  C   UNL     1       1.306   2.237  22.283  0.00  0.00    +0.000 C 
ATOM     20  C   UNL     1       2.336   3.999  20.836  0.00  0.00    +0.000 A 
ENDBRANCH  12  14
BRANCH   1  21
ATOM     21  C   UNL     1       1.516   7.450  20.430  0.00  0.00    +0.000 C 
ATOM     22  O   UNL     1       0.536   6.760  20.655  0.00  0.00    +0.000 OA
BRANCH  21  23
ATOM     23  O   UNL     1       1.858   8.568  21.126  0.00  0.00    +0.000 OA
BRANCH  23  25
ATOM     24  C   UNL     1       0.368   9.384  22.894  0.00  0.00    +0.000 C 
ATOM     25  C   UNL     1       0.781   9.467  21.433  0.00  0.00    +0.000 C 
ENDBRANCH  23  25
ENDBRANCH  21  23
ENDBRANCH   1  21
TORSDOF 4
ENDMDL
MODEL 2
REMARK VINA RESULT:      -7.3      0.603      1.410
REMARK  Name = 
REMARK  8 active torsions:
REMARK  status: ('A' for Active; 'I' for Inactive)
REMARK    1  A    between atoms: C_1  and  C_2
REMARK    2  A    between atoms: C_2  and  O_3
REMARK    3  A    between atoms: O_3  and  C_4
REMARK    4  A    between atoms: C_4  and  C_6
REMARK    5  A    between atoms: C_7  and  C_8
REMARK    6  A    between atoms: C_12  and  C_13
REMARK    7  A    between atoms: C_17  and  C_18
REMARK    8  A    between atoms: C_22  and  C_23
REMARK                            x       y       z     vdW  Elec       q    Type
REMARK                         _______ _______ _______ _____ _____    ______ ____
ROOT
ATOM      1  C   UNL     1       2.269   7.369  19.636  0.00  0.00    +0.000 C 
ATOM      2  C   UNL     1       2.196   7.971  18.428  0.00  0.00    +0.000 C 
ATOM      3  C   UNL     1       1.230   9.071  18.057  0.00  0.00    +0.000 C 
ATOM      4  N   UNL     1       3.047   7.647  17.384  0.00  0.00    +0.000 NA
ATOM      5  C   UNL     1       3.964   6.766  17.590  0.00  0.00    +0.000 C 
ATOM      6  N   UNL     1       4.922   6.386  16.702  0.00  0.00    +0.000 N 
ATOM      7  C   UNL     1       5.666   5.249  17.224  0.00  0.00    +0.000 C 
ATOM      8  C   UNL     1       7.161   5.470  17.158  0.00  0.00    +0.000 C 
ATOM      9  C   UNL     1       5.169   5.207  18.675  0.00  0.00    +0.000 C 
ATOM     10  O   UNL     1       5.638   4.532  19.579  0.00  0.00    +0.000 OA
ATOM     11  N   UNL     1       4.103   6.073  18.742  0.00  0.00    +0.000 N 
ATOM     12  C   UNL     1       3.245   6.245  19.889  0.00  0.00    +0.000 C 
ATOM     13  H   UNL     1       4.734   6.492  15.713  0.00  0.00    +0.000 HD
ENDROOT
BRANCH  12  14
ATOM     14  C   UNL     1       2.519   4.945  20.220  0.00  0.00    +0.000 A 
ATOM     15  C   UNL     1       2.578   4.376  21.502  0.00  0.00    +0.000 A 
ATOM     16  C   UNL     1       1.975   3.146  21.753  0.00  0.00    +0.000 A 
ATOM     17  C   UNL     1       1.310   2.469  20.730  0.00  0.00    +0.000 A 
ATOM     18  C   UNL     1       1.226   3.026  19.450  0.00  0.00    +0.000 A 
ATOM     19  C   UNL     1       0.532   2.311  18.329  0.00  0.00    +0.000 C 
ATOM     20  C   UNL     1       1.819   4.269  19.208  0.00  0.00    +0.000 A 
ENDBRANCH  12  14
BRANCH   1  21
ATOM     21  C   UNL     1       1.350   7.694  20.757  0.00  0.00    +0.000 C 
ATOM     22  O   UNL     1       0.329   7.084  21.023  0.00  0.00    +0.000 OA
BRANCH  21  23
ATOM     23  O   UNL     1       1.827   8.759  21.457  0.00  0.00    +0.000 OA
BRANCH  23  25
ATOM     24  C   UNL     1       0.184   9.541  23.100  0.00  0.00    +0.000 C 
ATOM     25  C   UNL     1       0.869   9.784  21.765  0.00  0.00    +0.000 C 
ENDBRANCH  23  25
ENDBRANCH  21  23
ENDBRANCH   1  21
TORSDOF 4
ENDMDL
MODEL 3
REMARK VINA RESULT:      -6.7      4.886      7.894
REMARK  Name = 
REMARK  8 active torsions:
REMARK  status: ('A' for Active; 'I' for Inactive)
REMARK    1  A    between atoms: C_1  and  C_2
REMARK    2  A    between atoms: C_2  and  O_3
REMARK    3  A    between atoms: O_3  and  C_4
REMARK    4  A    between atoms: C_4  and  C_6
REMARK    5  A    between atoms: C_7  and  C_8
REMARK    6  A    between atoms: C_12  and  C_13
REMARK    7  A    between atoms: C_17  and  C_18
REMARK    8  A    between atoms: C_22  and  C_23
REMARK                            x       y       z     vdW  Elec       q    Type
REMARK                         _______ _______ _______ _____ _____    ______ ____
ROOT
ATOM      1  C   UNL     1       0.304  12.827  19.773  0.00  0.00    +0.000 C 
ATOM      2  C   UNL     1      -0.650  13.514  20.441  0.00  0.00    +0.000 C 
ATOM      3  C   UNL     1      -0.393  14.607  21.451  0.00  0.00    +0.000 C 
ATOM      4  N   UNL     1      -2.003  13.295  20.238  0.00  0.00    +0.000 NA
ATOM      5  C   UNL     1      -2.359  12.432  19.351  0.00  0.00    +0.000 C 
ATOM      6  N   UNL     1      -3.636  12.149  18.978  0.00  0.00    +0.000 N 
ATOM      7  C   UNL     1      -3.654  11.001  18.082  0.00  0.00    +0.000 C 
ATOM      8  C   UNL     1      -4.448  11.275  16.824  0.00  0.00    +0.000 C 
ATOM      9  C   UNL     1      -2.159  10.837  17.777  0.00  0.00    +0.000 C 
ATOM     10  O   UNL     1      -1.673  10.112  16.922  0.00  0.00    +0.000 OA
ATOM     11  N   UNL     1      -1.494  11.660  18.655  0.00  0.00    +0.000 N 
ATOM     12  C   UNL     1      -0.061  11.720  18.813  0.00  0.00    +0.000 C 
ATOM     13  H   UNL     1      -4.383  12.321  19.639  0.00  0.00    +0.000 HD
ENDROOT
BRANCH  12  14
ATOM     14  C   UNL     1       0.486  10.376  19.284  0.00  0.00    +0.000 A 
ATOM     15  C   UNL     1       0.203   9.876  20.565  0.00  0.00    +0.000 A 
ATOM     16  C   UNL     1       0.783   8.687  20.998  0.00  0.00    +0.000 A 
ATOM     17  C   UNL     1       1.653   7.985  20.163  0.00  0.00    +0.000 A 
ATOM     18  C   UNL     1       1.936   8.458  18.878  0.00  0.00    +0.000 A 
ATOM     19  C   UNL     1       2.880   7.732  17.967  0.00  0.00    +0.000 C 
ATOM     20  C   UNL     1       1.338   9.644  18.442  0.00  0.00    +0.000 A 
ENDBRANCH  12  14
BRANCH   1  21
ATOM     21  C   UNL     1       1.757  13.039  19.995  0.00  0.00    +0.000 C 
ATOM     22  O   UNL     1       2.341  12.835  21.045  0.00  0.00    +0.000 OA
BRANCH  21  23
ATOM     23  O   UNL     1       2.346  13.473  18.848  0.00  0.00    +0.000 OA
BRANCH  23  25
ATOM     24  C   UNL     1       3.402  15.321  17.631  0.00  0.00    +0.000 C 
ATOM     25  C   UNL     1       2.361  14.897  18.653  0.00  0.00    +0.000 C 
ENDBRANCH  23  25
ENDBRANCH  21  23
ENDBRANCH   1  21
TORSDOF 4
ENDMDL
MODEL 4
REMARK VINA RESULT:      -6.7      2.813      5.429
REMARK  Name = 
REMARK  8 active torsions:
REMARK  status: ('A' for Active; 'I' for Inactive)
REMARK    1  A    between atoms: C_1  and  C_2
REMARK    2  A    between atoms: C_2  and  O_3
REMARK    3  A    between atoms: O_3  and  C_4
REMARK    4  A    between atoms: C_4  and  C_6
REMARK    5  A    between atoms: C_7  and  C_8
REMARK    6  A    between atoms: C_12  and  C_13
REMARK    7  A    between atoms: C_17  and  C_18
REMARK    8  A    between atoms: C_22  and  C_23
REMARK                            x       y       z     vdW  Elec       q    Type
REMARK                         _______ _______ _______ _____ _____    ______ ____
ROOT
ATOM      1  C   UNL     1       3.953   5.714  17.435  0.00  0.00    +0.000 C 
ATOM      2  C   UNL     1       3.420   4.472  17.403  0.00  0.00    +0.000 C 
ATOM      3  C   UNL     1       2.268   3.994  18.255  0.00  0.00    +0.000 C 
ATOM      4  N   UNL     1       3.873   3.490  16.536  0.00  0.00    +0.000 NA
ATOM      5  C   UNL     1       4.812   3.790  15.707  0.00  0.00    +0.000 C 
ATOM      6  N   UNL     1       5.321   2.973  14.746  0.00  0.00    +0.000 N 
ATOM      7  C   UNL     1       6.482   3.593  14.123  0.00  0.00    +0.000 C 
ATOM      8  C   UNL     1       6.388   3.588  12.614  0.00  0.00    +0.000 C 
ATOM      9  C   UNL     1       6.397   5.018  14.687  0.00  0.00    +0.000 C 
ATOM     10  O   UNL     1       7.053   5.979  14.317  0.00  0.00    +0.000 OA
ATOM     11  N   UNL     1       5.445   4.984  15.678  0.00  0.00    +0.000 N 
ATOM     12  C   UNL     1       5.136   6.076  16.569  0.00  0.00    +0.000 C 
ATOM     13  H   UNL     1       5.258   1.971  14.880  0.00  0.00    +0.000 HD
ENDROOT
BRANCH  12  14
ATOM     14  C   UNL     1       6.350   6.442  17.415  0.00  0.00    +0.000 A 
ATOM     15  C   UNL     1       6.898   5.541  18.342  0.00  0.00    +0.000 A 
ATOM     16  C   UNL     1       7.955   5.932  19.161  0.00  0.00    +0.000 A 
ATOM     17  C   UNL     1       8.475   7.223  19.068  0.00  0.00    +0.000 A 
ATOM     18  C   UNL     1       7.954   8.131  18.140  0.00  0.00    +0.000 A 
ATOM     19  C   UNL     1       8.484   9.529  18.031  0.00  0.00    +0.000 C 
ATOM     20  C   UNL     1       6.904   7.728  17.309  0.00  0.00    +0.000 A 
ENDBRANCH  12  14
BRANCH   1  21
ATOM     21  C   UNL     1       3.489   6.768  18.372  0.00  0.00    +0.000 C 
ATOM     22  O   UNL     1       3.373   6.631  19.577  0.00  0.00    +0.000 OA
BRANCH  21  23
ATOM     23  O   UNL     1       3.231   7.917  17.690  0.00  0.00    +0.000 OA
BRANCH  23  25
ATOM     24  C   UNL     1       1.832   9.894  18.072  0.00  0.00    +0.000 C 
ATOM     25  C   UNL     1       1.882   8.404  17.772  0.00  0.00    +0.000 C 
ENDBRANCH  23  25
ENDBRANCH  21  23
ENDBRANCH   1  21
TORSDOF 4
ENDMDL
MODEL 5
REMARK VINA RESULT:      -6.7      2.143      4.630
REMARK  Name = 
REMARK  8 active torsions:
REMARK  status: ('A' for Active; 'I' for Inactive)
REMARK    1  A    between atoms: C_1  and  C_2
REMARK    2  A    between atoms: C_2  and  O_3
REMARK    3  A    between atoms: O_3  and  C_4
REMARK    4  A    between atoms: C_4  and  C_6
REMARK    5  A    between atoms: C_7  and  C_8
REMARK    6  A    between atoms: C_12  and  C_13
REMARK    7  A    between atoms: C_17  and  C_18
REMARK    8  A    between atoms: C_22  and  C_23
REMARK                            x       y       z     vdW  Elec       q    Type
REMARK                         _______ _______ _______ _____ _____    ______ ____
ROOT
ATOM      1  C   UNL     1       2.371   7.119  18.758  0.00  0.00    +0.000 C 
ATOM      2  C   UNL     1       1.951   7.032  20.040  0.00  0.00    +0.000 C 
ATOM      3  C   UNL     1       1.536   8.199  20.905  0.00  0.00    +0.000 C 
ATOM      4  N   UNL     1       1.827   5.820  20.701  0.00  0.00    +0.000 NA
ATOM      5  C   UNL     1       2.088   4.739  20.053  0.00  0.00    +0.000 C 
ATOM      6  N   UNL     1       1.950   3.470  20.526  0.00  0.00    +0.000 N 
ATOM      7  C   UNL     1       2.505   2.518  19.575  0.00  0.00    +0.000 C 
ATOM      8  C   UNL     1       1.537   1.398  19.263  0.00  0.00    +0.000 C 
ATOM      9  C   UNL     1       2.735   3.416  18.352  0.00  0.00    +0.000 C 
ATOM     10  O   UNL     1       3.024   3.041  17.226  0.00  0.00    +0.000 OA
ATOM     11  N   UNL     1       2.554   4.709  18.784  0.00  0.00    +0.000 N 
ATOM     12  C   UNL     1       2.805   5.890  17.995  0.00  0.00    +0.000 C 
ATOM     13  H   UNL     1       2.002   3.318  21.525  0.00  0.00    +0.000 HD
ENDROOT
BRANCH  12  14
ATOM     14  C   UNL     1       4.276   5.974  17.603  0.00  0.00    +0.000 A 
ATOM     15  C   UNL     1       4.674   6.061  16.259  0.00  0.00    +0.000 A 
ATOM     16  C   UNL     1       6.026   6.052  15.925  0.00  0.00    +0.000 A 
ATOM     17  C   UNL     1       6.995   5.953  16.924  0.00  0.00    +0.000 A 
ATOM     18  C   UNL     1       6.620   5.880  18.270  0.00  0.00    +0.000 A 
ATOM     19  C   UNL     1       7.641   5.757  19.361  0.00  0.00    +0.000 C 
ATOM     20  C   UNL     1       5.262   5.907  18.601  0.00  0.00    +0.000 A 
ENDBRANCH  12  14
BRANCH   1  21
ATOM     21  C   UNL     1       2.525   8.412  18.045  0.00  0.00    +0.000 C 
ATOM     22  O   UNL     1       3.583   8.988  17.861  0.00  0.00    +0.000 OA
BRANCH  21  23
ATOM     23  O   UNL     1       1.313   8.851  17.607  0.00  0.00    +0.000 OA
BRANCH  23  25
ATOM     24  C   UNL     1      -0.614  10.204  18.287  0.00  0.00    +0.000 C 
ATOM     25  C   UNL     1       0.893  10.130  18.107  0.00  0.00    +0.000 C 
ENDBRANCH  23  25
ENDBRANCH  21  23
ENDBRANCH   1  21
TORSDOF 4
ENDMDL
MODEL 6
REMARK VINA RESULT:      -6.6      2.283      4.978
REMARK  Name = 
REMARK  8 active torsions:
REMARK  status: ('A' for Active; 'I' for Inactive)
REMARK    1  A    between atoms: C_1  and  C_2
REMARK    2  A    between atoms: C_2  and  O_3
REMARK    3  A    between atoms: O_3  and  C_4
REMARK    4  A    between atoms: C_4  and  C_6
REMARK    5  A    between atoms: C_7  and  C_8
REMARK    6  A    between atoms: C_12  and  C_13
REMARK    7  A    between atoms: C_17  and  C_18
REMARK    8  A    between atoms: C_22  and  C_23
REMARK                            x       y       z     vdW  Elec       q    Type
REMARK                         _______ _______ _______ _____ _____    ______ ____
ROOT
ATOM      1  C   UNL     1       2.637   6.698  18.587  0.00  0.00    +0.000 C 
ATOM      2  C   UNL     1       2.116   6.722  19.835  0.00  0.00    +0.000 C 
ATOM      3  C   UNL     1       1.884   7.965  20.661  0.00  0.00    +0.000 C 
ATOM      4  N   UNL     1       1.704   5.573  20.490  0.00  0.00    +0.000 NA
ATOM      5  C   UNL     1       1.787   4.448  19.868  0.00  0.00    +0.000 C 
ATOM      6  N   UNL     1       1.363   3.243  20.334  0.00  0.00    +0.000 N 
ATOM      7  C   UNL     1       1.782   2.180  19.431  0.00  0.00    +0.000 C 
ATOM      8  C   UNL     1       0.634   1.271  19.053  0.00  0.00    +0.000 C 
ATOM      9  C   UNL     1       2.276   2.990  18.226  0.00  0.00    +0.000 C 
ATOM     10  O   UNL     1       2.565   2.543  17.126  0.00  0.00    +0.000 OA
ATOM     11  N   UNL     1       2.328   4.301  18.637  0.00  0.00    +0.000 N 
ATOM     12  C   UNL     1       2.869   5.393  17.864  0.00  0.00    +0.000 C 
ATOM     13  H   UNL     1       1.311   3.103  21.335  0.00  0.00    +0.000 HD
ENDROOT
BRANCH  12  14
ATOM     14  C   UNL     1       4.351   5.172  17.582  0.00  0.00    +0.000 A 
ATOM     15  C   UNL     1       5.298   5.128  18.617  0.00  0.00    +0.000 A 
ATOM     16  C   UNL     1       6.654   5.008  18.325  0.00  0.00    +0.000 A 
ATOM     17  C   UNL     1       7.082   4.934  16.999  0.00  0.00    +0.000 A 
ATOM     18  C   UNL     1       6.153   4.961  15.953  0.00  0.00    +0.000 A 
ATOM     19  C   UNL     1       6.589   4.899  14.519  0.00  0.00    +0.000 C 
ATOM     20  C   UNL     1       4.792   5.064  16.253  0.00  0.00    +0.000 A 
ENDBRANCH  12  14
BRANCH   1  21
ATOM     21  C   UNL     1       3.099   7.920  17.882  0.00  0.00    +0.000 C 
ATOM     22  O   UNL     1       4.263   8.267  17.773  0.00  0.00    +0.000 OA
BRANCH  21  23
ATOM     23  O   UNL     1       2.036   8.586  17.355  0.00  0.00    +0.000 OA
BRANCH  23  25
ATOM     24  C   UNL     1       0.360  10.136  18.249  0.00  0.00    +0.000 C 
ATOM     25  C   UNL     1       1.813   9.910  17.864  0.00  0.00    +0.000 C 
ENDBRANCH  23  25
ENDBRANCH  21  23
ENDBRANCH   1  21
TORSDOF 4
ENDMDL
MODEL 7
REMARK VINA RESULT:      -6.5      2.110      4.663
REMARK  Name = 
REMARK  8 active torsions:
REMARK  status: ('A' for Active; 'I' for Inactive)
REMARK    1  A    between atoms: C_1  and  C_2
REMARK    2  A    between atoms: C_2  and  O_3
REMARK    3  A    between atoms: O_3  and  C_4
REMARK    4  A    between atoms: C_4  and  C_6
REMARK    5  A    between atoms: C_7  and  C_8
REMARK    6  A    between atoms: C_12  and  C_13
REMARK    7  A    between atoms: C_17  and  C_18
REMARK    8  A    between atoms: C_22  and  C_23
REMARK                            x       y       z     vdW  Elec       q    Type
REMARK                         _______ _______ _______ _____ _____    ______ ____
ROOT
ATOM      1  C   UNL     1       3.022   4.000  18.164  0.00  0.00    +0.000 C 
ATOM      2  C   UNL     1       3.914   3.099  18.634  0.00  0.00    +0.000 C 
ATOM      3  C   UNL     1       3.591   1.681  19.039  0.00  0.00    +0.000 C 
ATOM      4  N   UNL     1       5.262   3.388  18.768  0.00  0.00    +0.000 NA
ATOM      5  C   UNL     1       5.682   4.547  18.394  0.00  0.00    +0.000 C 
ATOM      6  N   UNL     1       6.976   4.966  18.389  0.00  0.00    +0.000 N 
ATOM      7  C   UNL     1       7.042   6.385  18.069  0.00  0.00    +0.000 C 
ATOM      8  C   UNL     1       8.033   6.672  16.963  0.00  0.00    +0.000 C 
ATOM      9  C   UNL     1       5.601   6.657  17.617  0.00  0.00    +0.000 C 
ATOM     10  O   UNL     1       5.196   7.673  17.073  0.00  0.00    +0.000 OA
ATOM     11  N   UNL     1       4.876   5.537  17.948  0.00  0.00    +0.000 N 
ATOM     12  C   UNL     1       3.443   5.411  17.827  0.00  0.00    +0.000 C 
ATOM     13  H   UNL     1       7.626   4.533  19.033  0.00  0.00    +0.000 HD
ENDROOT
BRANCH  12  14
ATOM     14  C   UNL     1       2.735   6.427  18.716  0.00  0.00    +0.000 A 
ATOM     15  C   UNL     1       2.501   6.176  20.077  0.00  0.00    +0.000 A 
ATOM     16  C   UNL     1       1.778   7.085  20.845  0.00  0.00    +0.000 A 
ATOM     17  C   UNL     1       1.279   8.252  20.267  0.00  0.00    +0.000 A 
ATOM     18  C   UNL     1       1.515   8.529  18.916  0.00  0.00    +0.000 A 
ATOM     19  C   UNL     1       0.975   9.768  18.266  0.00  0.00    +0.000 C 
ATOM     20  C   UNL     1       2.254   7.621  18.153  0.00  0.00    +0.000 A 
ENDBRANCH  12  14
BRANCH   1  21
ATOM     21  C   UNL     1       1.572   3.708  18.032  0.00  0.00    +0.000 C 
ATOM     22  O   UNL     1       0.842   4.167  17.171  0.00  0.00    +0.000 OA
BRANCH  21  23
ATOM     23  O   UNL     1       1.182   2.837  19.002  0.00  0.00    +0.000 OA
BRANCH  23  25
ATOM     24  C   UNL     1       1.290   2.969  21.447  0.00  0.00    +0.000 C 
ATOM     25  C   UNL     1       0.597   3.427  20.174  0.00  0.00    +0.000 C 
ENDBRANCH  23  25
ENDBRANCH  21  23
ENDBRANCH   1  21
TORSDOF 4
ENDMDL
MODEL 8
REMARK VINA RESULT:      -6.5      2.031      5.475
REMARK  Name = 
REMARK  8 active torsions:
REMARK  status: ('A' for Active; 'I' for Inactive)
REMARK    1  A    between atoms: C_1  and  C_2
REMARK    2  A    between atoms: C_2  and  O_3
REMARK    3  A    between atoms: O_3  and  C_4
REMARK    4  A    between atoms: C_4  and  C_6
REMARK    5  A    between atoms: C_7  and  C_8
REMARK    6  A    between atoms: C_12  and  C_13
REMARK    7  A    between atoms: C_17  and  C_18
REMARK    8  A    between atoms: C_22  and  C_23
REMARK                            x       y       z     vdW  Elec       q    Type
REMARK                         _______ _______ _______ _____ _____    ______ ____
ROOT
ATOM      1  C   UNL     1       4.515   5.440  17.667  0.00  0.00    +0.000 C 
ATOM      2  C   UNL     1       4.315   4.309  16.956  0.00  0.00    +0.000 C 
ATOM      3  C   UNL     1       4.996   3.964  15.652  0.00  0.00    +0.000 C 
ATOM      4  N   UNL     1       3.457   3.306  17.379  0.00  0.00    +0.000 NA
ATOM      5  C   UNL     1       2.861   3.447  18.511  0.00  0.00    +0.000 C 
ATOM      6  N   UNL     1       2.047   2.533  19.106  0.00  0.00    +0.000 N 
ATOM      7  C   UNL     1       1.420   3.112  20.286  0.00  0.00    +0.000 C 
ATOM      8  C   UNL     1       1.574   2.227  21.502  0.00  0.00    +0.000 C 
ATOM      9  C   UNL     1       2.215   4.416  20.436  0.00  0.00    +0.000 C 
ATOM     10  O   UNL     1       2.183   5.173  21.395  0.00  0.00    +0.000 OA
ATOM     11  N   UNL     1       2.954   4.552  19.286  0.00  0.00    +0.000 N 
ATOM     12  C   UNL     1       3.747   5.707  18.940  0.00  0.00    +0.000 C 
ATOM     13  H   UNL     1       1.565   1.862  18.521  0.00  0.00    +0.000 HD
ENDROOT
BRANCH  12  14
ATOM     14  C   UNL     1       2.867   6.945  18.806  0.00  0.00    +0.000 A 
ATOM     15  C   UNL     1       2.693   7.593  17.574  0.00  0.00    +0.000 A 
ATOM     16  C   UNL     1       1.951   8.769  17.497  0.00  0.00    +0.000 A 
ATOM     17  C   UNL     1       1.377   9.313  18.646  0.00  0.00    +0.000 A 
ATOM     18  C   UNL     1       1.526   8.674  19.882  0.00  0.00    +0.000 A 
ATOM     19  C   UNL     1       0.933   9.247  21.135  0.00  0.00    +0.000 C 
ATOM     20  C   UNL     1       2.257   7.485  19.950  0.00  0.00    +0.000 A 
ENDBRANCH  12  14
BRANCH   1  21
ATOM     21  C   UNL     1       5.418   6.529  17.215  0.00  0.00    +0.000 C 
ATOM     22  O   UNL     1       5.335   7.107  16.145  0.00  0.00    +0.000 OA
BRANCH  21  23
ATOM     23  O   UNL     1       6.337   6.804  18.180  0.00  0.00    +0.000 OA
BRANCH  23  25
ATOM     24  C   UNL     1       7.957   8.606  17.806  0.00  0.00    +0.000 C 
ATOM     25  C   UNL     1       7.659   7.118  17.712  0.00  0.00    +0.000 C 
ENDBRANCH  23  25
ENDBRANCH  21  23
ENDBRANCH   1  21
TORSDOF 4
ENDMDL
MODEL 9
REMARK VINA RESULT:      -6.3      2.104      5.396
REMARK  Name = 
REMARK  8 active torsions:
REMARK  status: ('A' for Active; 'I' for Inactive)
REMARK    1  A    between atoms: C_1  and  C_2
REMARK    2  A    between atoms: C_2  and  O_3
REMARK    3  A    between atoms: O_3  and  C_4
REMARK    4  A    between atoms: C_4  and  C_6
REMARK    5  A    between atoms: C_7  and  C_8
REMARK    6  A    between atoms: C_12  and  C_13
REMARK    7  A    between atoms: C_17  and  C_18
REMARK    8  A    between atoms: C_22  and  C_23
REMARK                            x       y       z     vdW  Elec       q    Type
REMARK                         _______ _______ _______ _____ _____    ______ ____
ROOT
ATOM      1  C   UNL     1       5.106   4.966  18.297  0.00  0.00    +0.000 C 
ATOM      2  C   UNL     1       5.268   4.129  17.248  0.00  0.00    +0.000 C 
ATOM      3  C   UNL     1       6.480   4.081  16.348  0.00  0.00    +0.000 C 
ATOM      4  N   UNL     1       4.319   3.182  16.899  0.00  0.00    +0.000 NA
ATOM      5  C   UNL     1       3.263   3.074  17.629  0.00  0.00    +0.000 C 
ATOM      6  N   UNL     1       2.273   2.155  17.472  0.00  0.00    +0.000 N 
ATOM      7  C   UNL     1       1.165   2.453  18.368  0.00  0.00    +0.000 C 
ATOM      8  C   UNL     1       0.742   1.242  19.169  0.00  0.00    +0.000 C 
ATOM      9  C   UNL     1       1.789   3.529  19.266  0.00  0.00    +0.000 C 
ATOM     10  O   UNL     1       1.310   3.974  20.298  0.00  0.00    +0.000 OA
ATOM     11  N   UNL     1       2.978   3.883  18.674  0.00  0.00    +0.000 N 
ATOM     12  C   UNL     1       3.832   4.962  19.108  0.00  0.00    +0.000 C 
ATOM     13  H   UNL     1       2.123   1.757  16.553  0.00  0.00    +0.000 HD
ENDROOT
BRANCH  12  14
ATOM     14  C   UNL     1       3.106   6.299  19.005  0.00  0.00    +0.000 A 
ATOM     15  C   UNL     1       3.109   7.048  17.817  0.00  0.00    +0.000 A 
ATOM     16  C   UNL     1       2.508   8.303  17.777  0.00  0.00    +0.000 A 
ATOM     17  C   UNL     1       1.902   8.829  18.919  0.00  0.00    +0.000 A 
ATOM     18  C   UNL     1       1.876   8.092  20.108  0.00  0.00    +0.000 A 
ATOM     19  C   UNL     1       1.245   8.641  21.353  0.00  0.00    +0.000 C 
ATOM     20  C   UNL     1       2.465   6.826  20.138  0.00  0.00    +0.000 A 
ENDBRANCH  12  14
BRANCH   1  21
ATOM     21  C   UNL     1       6.107   5.998  18.669  0.00  0.00    +0.000 C 
ATOM     22  O   UNL     1       6.772   5.991  19.690  0.00  0.00    +0.000 OA
BRANCH  21  23
ATOM     23  O   UNL     1       6.191   6.941  17.692  0.00  0.00    +0.000 OA
BRANCH  23  25
ATOM     24  C   UNL     1       7.876   8.719  17.800  0.00  0.00    +0.000 C 
ATOM     25  C   UNL     1       7.520   7.326  17.306  0.00  0.00    +0.000 C 
ENDBRANCH  23  25
ENDBRANCH  21  23
ENDBRANCH   1  21
TORSDOF 4
ENDMDL
