MODEL 1
REMARK VINA RESULT:      -8.4      0.000      0.000
REMARK  Name = 
REMARK  12 active torsions:
REMARK  status: ('A' for Active; 'I' for Inactive)
REMARK    1  A    between atoms: C_1  and  C_2
REMARK    2  A    between atoms: C_2  and  C_3
REMARK    3  A    between atoms: C_3  and  C_4
REMARK    4  A    between atoms: C_3  and  C_7
REMARK    5  A    between atoms: C_4  and  O_6
REMARK    6  A    between atoms: C_12  and  O_13
REMARK    7  A    between atoms: O_13  and  C_14
REMARK    8  A    between atoms: C_14  and  C_15
REMARK    9  A    between atoms: C_15  and  C_16
REMARK   10  A    between atoms: C_18  and  C_19
REMARK   11  A    between atoms: C_24  and  C_25
REMARK   12  A    between atoms: C_27  and  C_28
REMARK                            x       y       z     vdW  Elec       q    Type
REMARK                         _______ _______ _______ _____ _____    ______ ____
ROOT
ATOM      1  C   UNL     1       3.559   4.629  19.412  0.00  0.00    +0.000 C 
ATOM      2  C   UNL     1       2.487   5.105  18.389  0.00  0.00    +0.000 C 
ATOM      3  C   UNL     1       2.914   6.500  17.916  0.00  0.00    +0.000 C 
ATOM      4  C   UNL     1       4.400   6.400  18.049  0.00  0.00    +0.000 A 
ATOM      5  C   UNL     1       5.344   7.218  17.446  0.00  0.00    +0.000 A 
ATOM      6  C   UNL     1       6.699   6.993  17.704  0.00  0.00    +0.000 A 
ATOM      7  C   UNL     1       7.073   5.980  18.595  0.00  0.00    +0.000 A 
ATOM      8  C   UNL     1       6.114   5.173  19.215  0.00  0.00    +0.000 A 
ATOM      9  C   UNL     1       4.776   5.368  18.912  0.00  0.00    +0.000 A 
ENDROOT
BRANCH   1  10
ATOM     10  C   UNL     1       3.675   3.087  19.537  0.00  0.00    +0.000 C 
BRANCH  10  12
ATOM     11  C   UNL     1       2.068   3.544  21.520  0.00  0.00    +0.000 C 
ATOM     12  C   UNL     1       2.726   2.509  20.618  0.00  0.00    +0.000 C 
ENDBRANCH  10  12
BRANCH  10  13
ATOM     13  C   UNL     1       3.454   2.418  18.179  0.00  0.00    +0.000 C 
ATOM     14  O   UNL     1       4.150   2.583  17.191  0.00  0.00    +0.000 OA
BRANCH  13  15
ATOM     15  O   UNL     1       2.375   1.599  18.135  0.00  0.00    +0.000 OA
ATOM     16  H   UNL     1       2.128   1.188  18.981  0.00  0.00    +0.000 HD
ENDBRANCH  13  15
ENDBRANCH  10  13
ENDBRANCH   1  10
BRANCH   6  17
ATOM     17  O   UNL     1       7.740   7.694  17.143  0.00  0.00    +0.000 OA
BRANCH  17  18
ATOM     18  C   UNL     1       7.866   9.051  17.579  0.00  0.00    +0.000 C 
BRANCH  18  19
ATOM     19  C   UNL     1       8.902   9.159  18.695  0.00  0.00    +0.000 C 
BRANCH  19  20
ATOM     20  C   UNL     1       9.202  10.581  19.010  0.00  0.00    +0.000 A 
ATOM     21  N   UNL     1       9.465  11.470  17.992  0.00  0.00    +0.000 NA
ATOM     22  C   UNL     1       9.663  12.627  18.592  0.00  0.00    +0.000 A 
ATOM     23  O   UNL     1       9.577  12.551  19.959  0.00  0.00    +0.000 OA
ATOM     24  C   UNL     1       9.272  11.244  20.215  0.00  0.00    +0.000 A 
ATOM     25  C   UNL     1       9.081  10.873  21.626  0.00  0.00    +0.000 C 
BRANCH  22  26
ATOM     26  C   UNL     1       9.918  13.954  18.016  0.00  0.00    +0.000 A 
ATOM     27  C   UNL     1       8.950  14.971  18.144  0.00  0.00    +0.000 A 
ATOM     28  C   UNL     1       9.147  16.237  17.589  0.00  0.00    +0.000 A 
ATOM     29  C   UNL     1      10.319  16.514  16.896  0.00  0.00    +0.000 A 
ATOM     30  C   UNL     1      11.293  15.527  16.758  0.00  0.00    +0.000 A 
ATOM     31  C   UNL     1      11.107  14.245  17.306  0.00  0.00    +0.000 A 
ATOM     32  C   UNL     1      12.190  13.217  17.101  0.00  0.00    +0.000 C 
ENDBRANCH  22  26
ENDBRANCH  19  20
ENDBRANCH  18  19
ENDBRANCH  17  18
ENDBRANCH   6  17
TORSDOF 9
ENDMDL
MODEL 2
REMARK VINA RESULT:      -8.3      6.135      8.977
REMARK  Name = 
REMARK  12 active torsions:
REMARK  status: ('A' for Active; 'I' for Inactive)
REMARK    1  A    between atoms: C_1  and  C_2
REMARK    2  A    between atoms: C_2  and  C_3
REMARK    3  A    between atoms: C_3  and  C_4
REMARK    4  A    between atoms: C_3  and  C_7
REMARK    5  A    between atoms: C_4  and  O_6
REMARK    6  A    between atoms: C_12  and  O_13
REMARK    7  A    between atoms: O_13  and  C_14
REMARK    8  A    between atoms: C_14  and  C_15
REMARK    9  A    between atoms: C_15  and  C_16
REMARK   10  A    between atoms: C_18  and  C_19
REMARK   11  A    between atoms: C_24  and  C_25
REMARK   12  A    between atoms: C_27  and  C_28
REMARK                            x       y       z     vdW  Elec       q    Type
REMARK                         _______ _______ _______ _____ _____    ______ ____
ROOT
ATOM      1  C   UNL     1       3.807   5.392  17.573  0.00  0.00    +0.000 C 
ATOM      2  C   UNL     1       4.301   6.729  16.948  0.00  0.00    +0.000 C 
ATOM      3  C   UNL     1       3.244   7.790  17.280  0.00  0.00    +0.000 C 
ATOM      4  C   UNL     1       2.711   7.263  18.573  0.00  0.00    +0.000 A 
ATOM      5  C   UNL     1       1.985   7.968  19.522  0.00  0.00    +0.000 A 
ATOM      6  C   UNL     1       1.543   7.303  20.669  0.00  0.00    +0.000 A 
ATOM      7  C   UNL     1       1.800   5.936  20.816  0.00  0.00    +0.000 A 
ATOM      8  C   UNL     1       2.514   5.226  19.845  0.00  0.00    +0.000 A 
ATOM      9  C   UNL     1       2.996   5.905  18.737  0.00  0.00    +0.000 A 
ENDROOT
BRANCH   1  10
ATOM     10  C   UNL     1       4.942   4.385  17.896  0.00  0.00    +0.000 C 
BRANCH  10  12
ATOM     11  C   UNL     1       7.336   5.276  18.341  0.00  0.00    +0.000 C 
ATOM     12  C   UNL     1       5.963   4.953  18.915  0.00  0.00    +0.000 C 
ENDBRANCH  10  12
BRANCH  10  13
ATOM     13  C   UNL     1       4.360   3.051  18.367  0.00  0.00    +0.000 C 
ATOM     14  O   UNL     1       3.433   2.460  17.839  0.00  0.00    +0.000 OA
BRANCH  13  15
ATOM     15  O   UNL     1       4.960   2.546  19.473  0.00  0.00    +0.000 OA
ATOM     16  H   UNL     1       5.377   3.201  20.058  0.00  0.00    +0.000 HD
ENDBRANCH  13  15
ENDBRANCH  10  13
ENDBRANCH   1  10
BRANCH   6  17
ATOM     17  O   UNL     1       0.856   7.886  21.708  0.00  0.00    +0.000 OA
BRANCH  17  18
ATOM     18  C   UNL     1       1.286   9.204  22.059  0.00  0.00    +0.000 C 
BRANCH  18  19
ATOM     19  C   UNL     1       0.084  10.129  22.230  0.00  0.00    +0.000 C 
BRANCH  19  20
ATOM     20  C   UNL     1      -0.307  10.743  20.933  0.00  0.00    +0.000 A 
ATOM     21  N   UNL     1      -1.238  10.122  20.132  0.00  0.00    +0.000 NA
ATOM     22  C   UNL     1      -1.374  10.916  19.088  0.00  0.00    +0.000 A 
ATOM     23  O   UNL     1      -0.561  12.020  19.136  0.00  0.00    +0.000 OA
ATOM     24  C   UNL     1       0.109  11.905  20.322  0.00  0.00    +0.000 A 
ATOM     25  C   UNL     1       1.043  12.990  20.662  0.00  0.00    +0.000 C 
BRANCH  22  26
ATOM     26  C   UNL     1      -2.278  10.808  17.935  0.00  0.00    +0.000 A 
ATOM     27  C   UNL     1      -1.866  10.104  16.785  0.00  0.00    +0.000 A 
ATOM     28  C   UNL     1      -2.689  10.001  15.661  0.00  0.00    +0.000 A 
ATOM     29  C   UNL     1      -3.944  10.598  15.666  0.00  0.00    +0.000 A 
ATOM     30  C   UNL     1      -4.375  11.297  16.791  0.00  0.00    +0.000 A 
ATOM     31  C   UNL     1      -3.556  11.415  17.929  0.00  0.00    +0.000 A 
ATOM     32  C   UNL     1      -4.075  12.204  19.103  0.00  0.00    +0.000 C 
ENDBRANCH  22  26
ENDBRANCH  19  20
ENDBRANCH  18  19
ENDBRANCH  17  18
ENDBRANCH   6  17
TORSDOF 9
ENDMDL
MODEL 3
REMARK VINA RESULT:      -8.1      5.989      9.224
REMARK  Name = 
REMARK  12 active torsions:
REMARK  status: ('A' for Active; 'I' for Inactive)
REMARK    1  A    between atoms: C_1  and  C_2
REMARK    2  A    between atoms: C_2  and  C_3
REMARK    3  A    between atoms: C_3  and  C_4
REMARK    4  A    between atoms: C_3  and  C_7
REMARK    5  A    between atoms: C_4  and  O_6
REMARK    6  A    between atoms: C_12  and  O_13
REMARK    7  A    between atoms: O_13  and  C_14
REMARK    8  A    between atoms: C_14  and  C_15
REMARK    9  A    between atoms: C_15  and  C_16
REMARK   10  A    between atoms: C_18  and  C_19
REMARK   11  A    between atoms: C_24  and  C_25
REMARK   12  A    between atoms: C_27  and  C_28
REMARK                            x       y       z     vdW  Elec       q    Type
REMARK                         _______ _______ _______ _____ _____    ______ ____
ROOT
ATOM      1  C   UNL     1       5.037   3.938  17.319  0.00  0.00    +0.000 C 
ATOM      2  C   UNL     1       3.856   2.928  17.247  0.00  0.00    +0.000 C 
ATOM      3  C   UNL     1       2.764   3.457  18.186  0.00  0.00    +0.000 C 
ATOM      4  C   UNL     1       3.014   4.929  18.108  0.00  0.00    +0.000 A 
ATOM      5  C   UNL     1       2.134   5.941  18.463  0.00  0.00    +0.000 A 
ATOM      6  C   UNL     1       2.548   7.270  18.347  0.00  0.00    +0.000 A 
ATOM      7  C   UNL     1       3.849   7.553  17.918  0.00  0.00    +0.000 A 
ATOM      8  C   UNL     1       4.738   6.527  17.581  0.00  0.00    +0.000 A 
ATOM      9  C   UNL     1       4.301   5.213  17.648  0.00  0.00    +0.000 A 
ENDROOT
BRANCH   1  10
ATOM     10  C   UNL     1       5.937   3.951  16.055  0.00  0.00    +0.000 C 
BRANCH  10  12
ATOM     11  C   UNL     1       5.559   3.977  13.489  0.00  0.00    +0.000 C 
ATOM     12  C   UNL     1       5.236   4.608  14.837  0.00  0.00    +0.000 C 
ENDBRANCH  10  12
BRANCH  10  13
ATOM     13  C   UNL     1       7.280   4.618  16.357  0.00  0.00    +0.000 C 
ATOM     14  O   UNL     1       8.095   4.224  17.174  0.00  0.00    +0.000 OA
BRANCH  13  15
ATOM     15  O   UNL     1       7.517   5.739  15.632  0.00  0.00    +0.000 OA
ATOM     16  H   UNL     1       8.254   6.290  15.945  0.00  0.00    +0.000 HD
ENDBRANCH  13  15
ENDBRANCH  10  13
ENDBRANCH   1  10
BRANCH   6  17
ATOM     17  O   UNL     1       1.769   8.370  18.619  0.00  0.00    +0.000 OA
BRANCH  17  18
ATOM     18  C   UNL     1       1.264   8.443  19.956  0.00  0.00    +0.000 C 
BRANCH  18  19
ATOM     19  C   UNL     1       1.245   9.890  20.441  0.00  0.00    +0.000 C 
BRANCH  19  20
ATOM     20  C   UNL     1       0.329  10.719  19.613  0.00  0.00    +0.000 A 
ATOM     21  N   UNL     1      -1.006  10.393  19.529  0.00  0.00    +0.000 NA
ATOM     22  C   UNL     1      -1.535  11.318  18.752  0.00  0.00    +0.000 A 
ATOM     23  O   UNL     1      -0.618  12.227  18.289  0.00  0.00    +0.000 OA
ATOM     24  C   UNL     1       0.566  11.842  18.852  0.00  0.00    +0.000 A 
ATOM     25  C   UNL     1       1.743  12.674  18.552  0.00  0.00    +0.000 C 
BRANCH  22  26
ATOM     26  C   UNL     1      -2.934  11.527  18.358  0.00  0.00    +0.000 A 
ATOM     27  C   UNL     1      -3.378  11.099  17.090  0.00  0.00    +0.000 A 
ATOM     28  C   UNL     1      -4.694  11.304  16.672  0.00  0.00    +0.000 A 
ATOM     29  C   UNL     1      -5.598  11.937  17.516  0.00  0.00    +0.000 A 
ATOM     30  C   UNL     1      -5.186  12.367  18.776  0.00  0.00    +0.000 A 
ATOM     31  C   UNL     1      -3.861  12.175  19.210  0.00  0.00    +0.000 A 
ATOM     32  C   UNL     1      -3.476  12.684  20.575  0.00  0.00    +0.000 C 
ENDBRANCH  22  26
ENDBRANCH  19  20
ENDBRANCH  18  19
ENDBRANCH  17  18
ENDBRANCH   6  17
TORSDOF 9
ENDMDL
MODEL 4
REMARK VINA RESULT:      -8.1      6.299      8.905
REMARK  Name = 
REMARK  12 active torsions:
REMARK  status: ('A' for Active; 'I' for Inactive)
REMARK    1  A    between atoms: C_1  and  C_2
REMARK    2  A    between atoms: C_2  and  C_3
REMARK    3  A    between atoms: C_3  and  C_4
REMARK    4  A    between atoms: C_3  and  C_7
REMARK    5  A    between atoms: C_4  and  O_6
REMARK    6  A    between atoms: C_12  and  O_13
REMARK    7  A    between atoms: O_13  and  C_14
REMARK    8  A    between atoms: C_14  and  C_15
REMARK    9  A    between atoms: C_15  and  C_16
REMARK   10  A    between atoms: C_18  and  C_19
REMARK   11  A    between atoms: C_24  and  C_25
REMARK   12  A    between atoms: C_27  and  C_28
REMARK                            x       y       z     vdW  Elec       q    Type
REMARK                         _______ _______ _______ _____ _____    ______ ____
ROOT
ATOM      1  C   UNL     1       3.481   5.129  17.581  0.00  0.00    +0.000 C 
ATOM      2  C   UNL     1       4.324   6.362  17.146  0.00  0.00    +0.000 C 
ATOM      3  C   UNL     1       3.507   7.608  17.510  0.00  0.00    +0.000 C 
ATOM      4  C   UNL     1       2.743   7.108  18.694  0.00  0.00    +0.000 A 
ATOM      5  C   UNL     1       2.106   7.877  19.657  0.00  0.00    +0.000 A 
ATOM      6  C   UNL     1       1.414   7.235  20.687  0.00  0.00    +0.000 A 
ATOM      7  C   UNL     1       1.339   5.838  20.704  0.00  0.00    +0.000 A 
ATOM      8  C   UNL     1       1.967   5.070  19.717  0.00  0.00    +0.000 A 
ATOM      9  C   UNL     1       2.696   5.712  18.730  0.00  0.00    +0.000 A 
ENDROOT
BRANCH   1  10
ATOM     10  C   UNL     1       4.322   3.859  17.877  0.00  0.00    +0.000 C 
BRANCH  10  12
ATOM     11  C   UNL     1       3.655   1.439  18.529  0.00  0.00    +0.000 C 
ATOM     12  C   UNL     1       3.577   2.554  17.495  0.00  0.00    +0.000 C 
ENDBRANCH  10  12
BRANCH  10  13
ATOM     13  C   UNL     1       5.688   3.946  17.194  0.00  0.00    +0.000 C 
ATOM     14  O   UNL     1       5.883   3.849  15.994  0.00  0.00    +0.000 OA
BRANCH  13  15
ATOM     15  O   UNL     1       6.723   4.136  18.048  0.00  0.00    +0.000 OA
ATOM     16  H   UNL     1       7.242   4.946  17.901  0.00  0.00    +0.000 HD
ENDBRANCH  13  15
ENDBRANCH  10  13
ENDBRANCH   1  10
BRANCH   6  17
ATOM     17  O   UNL     1       0.777   7.868  21.729  0.00  0.00    +0.000 OA
BRANCH  17  18
ATOM     18  C   UNL     1       1.364   9.106  22.140  0.00  0.00    +0.000 C 
BRANCH  18  19
ATOM     19  C   UNL     1       0.287  10.174  22.319  0.00  0.00    +0.000 C 
BRANCH  19  20
ATOM     20  C   UNL     1      -0.114  10.752  21.008  0.00  0.00    +0.000 A 
ATOM     21  N   UNL     1      -1.094  10.141  20.259  0.00  0.00    +0.000 NA
ATOM     22  C   UNL     1      -1.226  10.899  19.188  0.00  0.00    +0.000 A 
ATOM     23  O   UNL     1      -0.365  11.967  19.168  0.00  0.00    +0.000 OA
ATOM     24  C   UNL     1       0.334  11.870  20.339  0.00  0.00    +0.000 A 
ATOM     25  C   UNL     1       1.324  12.924  20.609  0.00  0.00    +0.000 C 
BRANCH  22  26
ATOM     26  C   UNL     1      -2.166  10.786  18.065  0.00  0.00    +0.000 A 
ATOM     27  C   UNL     1      -1.808  10.042  16.922  0.00  0.00    +0.000 A 
ATOM     28  C   UNL     1      -2.667   9.933  15.826  0.00  0.00    +0.000 A 
ATOM     29  C   UNL     1      -3.905  10.562  15.852  0.00  0.00    +0.000 A 
ATOM     30  C   UNL     1      -4.284  11.301  16.971  0.00  0.00    +0.000 A 
ATOM     31  C   UNL     1      -3.428  11.426  18.080  0.00  0.00    +0.000 A 
ATOM     32  C   UNL     1      -3.891  12.258  19.248  0.00  0.00    +0.000 C 
ENDBRANCH  22  26
ENDBRANCH  19  20
ENDBRANCH  18  19
ENDBRANCH  17  18
ENDBRANCH   6  17
TORSDOF 9
ENDMDL
MODEL 5
REMARK VINA RESULT:      -8.1      2.221     10.998
REMARK  Name = 
REMARK  12 active torsions:
REMARK  status: ('A' for Active; 'I' for Inactive)
REMARK    1  A    between atoms: C_1  and  C_2
REMARK    2  A    between atoms: C_2  and  C_3
REMARK    3  A    between atoms: C_3  and  C_4
REMARK    4  A    between atoms: C_3  and  C_7
REMARK    5  A    between atoms: C_4  and  O_6
REMARK    6  A    between atoms: C_12  and  O_13
REMARK    7  A    between atoms: O_13  and  C_14
REMARK    8  A    between atoms: C_14  and  C_15
REMARK    9  A    between atoms: C_15  and  C_16
REMARK   10  A    between atoms: C_18  and  C_19
REMARK   11  A    between atoms: C_24  and  C_25
REMARK   12  A    between atoms: C_27  and  C_28
REMARK                            x       y       z     vdW  Elec       q    Type
REMARK                         _______ _______ _______ _____ _____    ______ ____
ROOT
ATOM      1  C   UNL     1       9.529  14.202  19.333  0.00  0.00    +0.000 C 
ATOM      2  C   UNL     1      10.610  13.949  20.423  0.00  0.00    +0.000 C 
ATOM      3  C   UNL     1      10.305  12.578  21.040  0.00  0.00    +0.000 C 
ATOM      4  C   UNL     1       9.668  11.882  19.881  0.00  0.00    +0.000 A 
ATOM      5  C   UNL     1       9.499  10.514  19.724  0.00  0.00    +0.000 A 
ATOM      6  C   UNL     1       8.856  10.038  18.578  0.00  0.00    +0.000 A 
ATOM      7  C   UNL     1       8.358  10.947  17.638  0.00  0.00    +0.000 A 
ATOM      8  C   UNL     1       8.514  12.326  17.813  0.00  0.00    +0.000 A 
ATOM      9  C   UNL     1       9.201  12.787  18.925  0.00  0.00    +0.000 A 
ENDROOT
BRANCH   1  10
ATOM     10  C   UNL     1       9.977  15.172  18.209  0.00  0.00    +0.000 C 
BRANCH  10  12
ATOM     11  C   UNL     1       8.429  17.063  19.078  0.00  0.00    +0.000 C 
ATOM     12  C   UNL     1       9.823  16.660  18.616  0.00  0.00    +0.000 C 
ENDBRANCH  10  12
BRANCH  10  13
ATOM     13  C   UNL     1      11.406  14.857  17.763  0.00  0.00    +0.000 C 
ATOM     14  O   UNL     1      11.738  13.896  17.089  0.00  0.00    +0.000 OA
BRANCH  13  15
ATOM     15  O   UNL     1      12.330  15.749  18.195  0.00  0.00    +0.000 OA
ATOM     16  H   UNL     1      12.021  16.378  18.870  0.00  0.00    +0.000 HD
ENDBRANCH  13  15
ENDBRANCH  10  13
ENDBRANCH   1  10
BRANCH   6  17
ATOM     17  O   UNL     1       8.660   8.712  18.272  0.00  0.00    +0.000 OA
BRANCH  17  18
ATOM     18  C   UNL     1       7.405   8.407  17.658  0.00  0.00    +0.000 C 
BRANCH  18  19
ATOM     19  C   UNL     1       7.431   7.002  17.060  0.00  0.00    +0.000 C 
BRANCH  19  20
ATOM     20  C   UNL     1       6.627   6.058  17.881  0.00  0.00    +0.000 A 
ATOM     21  N   UNL     1       5.362   5.698  17.473  0.00  0.00    +0.000 NA
ATOM     22  C   UNL     1       4.937   4.850  18.389  0.00  0.00    +0.000 A 
ATOM     23  O   UNL     1       5.839   4.648  19.402  0.00  0.00    +0.000 OA
ATOM     24  C   UNL     1       6.918   5.415  19.063  0.00  0.00    +0.000 A 
ATOM     25  C   UNL     1       8.077   5.366  19.970  0.00  0.00    +0.000 C 
BRANCH  22  26
ATOM     26  C   UNL     1       3.685   4.084  18.453  0.00  0.00    +0.000 A 
ATOM     27  C   UNL     1       3.610   2.811  17.851  0.00  0.00    +0.000 A 
ATOM     28  C   UNL     1       2.430   2.065  17.871  0.00  0.00    +0.000 A 
ATOM     29  C   UNL     1       1.300   2.575  18.499  0.00  0.00    +0.000 A 
ATOM     30  C   UNL     1       1.348   3.829  19.104  0.00  0.00    +0.000 A 
ATOM     31  C   UNL     1       2.528   4.596  19.087  0.00  0.00    +0.000 A 
ATOM     32  C   UNL     1       2.506   5.954  19.741  0.00  0.00    +0.000 C 
ENDBRANCH  22  26
ENDBRANCH  19  20
ENDBRANCH  18  19
ENDBRANCH  17  18
ENDBRANCH   6  17
TORSDOF 9
ENDMDL
MODEL 6
REMARK VINA RESULT:      -8.1      6.613      9.011
REMARK  Name = 
REMARK  12 active torsions:
REMARK  status: ('A' for Active; 'I' for Inactive)
REMARK    1  A    between atoms: C_1  and  C_2
REMARK    2  A    between atoms: C_2  and  C_3
REMARK    3  A    between atoms: C_3  and  C_4
REMARK    4  A    between atoms: C_3  and  C_7
REMARK    5  A    between atoms: C_4  and  O_6
REMARK    6  A    between atoms: C_12  and  O_13
REMARK    7  A    between atoms: O_13  and  C_14
REMARK    8  A    between atoms: C_14  and  C_15
REMARK    9  A    between atoms: C_15  and  C_16
REMARK   10  A    between atoms: C_18  and  C_19
REMARK   11  A    between atoms: C_24  and  C_25
REMARK   12  A    between atoms: C_27  and  C_28
REMARK                            x       y       z     vdW  Elec       q    Type
REMARK                         _______ _______ _______ _____ _____    ______ ____
ROOT
ATOM      1  C   UNL     1       5.245   4.872  18.446  0.00  0.00    +0.000 C 
ATOM      2  C   UNL     1       4.304   3.913  19.230  0.00  0.00    +0.000 C 
ATOM      3  C   UNL     1       3.276   4.795  19.952  0.00  0.00    +0.000 C 
ATOM      4  C   UNL     1       3.198   5.959  19.019  0.00  0.00    +0.000 A 
ATOM      5  C   UNL     1       2.189   6.909  18.958  0.00  0.00    +0.000 A 
ATOM      6  C   UNL     1       2.293   7.951  18.032  0.00  0.00    +0.000 A 
ATOM      7  C   UNL     1       3.429   8.041  17.220  0.00  0.00    +0.000 A 
ATOM      8  C   UNL     1       4.453   7.091  17.301  0.00  0.00    +0.000 A 
ATOM      9  C   UNL     1       4.315   6.032  18.184  0.00  0.00    +0.000 A 
ENDROOT
BRANCH   1  10
ATOM     10  C   UNL     1       5.925   4.223  17.212  0.00  0.00    +0.000 C 
BRANCH  10  12
ATOM     11  C   UNL     1       5.782   4.171  14.623  0.00  0.00    +0.000 C 
ATOM     12  C   UNL     1       5.034   4.286  15.944  0.00  0.00    +0.000 C 
ENDBRANCH  10  12
BRANCH  10  13
ATOM     13  C   UNL     1       7.299   4.848  16.963  0.00  0.00    +0.000 C 
ATOM     14  O   UNL     1       7.495   5.948  16.473  0.00  0.00    +0.000 OA
BRANCH  13  15
ATOM     15  O   UNL     1       8.340   4.061  17.328  0.00  0.00    +0.000 OA
ATOM     16  H   UNL     1       8.247   3.619  18.190  0.00  0.00    +0.000 HD
ENDBRANCH  13  15
ENDBRANCH  10  13
ENDBRANCH   1  10
BRANCH   6  17
ATOM     17  O   UNL     1       1.350   8.932  17.832  0.00  0.00    +0.000 OA
BRANCH  17  18
ATOM     18  C   UNL     1       1.220   9.877  18.898  0.00  0.00    +0.000 C 
BRANCH  18  19
ATOM     19  C   UNL     1      -0.251  10.082  19.251  0.00  0.00    +0.000 C 
BRANCH  19  20
ATOM     20  C   UNL     1      -0.401  10.567  20.650  0.00  0.00    +0.000 A 
ATOM     21  N   UNL     1      -1.267  11.601  20.929  0.00  0.00    +0.000 NA
ATOM     22  C   UNL     1      -1.185  11.771  22.234  0.00  0.00    +0.000 A 
ATOM     23  O   UNL     1      -0.288  10.926  22.836  0.00  0.00    +0.000 OA
ATOM     24  C   UNL     1       0.199  10.155  21.818  0.00  0.00    +0.000 A 
ATOM     25  C   UNL     1       1.175   9.115  22.183  0.00  0.00    +0.000 C 
BRANCH  22  26
ATOM     26  C   UNL     1      -1.928  12.684  23.112  0.00  0.00    +0.000 A 
ATOM     27  C   UNL     1      -3.112  12.247  23.739  0.00  0.00    +0.000 A 
ATOM     28  C   UNL     1      -3.857  13.095  24.561  0.00  0.00    +0.000 A 
ATOM     29  C   UNL     1      -3.430  14.400  24.777  0.00  0.00    +0.000 A 
ATOM     30  C   UNL     1      -2.261  14.856  24.171  0.00  0.00    +0.000 A 
ATOM     31  C   UNL     1      -1.503  14.016  23.336  0.00  0.00    +0.000 A 
ATOM     32  C   UNL     1      -0.261  14.579  22.694  0.00  0.00    +0.000 C 
ENDBRANCH  22  26
ENDBRANCH  19  20
ENDBRANCH  18  19
ENDBRANCH  17  18
ENDBRANCH   6  17
TORSDOF 9
ENDMDL
MODEL 7
REMARK VINA RESULT:      -8.0      6.580      9.092
REMARK  Name = 
REMARK  12 active torsions:
REMARK  status: ('A' for Active; 'I' for Inactive)
REMARK    1  A    between atoms: C_1  and  C_2
REMARK    2  A    between atoms: C_2  and  C_3
REMARK    3  A    between atoms: C_3  and  C_4
REMARK    4  A    between atoms: C_3  and  C_7
REMARK    5  A    between atoms: C_4  and  O_6
REMARK    6  A    between atoms: C_12  and  O_13
REMARK    7  A    between atoms: O_13  and  C_14
REMARK    8  A    between atoms: C_14  and  C_15
REMARK    9  A    between atoms: C_15  and  C_16
REMARK   10  A    between atoms: C_18  and  C_19
REMARK   11  A    between atoms: C_24  and  C_25
REMARK   12  A    between atoms: C_27  and  C_28
REMARK                            x       y       z     vdW  Elec       q    Type
REMARK                         _______ _______ _______ _____ _____    ______ ____
ROOT
ATOM      1  C   UNL     1       4.967   4.319  17.638  0.00  0.00    +0.000 C 
ATOM      2  C   UNL     1       3.822   3.270  17.752  0.00  0.00    +0.000 C 
ATOM      3  C   UNL     1       2.683   3.942  18.530  0.00  0.00    +0.000 C 
ATOM      4  C   UNL     1       2.886   5.373  18.149  0.00  0.00    +0.000 A 
ATOM      5  C   UNL     1       1.962   6.401  18.261  0.00  0.00    +0.000 A 
ATOM      6  C   UNL     1       2.335   7.692  17.877  0.00  0.00    +0.000 A 
ATOM      7  C   UNL     1       3.640   7.930  17.431  0.00  0.00    +0.000 A 
ATOM      8  C   UNL     1       4.573   6.891  17.340  0.00  0.00    +0.000 A 
ATOM      9  C   UNL     1       4.178   5.605  17.672  0.00  0.00    +0.000 A 
ENDROOT
BRANCH   1  10
ATOM     10  C   UNL     1       5.906   4.102  16.423  0.00  0.00    +0.000 C 
BRANCH  10  12
ATOM     11  C   UNL     1       5.933   3.987  13.832  0.00  0.00    +0.000 C 
ATOM     12  C   UNL     1       5.246   4.519  15.083  0.00  0.00    +0.000 C 
ENDBRANCH  10  12
BRANCH  10  13
ATOM     13  C   UNL     1       7.240   4.819  16.638  0.00  0.00    +0.000 C 
ATOM     14  O   UNL     1       7.526   5.921  16.202  0.00  0.00    +0.000 OA
BRANCH  13  15
ATOM     15  O   UNL     1       8.135   4.114  17.372  0.00  0.00    +0.000 OA
ATOM     16  H   UNL     1       8.436   3.279  16.974  0.00  0.00    +0.000 HD
ENDBRANCH  13  15
ENDBRANCH  10  13
ENDBRANCH   1  10
BRANCH   6  17
ATOM     17  O   UNL     1       1.512   8.793  17.892  0.00  0.00    +0.000 OA
BRANCH  17  18
ATOM     18  C   UNL     1       1.147   9.264  19.193  0.00  0.00    +0.000 C 
BRANCH  18  19
ATOM     19  C   UNL     1       1.243  10.786  19.255  0.00  0.00    +0.000 C 
BRANCH  19  20
ATOM     20  C   UNL     1      -0.010  11.378  19.796  0.00  0.00    +0.000 A 
ATOM     21  N   UNL     1      -0.093  11.711  21.129  0.00  0.00    +0.000 NA
ATOM     22  C   UNL     1      -1.300  12.221  21.279  0.00  0.00    +0.000 A 
ATOM     23  O   UNL     1      -2.038  12.219  20.122  0.00  0.00    +0.000 OA
ATOM     24  C   UNL     1      -1.202  11.688  19.180  0.00  0.00    +0.000 A 
ATOM     25  C   UNL     1      -1.726  11.595  17.807  0.00  0.00    +0.000 C 
BRANCH  22  26
ATOM     26  C   UNL     1      -1.931  12.811  22.466  0.00  0.00    +0.000 A 
ATOM     27  C   UNL     1      -3.068  12.200  23.033  0.00  0.00    +0.000 A 
ATOM     28  C   UNL     1      -3.709  12.745  24.148  0.00  0.00    +0.000 A 
ATOM     29  C   UNL     1      -3.222  13.913  24.722  0.00  0.00    +0.000 A 
ATOM     30  C   UNL     1      -2.098  14.536  24.183  0.00  0.00    +0.000 A 
ATOM     31  C   UNL     1      -1.445  14.002  23.057  0.00  0.00    +0.000 A 
ATOM     32  C   UNL     1      -0.248  14.737  22.511  0.00  0.00    +0.000 C 
ENDBRANCH  22  26
ENDBRANCH  19  20
ENDBRANCH  18  19
ENDBRANCH  17  18
ENDBRANCH   6  17
TORSDOF 9
ENDMDL
MODEL 8
REMARK VINA RESULT:      -7.7      5.563      7.195
REMARK  Name = 
REMARK  12 active torsions:
REMARK  status: ('A' for Active; 'I' for Inactive)
REMARK    1  A    between atoms: C_1  and  C_2
REMARK    2  A    between atoms: C_2  and  C_3
REMARK    3  A    between atoms: C_3  and  C_4
REMARK    4  A    between atoms: C_3  and  C_7
REMARK    5  A    between atoms: C_4  and  O_6
REMARK    6  A    between atoms: C_12  and  O_13
REMARK    7  A    between atoms: O_13  and  C_14
REMARK    8  A    between atoms: C_14  and  C_15
REMARK    9  A    between atoms: C_15  and  C_16
REMARK   10  A    between atoms: C_18  and  C_19
REMARK   11  A    between atoms: C_24  and  C_25
REMARK   12  A    between atoms: C_27  and  C_28
REMARK                            x       y       z     vdW  Elec       q    Type
REMARK                         _______ _______ _______ _____ _____    ______ ____
ROOT
ATOM      1  C   UNL     1       3.513   5.250  17.892  0.00  0.00    +0.000 C 
ATOM      2  C   UNL     1       4.239   6.464  17.244  0.00  0.00    +0.000 C 
ATOM      3  C   UNL     1       3.331   7.684  17.449  0.00  0.00    +0.000 C 
ATOM      4  C   UNL     1       2.644   7.313  18.723  0.00  0.00    +0.000 A 
ATOM      5  C   UNL     1       1.970   8.168  19.583  0.00  0.00    +0.000 A 
ATOM      6  C   UNL     1       1.361   7.640  20.725  0.00  0.00    +0.000 A 
ATOM      7  C   UNL     1       1.403   6.260  20.954  0.00  0.00    +0.000 A 
ATOM      8  C   UNL     1       2.066   5.401  20.070  0.00  0.00    +0.000 A 
ATOM      9  C   UNL     1       2.714   5.940  18.970  0.00  0.00    +0.000 A 
ENDROOT
BRANCH   1  10
ATOM     10  C   UNL     1       4.464   4.110  18.343  0.00  0.00    +0.000 C 
BRANCH  10  12
ATOM     11  C   UNL     1       2.546   2.585  17.494  0.00  0.00    +0.000 C 
ATOM     12  C   UNL     1       3.747   2.737  18.417  0.00  0.00    +0.000 C 
ENDBRANCH  10  12
BRANCH  10  13
ATOM     13  C   UNL     1       5.698   4.051  17.441  0.00  0.00    +0.000 C 
ATOM     14  O   UNL     1       5.685   3.839  16.240  0.00  0.00    +0.000 OA
BRANCH  13  15
ATOM     15  O   UNL     1       6.870   4.246  18.093  0.00  0.00    +0.000 OA
ATOM     16  H   UNL     1       7.618   4.522  17.535  0.00  0.00    +0.000 HD
ENDBRANCH  13  15
ENDBRANCH  10  13
ENDBRANCH   1  10
BRANCH   6  17
ATOM     17  O   UNL     1       0.702   8.373  21.683  0.00  0.00    +0.000 OA
BRANCH  17  18
ATOM     18  C   UNL     1       0.923   9.785  21.629  0.00  0.00    +0.000 C 
BRANCH  18  19
ATOM     19  C   UNL     1      -0.394  10.522  21.398  0.00  0.00    +0.000 C 
BRANCH  19  20
ATOM     20  C   UNL     1      -0.277  11.484  20.269  0.00  0.00    +0.000 A 
ATOM     21  N   UNL     1       0.205  12.753  20.496  0.00  0.00    +0.000 NA
ATOM     22  C   UNL     1       0.204  13.335  19.312  0.00  0.00    +0.000 A 
ATOM     23  O   UNL     1      -0.282  12.530  18.312  0.00  0.00    +0.000 OA
ATOM     24  C   UNL     1      -0.576  11.348  18.932  0.00  0.00    +0.000 A 
ATOM     25  C   UNL     1      -1.092  10.264  18.080  0.00  0.00    +0.000 C 
BRANCH  22  26
ATOM     26  C   UNL     1       0.674  14.669  18.919  0.00  0.00    +0.000 A 
ATOM     27  C   UNL     1      -0.236  15.744  18.859  0.00  0.00    +0.000 A 
ATOM     28  C   UNL     1       0.169  17.021  18.466  0.00  0.00    +0.000 A 
ATOM     29  C   UNL     1       1.498  17.252  18.129  0.00  0.00    +0.000 A 
ATOM     30  C   UNL     1       2.418  16.207  18.182  0.00  0.00    +0.000 A 
ATOM     31  C   UNL     1       2.024  14.913  18.570  0.00  0.00    +0.000 A 
ATOM     32  C   UNL     1       3.065  13.825  18.585  0.00  0.00    +0.000 C 
ENDBRANCH  22  26
ENDBRANCH  19  20
ENDBRANCH  18  19
ENDBRANCH  17  18
ENDBRANCH   6  17
TORSDOF 9
ENDMDL
MODEL 9
REMARK VINA RESULT:      -7.6      5.112      7.172
REMARK  Name = 
REMARK  12 active torsions:
REMARK  status: ('A' for Active; 'I' for Inactive)
REMARK    1  A    between atoms: C_1  and  C_2
REMARK    2  A    between atoms: C_2  and  C_3
REMARK    3  A    between atoms: C_3  and  C_4
REMARK    4  A    between atoms: C_3  and  C_7
REMARK    5  A    between atoms: C_4  and  O_6
REMARK    6  A    between atoms: C_12  and  O_13
REMARK    7  A    between atoms: O_13  and  C_14
REMARK    8  A    between atoms: C_14  and  C_15
REMARK    9  A    between atoms: C_15  and  C_16
REMARK   10  A    between atoms: C_18  and  C_19
REMARK   11  A    between atoms: C_24  and  C_25
REMARK   12  A    between atoms: C_27  and  C_28
REMARK                            x       y       z     vdW  Elec       q    Type
REMARK                         _______ _______ _______ _____ _____    ______ ____
ROOT
ATOM      1  C   UNL     1       4.478   5.239  16.765  0.00  0.00    +0.000 C 
ATOM      2  C   UNL     1       5.085   6.651  16.522  0.00  0.00    +0.000 C 
ATOM      3  C   UNL     1       4.043   7.669  17.003  0.00  0.00    +0.000 C 
ATOM      4  C   UNL     1       3.363   6.889  18.081  0.00  0.00    +0.000 A 
ATOM      5  C   UNL     1       2.575   7.398  19.104  0.00  0.00    +0.000 A 
ATOM      6  C   UNL     1       1.994   6.513  20.016  0.00  0.00    +0.000 A 
ATOM      7  C   UNL     1       2.181   5.135  19.856  0.00  0.00    +0.000 A 
ATOM      8  C   UNL     1       2.959   4.628  18.810  0.00  0.00    +0.000 A 
ATOM      9  C   UNL     1       3.576   5.516  17.942  0.00  0.00    +0.000 A 
ENDROOT
BRANCH   1  10
ATOM     10  C   UNL     1       5.534   4.116  16.937  0.00  0.00    +0.000 C 
BRANCH  10  12
ATOM     11  C   UNL     1       5.518   4.308  14.351  0.00  0.00    +0.000 C 
ATOM     12  C   UNL     1       6.098   3.622  15.580  0.00  0.00    +0.000 C 
ENDBRANCH  10  12
BRANCH  10  13
ATOM     13  C   UNL     1       6.652   4.568  17.878  0.00  0.00    +0.000 C 
ATOM     14  O   UNL     1       6.516   4.819  19.064  0.00  0.00    +0.000 OA
BRANCH  13  15
ATOM     15  O   UNL     1       7.863   4.692  17.281  0.00  0.00    +0.000 OA
ATOM     16  H   UNL     1       7.847   4.726  16.309  0.00  0.00    +0.000 HD
ENDBRANCH  13  15
ENDBRANCH  10  13
ENDBRANCH   1  10
BRANCH   6  17
ATOM     17  O   UNL     1       1.231   6.879  21.099  0.00  0.00    +0.000 OA
BRANCH  17  18
ATOM     18  C   UNL     1       1.184   8.283  21.366  0.00  0.00    +0.000 C 
BRANCH  18  19
ATOM     19  C   UNL     1      -0.167   8.860  20.949  0.00  0.00    +0.000 C 
BRANCH  19  20
ATOM     20  C   UNL     1       0.005  10.138  20.207  0.00  0.00    +0.000 A 
ATOM     21  N   UNL     1       1.047  10.981  20.522  0.00  0.00    +0.000 NA
ATOM     22  C   UNL     1       0.933  11.993  19.685  0.00  0.00    +0.000 A 
ATOM     23  O   UNL     1      -0.149  11.885  18.847  0.00  0.00    +0.000 OA
ATOM     24  C   UNL     1      -0.728  10.693  19.182  0.00  0.00    +0.000 A 
ATOM     25  C   UNL     1      -1.913  10.292  18.407  0.00  0.00    +0.000 C 
BRANCH  22  26
ATOM     26  C   UNL     1       1.798  13.165  19.502  0.00  0.00    +0.000 A 
ATOM     27  C   UNL     1       2.712  13.202  18.428  0.00  0.00    +0.000 A 
ATOM     28  C   UNL     1       3.567  14.289  18.237  0.00  0.00    +0.000 A 
ATOM     29  C   UNL     1       3.523  15.366  19.115  0.00  0.00    +0.000 A 
ATOM     30  C   UNL     1       2.628  15.356  20.182  0.00  0.00    +0.000 A 
ATOM     31  C   UNL     1       1.763  14.265  20.391  0.00  0.00    +0.000 A 
ATOM     32  C   UNL     1       0.835  14.308  21.577  0.00  0.00    +0.000 C 
ENDBRANCH  22  26
ENDBRANCH  19  20
ENDBRANCH  18  19
ENDBRANCH  17  18
ENDBRANCH   6  17
TORSDOF 9
ENDMDL
