MODEL 1
REMARK VINA RESULT:      -6.9      0.000      0.000
REMARK  Name = 
REMARK  4 active torsions:
REMARK  status: ('A' for Active; 'I' for Inactive)
REMARK    1  A    between atoms: C_1  and  C_2
REMARK    2  A    between atoms: C_2  and  C_4
REMARK    3  A    between atoms: C_7  and  N_8
REMARK    4  A    between atoms: C_10  and  C_11
REMARK                            x       y       z     vdW  Elec       q    Type
REMARK                         _______ _______ _______ _____ _____    ______ ____
ROOT
ATOM      1  C   UNL     1       6.112   5.877  17.387  0.00  0.00    +0.000 A 
ATOM      2  C   UNL     1       6.198   4.587  16.847  0.00  0.00    +0.000 A 
ATOM      3  C   UNL     1       5.035   3.822  16.623  0.00  0.00    +0.000 A 
ATOM      4  C   UNL     1       3.772   4.331  16.934  0.00  0.00    +0.000 A 
ATOM      5  C   UNL     1       3.706   5.643  17.437  0.00  0.00    +0.000 A 
ATOM      6  C   UNL     1       4.851   6.408  17.663  0.00  0.00    +0.000 A 
ENDROOT
BRANCH   1   8
ATOM      7  C   UNL     1       8.111   6.417  18.943  0.00  0.00    +0.000 C 
ATOM      8  C   UNL     1       7.307   6.718  17.707  0.00  0.00    +0.000 C 
ATOM      9  O   UNL     1       7.623   7.644  16.960  0.00  0.00    +0.000 OA
ENDBRANCH   1   8
BRANCH   4  10
ATOM     10  N   UNL     1       2.537   3.653  16.897  0.00  0.00    +0.000 N 
ATOM     11  C   UNL     1       1.337   4.328  17.391  0.00  0.00    +0.000 C 
ATOM     12  C   UNL     1       1.790   3.019  17.976  0.00  0.00    +0.000 C 
BRANCH  12  13
ATOM     13  C   UNL     1       2.132   2.919  19.431  0.00  0.00    +0.000 A 
ATOM     14  C   UNL     1       1.110   3.033  20.392  0.00  0.00    +0.000 A 
ATOM     15  C   UNL     1       1.378   2.763  21.726  0.00  0.00    +0.000 A 
ATOM     16  N   UNL     1       2.593   2.405  22.180  0.00  0.00    +0.000 NA
ATOM     17  C   UNL     1       3.572   2.302  21.258  0.00  0.00    +0.000 A 
ATOM     18  C   UNL     1       3.393   2.543  19.902  0.00  0.00    +0.000 A 
ENDBRANCH  12  13
ENDBRANCH   4  10
TORSDOF 3
ENDMDL
MODEL 2
REMARK VINA RESULT:      -6.8      2.746      4.093
REMARK  Name = 
REMARK  4 active torsions:
REMARK  status: ('A' for Active; 'I' for Inactive)
REMARK    1  A    between atoms: C_1  and  C_2
REMARK    2  A    between atoms: C_2  and  C_4
REMARK    3  A    between atoms: C_7  and  N_8
REMARK    4  A    between atoms: C_10  and  C_11
REMARK                            x       y       z     vdW  Elec       q    Type
REMARK                         _______ _______ _______ _____ _____    ______ ____
ROOT
ATOM      1  C   UNL     1       6.064   4.491  16.239  0.00  0.00    +0.000 A 
ATOM      2  C   UNL     1       6.615   4.971  17.434  0.00  0.00    +0.000 A 
ATOM      3  C   UNL     1       5.921   4.833  18.654  0.00  0.00    +0.000 A 
ATOM      4  C   UNL     1       4.670   4.214  18.699  0.00  0.00    +0.000 A 
ATOM      5  C   UNL     1       4.154   3.703  17.495  0.00  0.00    +0.000 A 
ATOM      6  C   UNL     1       4.832   3.836  16.283  0.00  0.00    +0.000 A 
ENDROOT
BRANCH   1   8
ATOM      7  C   UNL     1       6.186   3.893  13.722  0.00  0.00    +0.000 C 
ATOM      8  C   UNL     1       6.716   4.659  14.904  0.00  0.00    +0.000 C 
ATOM      9  O   UNL     1       7.676   5.421  14.782  0.00  0.00    +0.000 OA
ENDBRANCH   1   8
BRANCH   4  10
ATOM     10  N   UNL     1       3.796   4.117  19.801  0.00  0.00    +0.000 N 
ATOM     11  C   UNL     1       2.398   3.753  19.574  0.00  0.00    +0.000 C 
ATOM     12  C   UNL     1       2.766   5.041  20.257  0.00  0.00    +0.000 C 
BRANCH  12  13
ATOM     13  C   UNL     1       2.347   6.354  19.670  0.00  0.00    +0.000 A 
ATOM     14  C   UNL     1       1.727   7.314  20.491  0.00  0.00    +0.000 A 
ATOM     15  C   UNL     1       1.498   8.595  20.011  0.00  0.00    +0.000 A 
ATOM     16  N   UNL     1       1.826   8.990  18.768  0.00  0.00    +0.000 NA
ATOM     17  C   UNL     1       2.415   8.067  17.980  0.00  0.00    +0.000 A 
ATOM     18  C   UNL     1       2.690   6.765  18.379  0.00  0.00    +0.000 A 
ENDBRANCH  12  13
ENDBRANCH   4  10
TORSDOF 3
ENDMDL
MODEL 3
REMARK VINA RESULT:      -6.8      0.737      1.380
REMARK  Name = 
REMARK  4 active torsions:
REMARK  status: ('A' for Active; 'I' for Inactive)
REMARK    1  A    between atoms: C_1  and  C_2
REMARK    2  A    between atoms: C_2  and  C_4
REMARK    3  A    between atoms: C_7  and  N_8
REMARK    4  A    between atoms: C_10  and  C_11
REMARK                            x       y       z     vdW  Elec       q    Type
REMARK                         _______ _______ _______ _____ _____    ______ ____
ROOT
ATOM      1  C   UNL     1       6.190   5.753  17.743  0.00  0.00    +0.000 A 
ATOM      2  C   UNL     1       6.258   4.508  17.103  0.00  0.00    +0.000 A 
ATOM      3  C   UNL     1       5.082   3.809  16.760  0.00  0.00    +0.000 A 
ATOM      4  C   UNL     1       3.823   4.342  17.051  0.00  0.00    +0.000 A 
ATOM      5  C   UNL     1       3.778   5.610  17.657  0.00  0.00    +0.000 A 
ATOM      6  C   UNL     1       4.936   6.308  18.001  0.00  0.00    +0.000 A 
ENDROOT
BRANCH   1   8
ATOM      7  C   UNL     1       7.731   7.822  17.519  0.00  0.00    +0.000 C 
ATOM      8  C   UNL     1       7.396   6.517  18.189  0.00  0.00    +0.000 C 
ATOM      9  O   UNL     1       8.099   6.077  19.098  0.00  0.00    +0.000 OA
ENDBRANCH   1   8
BRANCH   4  10
ATOM     10  N   UNL     1       2.569   3.718  16.898  0.00  0.00    +0.000 N 
ATOM     11  C   UNL     1       1.376   4.372  17.437  0.00  0.00    +0.000 C 
ATOM     12  C   UNL     1       1.768   2.986  17.872  0.00  0.00    +0.000 C 
BRANCH  12  13
ATOM     13  C   UNL     1       2.060   2.701  19.313  0.00  0.00    +0.000 A 
ATOM     14  C   UNL     1       3.369   2.361  19.701  0.00  0.00    +0.000 A 
ATOM     15  C   UNL     1       3.694   2.273  21.047  0.00  0.00    +0.000 A 
ATOM     16  N   UNL     1       2.809   2.482  22.038  0.00  0.00    +0.000 NA
ATOM     17  C   UNL     1       1.553   2.802  21.664  0.00  0.00    +0.000 A 
ATOM     18  C   UNL     1       1.141   2.921  20.343  0.00  0.00    +0.000 A 
ENDBRANCH  12  13
ENDBRANCH   4  10
TORSDOF 3
ENDMDL
MODEL 4
REMARK VINA RESULT:      -6.7      2.716      4.280
REMARK  Name = 
REMARK  4 active torsions:
REMARK  status: ('A' for Active; 'I' for Inactive)
REMARK    1  A    between atoms: C_1  and  C_2
REMARK    2  A    between atoms: C_2  and  C_4
REMARK    3  A    between atoms: C_7  and  N_8
REMARK    4  A    between atoms: C_10  and  C_11
REMARK                            x       y       z     vdW  Elec       q    Type
REMARK                         _______ _______ _______ _____ _____    ______ ____
ROOT
ATOM      1  C   UNL     1       6.105   4.481  16.009  0.00  0.00    +0.000 A 
ATOM      2  C   UNL     1       6.715   4.779  17.234  0.00  0.00    +0.000 A 
ATOM      3  C   UNL     1       6.003   4.651  18.444  0.00  0.00    +0.000 A 
ATOM      4  C   UNL     1       4.672   4.224  18.449  0.00  0.00    +0.000 A 
ATOM      5  C   UNL     1       4.091   3.892  17.212  0.00  0.00    +0.000 A 
ATOM      6  C   UNL     1       4.788   4.017  16.009  0.00  0.00    +0.000 A 
ENDROOT
BRANCH   1   8
ATOM      7  C   UNL     1       6.296   3.866  13.500  0.00  0.00    +0.000 C 
ATOM      8  C   UNL     1       6.781   4.655  14.686  0.00  0.00    +0.000 C 
ATOM      9  O   UNL     1       7.724   5.439  14.578  0.00  0.00    +0.000 OA
ENDBRANCH   1   8
BRANCH   4  10
ATOM     10  N   UNL     1       3.789   4.172  19.546  0.00  0.00    +0.000 N 
ATOM     11  C   UNL     1       2.357   4.001  19.301  0.00  0.00    +0.000 C 
ATOM     12  C   UNL     1       2.880   5.190  20.059  0.00  0.00    +0.000 C 
BRANCH  12  13
ATOM     13  C   UNL     1       2.632   6.577  19.552  0.00  0.00    +0.000 A 
ATOM     14  C   UNL     1       3.027   6.919  18.245  0.00  0.00    +0.000 A 
ATOM     15  C   UNL     1       2.645   8.135  17.699  0.00  0.00    +0.000 A 
ATOM     16  N   UNL     1       1.910   9.047  18.362  0.00  0.00    +0.000 NA
ATOM     17  C   UNL     1       1.536   8.719  19.616  0.00  0.00    +0.000 A 
ATOM     18  C   UNL     1       1.865   7.522  20.239  0.00  0.00    +0.000 A 
ENDBRANCH  12  13
ENDBRANCH   4  10
TORSDOF 3
ENDMDL
MODEL 5
REMARK VINA RESULT:      -6.6      2.981      4.376
REMARK  Name = 
REMARK  4 active torsions:
REMARK  status: ('A' for Active; 'I' for Inactive)
REMARK    1  A    between atoms: C_1  and  C_2
REMARK    2  A    between atoms: C_2  and  C_4
REMARK    3  A    between atoms: C_7  and  N_8
REMARK    4  A    between atoms: C_10  and  C_11
REMARK                            x       y       z     vdW  Elec       q    Type
REMARK                         _______ _______ _______ _____ _____    ______ ____
ROOT
ATOM      1  C   UNL     1       6.005   4.863  15.777  0.00  0.00    +0.000 A 
ATOM      2  C   UNL     1       4.769   4.209  15.869  0.00  0.00    +0.000 A 
ATOM      3  C   UNL     1       4.035   4.222  17.072  0.00  0.00    +0.000 A 
ATOM      4  C   UNL     1       4.523   4.887  18.200  0.00  0.00    +0.000 A 
ATOM      5  C   UNL     1       5.745   5.570  18.075  0.00  0.00    +0.000 A 
ATOM      6  C   UNL     1       6.480   5.562  16.888  0.00  0.00    +0.000 A 
ENDROOT
BRANCH   1   8
ATOM      7  C   UNL     1       6.490   3.931  13.410  0.00  0.00    +0.000 C 
ATOM      8  C   UNL     1       6.863   4.836  14.552  0.00  0.00    +0.000 C 
ATOM      9  O   UNL     1       7.862   5.553  14.488  0.00  0.00    +0.000 OA
ENDBRANCH   1   8
BRANCH   4  10
ATOM     10  N   UNL     1       3.983   4.883  19.502  0.00  0.00    +0.000 N 
ATOM     11  C   UNL     1       2.609   4.421  19.704  0.00  0.00    +0.000 C 
ATOM     12  C   UNL     1       3.036   5.802  20.121  0.00  0.00    +0.000 C 
BRANCH  12  13
ATOM     13  C   UNL     1       2.369   7.008  19.534  0.00  0.00    +0.000 A 
ATOM     14  C   UNL     1       1.665   7.889  20.376  0.00  0.00    +0.000 A 
ATOM     15  C   UNL     1       1.198   9.098  19.881  0.00  0.00    +0.000 A 
ATOM     16  N   UNL     1       1.365   9.491  18.605  0.00  0.00    +0.000 NA
ATOM     17  C   UNL     1       2.036   8.643  17.798  0.00  0.00    +0.000 A 
ATOM     18  C   UNL     1       2.545   7.418  18.209  0.00  0.00    +0.000 A 
ENDBRANCH  12  13
ENDBRANCH   4  10
TORSDOF 3
ENDMDL
MODEL 6
REMARK VINA RESULT:      -6.5      2.867      4.351
REMARK  Name = 
REMARK  4 active torsions:
REMARK  status: ('A' for Active; 'I' for Inactive)
REMARK    1  A    between atoms: C_1  and  C_2
REMARK    2  A    between atoms: C_2  and  C_4
REMARK    3  A    between atoms: C_7  and  N_8
REMARK    4  A    between atoms: C_10  and  C_11
REMARK                            x       y       z     vdW  Elec       q    Type
REMARK                         _______ _______ _______ _____ _____    ______ ____
ROOT
ATOM      1  C   UNL     1       6.643   4.690  14.596  0.00  0.00    +0.000 A 
ATOM      2  C   UNL     1       5.327   4.247  14.783  0.00  0.00    +0.000 A 
ATOM      3  C   UNL     1       4.793   4.099  16.079  0.00  0.00    +0.000 A 
ATOM      4  C   UNL     1       5.564   4.391  17.207  0.00  0.00    +0.000 A 
ATOM      5  C   UNL     1       6.868   4.874  16.997  0.00  0.00    +0.000 A 
ATOM      6  C   UNL     1       7.405   5.022  15.718  0.00  0.00    +0.000 A 
ENDROOT
BRANCH   1   8
ATOM      7  C   UNL     1       6.910   3.845  12.163  0.00  0.00    +0.000 C 
ATOM      8  C   UNL     1       7.291   4.809  13.254  0.00  0.00    +0.000 C 
ATOM      9  O   UNL     1       8.126   5.691  13.052  0.00  0.00    +0.000 OA
ENDBRANCH   1   8
BRANCH   4  10
ATOM     10  N   UNL     1       5.229   4.172  18.559  0.00  0.00    +0.000 N 
ATOM     11  C   UNL     1       3.959   3.522  18.884  0.00  0.00    +0.000 C 
ATOM     12  C   UNL     1       4.291   4.890  19.414  0.00  0.00    +0.000 C 
BRANCH  12  13
ATOM     13  C   UNL     1       3.417   6.060  19.085  0.00  0.00    +0.000 A 
ATOM     14  C   UNL     1       2.483   6.516  20.033  0.00  0.00    +0.000 A 
ATOM     15  C   UNL     1       1.797   7.703  19.818  0.00  0.00    +0.000 A 
ATOM     16  N   UNL     1       1.958   8.463  18.721  0.00  0.00    +0.000 NA
ATOM     17  C   UNL     1       2.850   8.022  17.809  0.00  0.00    +0.000 A 
ATOM     18  C   UNL     1       3.587   6.852  17.946  0.00  0.00    +0.000 A 
ENDBRANCH  12  13
ENDBRANCH   4  10
TORSDOF 3
ENDMDL
MODEL 7
REMARK VINA RESULT:      -6.5      3.177      4.400
REMARK  Name = 
REMARK  4 active torsions:
REMARK  status: ('A' for Active; 'I' for Inactive)
REMARK    1  A    between atoms: C_1  and  C_2
REMARK    2  A    between atoms: C_2  and  C_4
REMARK    3  A    between atoms: C_7  and  N_8
REMARK    4  A    between atoms: C_10  and  C_11
REMARK                            x       y       z     vdW  Elec       q    Type
REMARK                         _______ _______ _______ _____ _____    ______ ____
ROOT
ATOM      1  C   UNL     1       5.608   4.452  16.940  0.00  0.00    +0.000 A 
ATOM      2  C   UNL     1       4.300   3.964  16.816  0.00  0.00    +0.000 A 
ATOM      3  C   UNL     1       3.380   4.093  17.876  0.00  0.00    +0.000 A 
ATOM      4  C   UNL     1       3.751   4.710  19.074  0.00  0.00    +0.000 A 
ATOM      5  C   UNL     1       5.055   5.229  19.162  0.00  0.00    +0.000 A 
ATOM      6  C   UNL     1       5.973   5.105  18.119  0.00  0.00    +0.000 A 
ENDROOT
BRANCH   1   8
ATOM      7  C   UNL     1       6.232   3.920  14.483  0.00  0.00    +0.000 C 
ATOM      8  C   UNL     1       6.651   4.294  15.880  0.00  0.00    +0.000 C 
ATOM      9  O   UNL     1       7.837   4.472  16.155  0.00  0.00    +0.000 OA
ENDBRANCH   1   8
BRANCH   4  10
ATOM     10  N   UNL     1       3.001   4.798  20.265  0.00  0.00    +0.000 N 
ATOM     11  C   UNL     1       1.558   4.568  20.218  0.00  0.00    +0.000 C 
ATOM     12  C   UNL     1       2.123   5.862  20.735  0.00  0.00    +0.000 C 
BRANCH  12  13
ATOM     13  C   UNL     1       1.769   7.158  20.073  0.00  0.00    +0.000 A 
ATOM     14  C   UNL     1       1.123   8.163  20.817  0.00  0.00    +0.000 A 
ATOM     15  C   UNL     1       0.953   9.428  20.274  0.00  0.00    +0.000 A 
ATOM     16  N   UNL     1       1.363   9.766  19.038  0.00  0.00    +0.000 NA
ATOM     17  C   UNL     1       1.978   8.800  18.325  0.00  0.00    +0.000 A 
ATOM     18  C   UNL     1       2.200   7.510  18.790  0.00  0.00    +0.000 A 
ENDBRANCH  12  13
ENDBRANCH   4  10
TORSDOF 3
ENDMDL
MODEL 8
REMARK VINA RESULT:      -6.5      0.312      1.604
REMARK  Name = 
REMARK  4 active torsions:
REMARK  status: ('A' for Active; 'I' for Inactive)
REMARK    1  A    between atoms: C_1  and  C_2
REMARK    2  A    between atoms: C_2  and  C_4
REMARK    3  A    between atoms: C_7  and  N_8
REMARK    4  A    between atoms: C_10  and  C_11
REMARK                            x       y       z     vdW  Elec       q    Type
REMARK                         _______ _______ _______ _____ _____    ______ ____
ROOT
ATOM      1  C   UNL     1       6.146   6.037  17.565  0.00  0.00    +0.000 A 
ATOM      2  C   UNL     1       4.905   6.664  17.738  0.00  0.00    +0.000 A 
ATOM      3  C   UNL     1       3.705   5.935  17.610  0.00  0.00    +0.000 A 
ATOM      4  C   UNL     1       3.726   4.571  17.308  0.00  0.00    +0.000 A 
ATOM      5  C   UNL     1       4.983   3.953  17.179  0.00  0.00    +0.000 A 
ATOM      6  C   UNL     1       6.176   4.666  17.303  0.00  0.00    +0.000 A 
ENDROOT
BRANCH   1   8
ATOM      7  C   UNL     1       8.236   6.766  18.910  0.00  0.00    +0.000 C 
ATOM      8  C   UNL     1       7.452   6.763  17.625  0.00  0.00    +0.000 C 
ATOM      9  O   UNL     1       7.875   7.347  16.628  0.00  0.00    +0.000 OA
ENDBRANCH   1   8
BRANCH   4  10
ATOM     10  N   UNL     1       2.628   3.736  17.018  0.00  0.00    +0.000 N 
ATOM     11  C   UNL     1       1.282   4.171  17.392  0.00  0.00    +0.000 C 
ATOM     12  C   UNL     1       1.852   2.876  17.903  0.00  0.00    +0.000 C 
BRANCH  12  13
ATOM     13  C   UNL     1       2.008   2.649  19.375  0.00  0.00    +0.000 A 
ATOM     14  C   UNL     1       3.274   2.318  19.896  0.00  0.00    +0.000 A 
ATOM     15  C   UNL     1       3.473   2.283  21.268  0.00  0.00    +0.000 A 
ATOM     16  N   UNL     1       2.503   2.537  22.165  0.00  0.00    +0.000 NA
ATOM     17  C   UNL     1       1.289   2.849  21.664  0.00  0.00    +0.000 A 
ATOM     18  C   UNL     1       1.001   2.917  20.307  0.00  0.00    +0.000 A 
ENDBRANCH  12  13
ENDBRANCH   4  10
TORSDOF 3
ENDMDL
MODEL 9
REMARK VINA RESULT:      -6.5      2.804      3.698
REMARK  Name = 
REMARK  4 active torsions:
REMARK  status: ('A' for Active; 'I' for Inactive)
REMARK    1  A    between atoms: C_1  and  C_2
REMARK    2  A    between atoms: C_2  and  C_4
REMARK    3  A    between atoms: C_7  and  N_8
REMARK    4  A    between atoms: C_10  and  C_11
REMARK                            x       y       z     vdW  Elec       q    Type
REMARK                         _______ _______ _______ _____ _____    ______ ____
ROOT
ATOM      1  C   UNL     1       5.923   4.361  14.377  0.00  0.00    +0.000 A 
ATOM      2  C   UNL     1       5.924   3.481  15.467  0.00  0.00    +0.000 A 
ATOM      3  C   UNL     1       5.579   3.932  16.758  0.00  0.00    +0.000 A 
ATOM      4  C   UNL     1       5.229   5.267  16.979  0.00  0.00    +0.000 A 
ATOM      5  C   UNL     1       5.195   6.123  15.864  0.00  0.00    +0.000 A 
ATOM      6  C   UNL     1       5.536   5.686  14.583  0.00  0.00    +0.000 A 
ENDROOT
BRANCH   1   8
ATOM      7  C   UNL     1       7.458   4.705  12.320  0.00  0.00    +0.000 C 
ATOM      8  C   UNL     1       6.337   3.963  12.996  0.00  0.00    +0.000 C 
ATOM      9  O   UNL     1       5.762   3.036  12.427  0.00  0.00    +0.000 OA
ENDBRANCH   1   8
BRANCH   4  10
ATOM     10  N   UNL     1       4.991   5.901  18.215  0.00  0.00    +0.000 N 
ATOM     11  C   UNL     1       5.443   5.256  19.447  0.00  0.00    +0.000 C 
ATOM     12  C   UNL     1       3.995   5.604  19.237  0.00  0.00    +0.000 C 
BRANCH  12  13
ATOM     13  C   UNL     1       2.950   4.531  19.256  0.00  0.00    +0.000 A 
ATOM     14  C   UNL     1       2.546   3.979  20.486  0.00  0.00    +0.000 A 
ATOM     15  C   UNL     1       1.458   3.120  20.537  0.00  0.00    +0.000 A 
ATOM     16  N   UNL     1       0.749   2.756  19.453  0.00  0.00    +0.000 NA
ATOM     17  C   UNL     1       1.141   3.282  18.274  0.00  0.00    +0.000 A 
ATOM     18  C   UNL     1       2.212   4.156  18.130  0.00  0.00    +0.000 A 
ENDBRANCH  12  13
ENDBRANCH   4  10
TORSDOF 3
ENDMDL
