MODEL 1
REMARK VINA RESULT:      -6.9      0.000      0.000
REMARK  Name = 
REMARK  5 active torsions:
REMARK  status: ('A' for Active; 'I' for Inactive)
REMARK    1  A    between atoms: C_1  and  O_2
REMARK    2  A    between atoms: O_2  and  C_3
REMARK    3  A    between atoms: C_13  and  C_14
REMARK    4  A    between atoms: N_25  and  C_26
REMARK    5  A    between atoms: C_26  and  C_27
REMARK                            x       y       z     vdW  Elec       q    Type
REMARK                         _______ _______ _______ _____ _____    ______ ____
ROOT
ATOM      1  C   UNL     1      -4.223  13.953  22.722  0.00  0.00    +0.000 C 
ATOM      2  C   UNL     1      -2.967  14.158  23.547  0.00  0.00    +0.000 C 
ATOM      3  C   UNL     1      -1.768  14.211  22.636  0.00  0.00    +0.000 C 
ATOM      4  C   UNL     1      -1.498  12.902  21.799  0.00  0.00    +0.000 C 
ATOM      5  C   UNL     1      -2.779  12.635  20.972  0.00  0.00    +0.000 C 
ATOM      6  C   UNL     1      -4.094  12.714  21.815  0.00  0.00    +0.000 C 
ATOM      7  C   UNL     1      -1.310  11.802  22.897  0.00  0.00    +0.000 C 
ATOM      8  C   UNL     1      -0.471  10.776  22.238  0.00  0.00    +0.000 A 
ATOM      9  C   UNL     1      -0.441   9.444  22.620  0.00  0.00    +0.000 A 
ATOM     10  C   UNL     1       0.309   8.557  21.867  0.00  0.00    +0.000 A 
ATOM     11  C   UNL     1       1.023   8.988  20.731  0.00  0.00    +0.000 A 
ATOM     12  C   UNL     1       1.006  10.375  20.389  0.00  0.00    +0.000 A 
ATOM     13  C   UNL     1       0.272  11.294  21.171  0.00  0.00    +0.000 A 
ATOM     14  C   UNL     1      -0.034  12.799  20.987  0.00  0.00    +0.000 C 
ATOM     15  N   UNL     1       0.702  13.820  21.842  0.00  0.00    +0.000 NA
ATOM     16  C   UNL     1       0.732  14.813  21.019  0.00  0.00    +0.000 C 
ATOM     17  N   UNL     1      -0.069  15.920  20.972  0.00  0.00    +0.000 N 
ATOM     18  N   UNL     1       1.240  14.491  19.845  0.00  0.00    +0.000 N 
ATOM     19  C   UNL     1       0.534  13.355  19.555  0.00  0.00    +0.000 C 
ATOM     20  O   UNL     1       0.365  12.884  18.436  0.00  0.00    +0.000 OA
ATOM     21  H   UNL     1      -1.013  15.600  20.698  0.00  0.00    +0.000 HD
ATOM     22  H   UNL     1       0.102  16.486  20.147  0.00  0.00    +0.000 HD
ENDROOT
BRANCH  11  23
ATOM     23  C   UNL     1       1.731   7.917  19.985  0.00  0.00    +0.000 A 
ATOM     24  N   UNL     1       1.885   6.689  20.457  0.00  0.00    +0.000 NA
ATOM     25  C   UNL     1       2.443   5.861  19.505  0.00  0.00    +0.000 A 
ATOM     26  C   UNL     1       2.712   6.458  18.298  0.00  0.00    +0.000 A 
ATOM     27  S   UNL     1       2.266   8.118  18.361  0.00  0.00    +0.000 S 
ENDBRANCH  11  23
BRANCH   1  29
ATOM     28  C   UNL     1      -6.089  14.992  23.812  0.00  0.00    +0.000 C 
ATOM     29  O   UNL     1      -5.253  13.861  23.704  0.00  0.00    +0.000 OA
ENDBRANCH   1  29
BRANCH  18  30
ATOM     30  C   UNL     1       2.109  15.467  19.177  0.00  0.00    +0.000 C 
BRANCH  30  31
ATOM     31  C   UNL     1       3.297  14.902  18.435  0.00  0.00    +0.000 C 
ATOM     32  F   UNL     1       3.298  15.398  17.165  0.00  0.00    +0.000 F 
ENDBRANCH  30  31
ENDBRANCH  18  30
TORSDOF 4
ENDMDL
MODEL 2
REMARK VINA RESULT:      -6.8      5.657     10.976
REMARK  Name = 
REMARK  5 active torsions:
REMARK  status: ('A' for Active; 'I' for Inactive)
REMARK    1  A    between atoms: C_1  and  O_2
REMARK    2  A    between atoms: O_2  and  C_3
REMARK    3  A    between atoms: C_13  and  C_14
REMARK    4  A    between atoms: N_25  and  C_26
REMARK    5  A    between atoms: C_26  and  C_27
REMARK                            x       y       z     vdW  Elec       q    Type
REMARK                         _______ _______ _______ _____ _____    ______ ____
ROOT
ATOM      1  C   UNL     1       6.877   4.445  15.131  0.00  0.00    +0.000 C 
ATOM      2  C   UNL     1       7.175   4.724  16.590  0.00  0.00    +0.000 C 
ATOM      3  C   UNL     1       5.950   4.436  17.420  0.00  0.00    +0.000 C 
ATOM      4  C   UNL     1       4.686   5.316  17.085  0.00  0.00    +0.000 C 
ATOM      5  C   UNL     1       4.374   5.089  15.586  0.00  0.00    +0.000 C 
ATOM      6  C   UNL     1       5.629   5.219  14.661  0.00  0.00    +0.000 C 
ATOM      7  C   UNL     1       5.188   6.779  17.332  0.00  0.00    +0.000 C 
ATOM      8  C   UNL     1       3.953   7.534  17.643  0.00  0.00    +0.000 A 
ATOM      9  C   UNL     1       3.821   8.902  17.464  0.00  0.00    +0.000 A 
ATOM     10  C   UNL     1       2.587   9.484  17.700  0.00  0.00    +0.000 A 
ATOM     11  C   UNL     1       1.482   8.709  18.107  0.00  0.00    +0.000 A 
ATOM     12  C   UNL     1       1.663   7.309  18.324  0.00  0.00    +0.000 A 
ATOM     13  C   UNL     1       2.926   6.711  18.120  0.00  0.00    +0.000 A 
ATOM     14  C   UNL     1       3.393   5.236  18.150  0.00  0.00    +0.000 C 
ATOM     15  N   UNL     1       4.191   4.732  19.343  0.00  0.00    +0.000 NA
ATOM     16  C   UNL     1       3.806   3.500  19.357  0.00  0.00    +0.000 C 
ATOM     17  N   UNL     1       4.446   2.390  18.879  0.00  0.00    +0.000 N 
ATOM     18  N   UNL     1       2.494   3.373  19.378  0.00  0.00    +0.000 N 
ATOM     19  C   UNL     1       2.131   4.214  18.361  0.00  0.00    +0.000 C 
ATOM     20  O   UNL     1       1.075   4.173  17.742  0.00  0.00    +0.000 OA
ATOM     21  H   UNL     1       4.463   2.471  17.849  0.00  0.00    +0.000 HD
ATOM     22  H   UNL     1       3.862   1.561  18.918  0.00  0.00    +0.000 HD
ENDROOT
BRANCH  11  23
ATOM     23  C   UNL     1       0.209   9.456  18.260  0.00  0.00    +0.000 A 
ATOM     24  N   UNL     1      -0.721   9.500  17.317  0.00  0.00    +0.000 NA
ATOM     25  C   UNL     1      -1.858  10.134  17.774  0.00  0.00    +0.000 A 
ATOM     26  C   UNL     1      -1.799  10.573  19.073  0.00  0.00    +0.000 A 
ATOM     27  S   UNL     1      -0.260  10.194  19.744  0.00  0.00    +0.000 S 
ENDBRANCH  11  23
BRANCH   1  29
ATOM     28  C   UNL     1       7.939   5.215  13.123  0.00  0.00    +0.000 C 
ATOM     29  O   UNL     1       8.085   4.817  14.469  0.00  0.00    +0.000 OA
ENDBRANCH   1  29
BRANCH  18  30
ATOM     30  C   UNL     1       1.916   2.308  20.207  0.00  0.00    +0.000 C 
BRANCH  30  31
ATOM     31  C   UNL     1       1.393   2.728  21.560  0.00  0.00    +0.000 C 
ATOM     32  F   UNL     1       2.184   3.728  22.045  0.00  0.00    +0.000 F 
ENDBRANCH  30  31
ENDBRANCH  18  30
TORSDOF 4
ENDMDL
MODEL 3
REMARK VINA RESULT:      -6.6      0.976      1.043
REMARK  Name = 
REMARK  5 active torsions:
REMARK  status: ('A' for Active; 'I' for Inactive)
REMARK    1  A    between atoms: C_1  and  O_2
REMARK    2  A    between atoms: O_2  and  C_3
REMARK    3  A    between atoms: C_13  and  C_14
REMARK    4  A    between atoms: N_25  and  C_26
REMARK    5  A    between atoms: C_26  and  C_27
REMARK                            x       y       z     vdW  Elec       q    Type
REMARK                         _______ _______ _______ _____ _____    ______ ____
ROOT
ATOM      1  C   UNL     1      -4.544  13.856  23.028  0.00  0.00    +0.000 C 
ATOM      2  C   UNL     1      -3.237  14.166  23.730  0.00  0.00    +0.000 C 
ATOM      3  C   UNL     1      -2.139  14.317  22.708  0.00  0.00    +0.000 C 
ATOM      4  C   UNL     1      -1.844  13.035  21.841  0.00  0.00    +0.000 C 
ATOM      5  C   UNL     1      -3.172  12.661  21.138  0.00  0.00    +0.000 C 
ATOM      6  C   UNL     1      -4.401  12.631  22.104  0.00  0.00    +0.000 C 
ATOM      7  C   UNL     1      -1.459  11.956  22.908  0.00  0.00    +0.000 C 
ATOM      8  C   UNL     1      -0.607  11.002  22.164  0.00  0.00    +0.000 A 
ATOM      9  C   UNL     1      -0.429   9.678  22.533  0.00  0.00    +0.000 A 
ATOM     10  C   UNL     1       0.316   8.855  21.705  0.00  0.00    +0.000 A 
ATOM     11  C   UNL     1       0.879   9.342  20.509  0.00  0.00    +0.000 A 
ATOM     12  C   UNL     1       0.714  10.722  20.179  0.00  0.00    +0.000 A 
ATOM     13  C   UNL     1      -0.014  11.578  21.034  0.00  0.00    +0.000 A 
ATOM     14  C   UNL     1      -0.461  13.053  20.891  0.00  0.00    +0.000 C 
ATOM     15  N   UNL     1       0.267  14.132  21.678  0.00  0.00    +0.000 NA
ATOM     16  C   UNL     1       0.135  15.123  20.863  0.00  0.00    +0.000 C 
ATOM     17  N   UNL     1      -0.756  16.160  20.900  0.00  0.00    +0.000 N 
ATOM     18  N   UNL     1       0.552  14.843  19.643  0.00  0.00    +0.000 N 
ATOM     19  C   UNL     1      -0.081  13.652  19.415  0.00  0.00    +0.000 C 
ATOM     20  O   UNL     1      -0.318  13.168  18.314  0.00  0.00    +0.000 OA
ATOM     21  H   UNL     1      -1.692  15.762  20.716  0.00  0.00    +0.000 HD
ATOM     22  H   UNL     1      -0.712  16.737  20.067  0.00  0.00    +0.000 HD
ENDROOT
BRANCH  11  23
ATOM     23  C   UNL     1       1.598   8.333  19.691  0.00  0.00    +0.000 A 
ATOM     24  N   UNL     1       2.075   8.591  18.482  0.00  0.00    +0.000 NA
ATOM     25  C   UNL     1       2.822   7.531  18.010  0.00  0.00    +0.000 A 
ATOM     26  C   UNL     1       2.919   6.460  18.864  0.00  0.00    +0.000 A 
ATOM     27  S   UNL     1       2.032   6.783  20.302  0.00  0.00    +0.000 S 
ENDBRANCH  11  23
BRANCH   1  29
ATOM     28  C   UNL     1      -6.569  12.849  23.824  0.00  0.00    +0.000 C 
ATOM     29  O   UNL     1      -5.463  13.680  24.104  0.00  0.00    +0.000 OA
ENDBRANCH   1  29
BRANCH  18  30
ATOM     30  C   UNL     1       1.269  15.887  18.902  0.00  0.00    +0.000 C 
BRANCH  30  31
ATOM     31  C   UNL     1       2.727  15.618  18.615  0.00  0.00    +0.000 C 
ATOM     32  F   UNL     1       2.827  14.462  17.897  0.00  0.00    +0.000 F 
ENDBRANCH  30  31
ENDBRANCH  18  30
TORSDOF 4
ENDMDL
MODEL 4
REMARK VINA RESULT:      -6.6      3.602      7.052
REMARK  Name = 
REMARK  5 active torsions:
REMARK  status: ('A' for Active; 'I' for Inactive)
REMARK    1  A    between atoms: C_1  and  O_2
REMARK    2  A    between atoms: O_2  and  C_3
REMARK    3  A    between atoms: C_13  and  C_14
REMARK    4  A    between atoms: N_25  and  C_26
REMARK    5  A    between atoms: C_26  and  C_27
REMARK                            x       y       z     vdW  Elec       q    Type
REMARK                         _______ _______ _______ _____ _____    ______ ____
ROOT
ATOM      1  C   UNL     1       2.146   8.255  19.308  0.00  0.00    +0.000 C 
ATOM      2  C   UNL     1       2.100   9.075  18.034  0.00  0.00    +0.000 C 
ATOM      3  C   UNL     1       1.619  10.469  18.347  0.00  0.00    +0.000 C 
ATOM      4  C   UNL     1       0.165  10.562  18.946  0.00  0.00    +0.000 C 
ATOM      5  C   UNL     1       0.160   9.700  20.232  0.00  0.00    +0.000 C 
ATOM      6  C   UNL     1       0.787   8.281  20.034  0.00  0.00    +0.000 C 
ATOM      7  C   UNL     1      -0.727   9.907  17.838  0.00  0.00    +0.000 C 
ATOM      8  C   UNL     1      -2.060  10.515  18.044  0.00  0.00    +0.000 A 
ATOM      9  C   UNL     1      -3.247   9.923  17.643  0.00  0.00    +0.000 A 
ATOM     10  C   UNL     1      -4.441  10.541  17.975  0.00  0.00    +0.000 A 
ATOM     11  C   UNL     1      -4.459  11.743  18.711  0.00  0.00    +0.000 A 
ATOM     12  C   UNL     1      -3.217  12.350  19.072  0.00  0.00    +0.000 A 
ATOM     13  C   UNL     1      -1.994  11.746  18.707  0.00  0.00    +0.000 A 
ATOM     14  C   UNL     1      -0.524  12.088  19.053  0.00  0.00    +0.000 C 
ATOM     15  N   UNL     1       0.356  12.741  17.998  0.00  0.00    +0.000 NA
ATOM     16  C   UNL     1       1.129  13.437  18.762  0.00  0.00    +0.000 C 
ATOM     17  N   UNL     1       2.402  13.165  19.181  0.00  0.00    +0.000 N 
ATOM     18  N   UNL     1       0.464  14.213  19.596  0.00  0.00    +0.000 N 
ATOM     19  C   UNL     1      -0.434  13.324  20.122  0.00  0.00    +0.000 C 
ATOM     20  O   UNL     1      -1.021  13.450  21.191  0.00  0.00    +0.000 OA
ATOM     21  H   UNL     1       2.342  12.355  19.821  0.00  0.00    +0.000 HD
ATOM     22  H   UNL     1       2.732  13.831  19.872  0.00  0.00    +0.000 HD
ENDROOT
BRANCH  11  23
ATOM     23  C   UNL     1      -5.810  12.257  19.049  0.00  0.00    +0.000 A 
ATOM     24  N   UNL     1      -6.353  12.122  20.250  0.00  0.00    +0.000 NA
ATOM     25  C   UNL     1      -7.542  12.816  20.334  0.00  0.00    +0.000 A 
ATOM     26  C   UNL     1      -7.907  13.489  19.194  0.00  0.00    +0.000 A 
ATOM     27  S   UNL     1      -6.728  13.231  17.967  0.00  0.00    +0.000 S 
ENDBRANCH  11  23
BRANCH   1  29
ATOM     28  C   UNL     1       3.533   6.958  17.844  0.00  0.00    +0.000 C 
ATOM     29  O   UNL     1       2.550   6.964  18.856  0.00  0.00    +0.000 OA
ENDBRANCH   1  29
BRANCH  18  30
ATOM     30  C   UNL     1       0.991  15.557  19.860  0.00  0.00    +0.000 C 
BRANCH  30  31
ATOM     31  C   UNL     1       0.862  16.556  18.735  0.00  0.00    +0.000 C 
ATOM     32  F   UNL     1      -0.365  16.409  18.157  0.00  0.00    +0.000 F 
ENDBRANCH  30  31
ENDBRANCH  18  30
TORSDOF 4
ENDMDL
MODEL 5
REMARK VINA RESULT:      -6.5      5.337     11.064
REMARK  Name = 
REMARK  5 active torsions:
REMARK  status: ('A' for Active; 'I' for Inactive)
REMARK    1  A    between atoms: C_1  and  O_2
REMARK    2  A    between atoms: O_2  and  C_3
REMARK    3  A    between atoms: C_13  and  C_14
REMARK    4  A    between atoms: N_25  and  C_26
REMARK    5  A    between atoms: C_26  and  C_27
REMARK                            x       y       z     vdW  Elec       q    Type
REMARK                         _______ _______ _______ _____ _____    ______ ____
ROOT
ATOM      1  C   UNL     1       6.332   3.947  14.849  0.00  0.00    +0.000 C 
ATOM      2  C   UNL     1       6.993   4.407  16.133  0.00  0.00    +0.000 C 
ATOM      3  C   UNL     1       6.038   4.228  17.285  0.00  0.00    +0.000 C 
ATOM      4  C   UNL     1       4.704   5.062  17.191  0.00  0.00    +0.000 C 
ATOM      5  C   UNL     1       4.017   4.649  15.866  0.00  0.00    +0.000 C 
ATOM      6  C   UNL     1       4.982   4.658  14.635  0.00  0.00    +0.000 C 
ATOM      7  C   UNL     1       5.206   6.543  17.115  0.00  0.00    +0.000 C 
ATOM      8  C   UNL     1       4.074   7.334  17.646  0.00  0.00    +0.000 A 
ATOM      9  C   UNL     1       3.857   8.669  17.343  0.00  0.00    +0.000 A 
ATOM     10  C   UNL     1       2.711   9.279  17.822  0.00  0.00    +0.000 A 
ATOM     11  C   UNL     1       1.775   8.565  18.597  0.00  0.00    +0.000 A 
ATOM     12  C   UNL     1       2.049   7.203  18.929  0.00  0.00    +0.000 A 
ATOM     13  C   UNL     1       3.233   6.581  18.474  0.00  0.00    +0.000 A 
ATOM     14  C   UNL     1       3.737   5.121  18.560  0.00  0.00    +0.000 C 
ATOM     15  N   UNL     1       4.835   4.769  19.553  0.00  0.00    +0.000 NA
ATOM     16  C   UNL     1       4.506   3.550  19.819  0.00  0.00    +0.000 C 
ATOM     17  N   UNL     1       5.032   2.387  19.329  0.00  0.00    +0.000 N 
ATOM     18  N   UNL     1       3.249   3.429  20.201  0.00  0.00    +0.000 N 
ATOM     19  C   UNL     1       2.607   4.136  19.220  0.00  0.00    +0.000 C 
ATOM     20  O   UNL     1       1.427   4.019  18.911  0.00  0.00    +0.000 OA
ATOM     21  H   UNL     1       4.776   2.337  18.328  0.00  0.00    +0.000 HD
ATOM     22  H   UNL     1       4.505   1.571  19.621  0.00  0.00    +0.000 HD
ENDROOT
BRANCH  11  23
ATOM     23  C   UNL     1       0.563   9.328  18.989  0.00  0.00    +0.000 A 
ATOM     24  N   UNL     1       0.336   9.734  20.229  0.00  0.00    +0.000 NA
ATOM     25  C   UNL     1      -0.780  10.544  20.286  0.00  0.00    +0.000 A 
ATOM     26  C   UNL     1      -1.405  10.761  19.082  0.00  0.00    +0.000 A 
ATOM     27  S   UNL     1      -0.577   9.910  17.838  0.00  0.00    +0.000 S 
ENDBRANCH  11  23
BRANCH   1  29
ATOM     28  C   UNL     1       6.936   3.916  12.529  0.00  0.00    +0.000 C 
ATOM     29  O   UNL     1       7.312   4.229  13.853  0.00  0.00    +0.000 OA
ENDBRANCH   1  29
BRANCH  18  30
ATOM     30  C   UNL     1       2.942   2.479  21.276  0.00  0.00    +0.000 C 
BRANCH  30  31
ATOM     31  C   UNL     1       1.769   2.831  22.160  0.00  0.00    +0.000 C 
ATOM     32  F   UNL     1       0.618   2.669  21.447  0.00  0.00    +0.000 F 
ENDBRANCH  30  31
ENDBRANCH  18  30
TORSDOF 4
ENDMDL
MODEL 6
REMARK VINA RESULT:      -6.4      4.032      7.346
REMARK  Name = 
REMARK  5 active torsions:
REMARK  status: ('A' for Active; 'I' for Inactive)
REMARK    1  A    between atoms: C_1  and  O_2
REMARK    2  A    between atoms: O_2  and  C_3
REMARK    3  A    between atoms: C_13  and  C_14
REMARK    4  A    between atoms: N_25  and  C_26
REMARK    5  A    between atoms: C_26  and  C_27
REMARK                            x       y       z     vdW  Elec       q    Type
REMARK                         _______ _______ _______ _____ _____    ______ ____
ROOT
ATOM      1  C   UNL     1       2.260  14.825  19.297  0.00  0.00    +0.000 C 
ATOM      2  C   UNL     1       2.354  13.500  20.027  0.00  0.00    +0.000 C 
ATOM      3  C   UNL     1       1.148  12.657  19.702  0.00  0.00    +0.000 C 
ATOM      4  C   UNL     1      -0.238  13.266  20.138  0.00  0.00    +0.000 C 
ATOM      5  C   UNL     1      -0.354  14.644  19.442  0.00  0.00    +0.000 C 
ATOM      6  C   UNL     1       0.924  15.532  19.601  0.00  0.00    +0.000 C 
ATOM      7  C   UNL     1      -0.087  13.438  21.687  0.00  0.00    +0.000 C 
ATOM      8  C   UNL     1      -1.478  13.392  22.191  0.00  0.00    +0.000 A 
ATOM      9  C   UNL     1      -1.884  13.962  23.387  0.00  0.00    +0.000 A 
ATOM     10  C   UNL     1      -3.230  13.938  23.709  0.00  0.00    +0.000 A 
ATOM     11  C   UNL     1      -4.176  13.357  22.842  0.00  0.00    +0.000 A 
ATOM     12  C   UNL     1      -3.721  12.740  21.636  0.00  0.00    +0.000 A 
ATOM     13  C   UNL     1      -2.346  12.727  21.316  0.00  0.00    +0.000 A 
ATOM     14  C   UNL     1      -1.578  12.260  20.056  0.00  0.00    +0.000 C 
ATOM     15  N   UNL     1      -0.805  10.950  20.098  0.00  0.00    +0.000 NA
ATOM     16  C   UNL     1      -0.916  10.592  18.863  0.00  0.00    +0.000 C 
ATOM     17  N   UNL     1      -0.011  10.712  17.844  0.00  0.00    +0.000 N 
ATOM     18  N   UNL     1      -2.167  10.572  18.445  0.00  0.00    +0.000 N 
ATOM     19  C   UNL     1      -2.605  11.798  18.868  0.00  0.00    +0.000 C 
ATOM     20  O   UNL     1      -3.566  12.408  18.413  0.00  0.00    +0.000 OA
ATOM     21  H   UNL     1       0.083  11.721  17.641  0.00  0.00    +0.000 HD
ATOM     22  H   UNL     1      -0.405  10.452  16.946  0.00  0.00    +0.000 HD
ENDROOT
BRANCH  11  23
ATOM     23  C   UNL     1      -5.589  13.460  23.285  0.00  0.00    +0.000 A 
ATOM     24  N   UNL     1      -6.345  12.403  23.542  0.00  0.00    +0.000 NA
ATOM     25  C   UNL     1      -7.559  12.782  24.075  0.00  0.00    +0.000 A 
ATOM     26  C   UNL     1      -7.731  14.136  24.232  0.00  0.00    +0.000 A 
ATOM     27  S   UNL     1      -6.329  14.965  23.677  0.00  0.00    +0.000 S 
ENDBRANCH  11  23
BRANCH   1  29
ATOM     28  C   UNL     1       4.334  15.885  18.731  0.00  0.00    +0.000 C 
ATOM     29  O   UNL     1       3.416  15.531  19.742  0.00  0.00    +0.000 OA
ENDBRANCH   1  29
BRANCH  18  30
ATOM     30  C   UNL     1      -2.577   9.487  17.546  0.00  0.00    +0.000 C 
BRANCH  30  31
ATOM     31  C   UNL     1      -3.145   9.909  16.212  0.00  0.00    +0.000 C 
ATOM     32  F   UNL     1      -2.222  10.674  15.563  0.00  0.00    +0.000 F 
ENDBRANCH  30  31
ENDBRANCH  18  30
TORSDOF 4
ENDMDL
MODEL 7
REMARK VINA RESULT:      -6.4      1.042      1.084
REMARK  Name = 
REMARK  5 active torsions:
REMARK  status: ('A' for Active; 'I' for Inactive)
REMARK    1  A    between atoms: C_1  and  O_2
REMARK    2  A    between atoms: O_2  and  C_3
REMARK    3  A    between atoms: C_13  and  C_14
REMARK    4  A    between atoms: N_25  and  C_26
REMARK    5  A    between atoms: C_26  and  C_27
REMARK                            x       y       z     vdW  Elec       q    Type
REMARK                         _______ _______ _______ _____ _____    ______ ____
ROOT
ATOM      1  C   UNL     1      -3.408  14.353  21.643  0.00  0.00    +0.000 C 
ATOM      2  C   UNL     1      -2.275  14.412  22.649  0.00  0.00    +0.000 C 
ATOM      3  C   UNL     1      -0.960  14.213  21.940  0.00  0.00    +0.000 C 
ATOM      4  C   UNL     1      -0.789  12.825  21.213  0.00  0.00    +0.000 C 
ATOM      5  C   UNL     1      -1.957  12.709  20.203  0.00  0.00    +0.000 C 
ATOM      6  C   UNL     1      -3.352  13.051  20.821  0.00  0.00    +0.000 C 
ATOM      7  C   UNL     1      -0.954  11.786  22.372  0.00  0.00    +0.000 C 
ATOM      8  C   UNL     1      -0.209  10.598  21.899  0.00  0.00    +0.000 A 
ATOM      9  C   UNL     1      -0.458   9.307  22.337  0.00  0.00    +0.000 A 
ATOM     10  C   UNL     1       0.238   8.264  21.751  0.00  0.00    +0.000 A 
ATOM     11  C   UNL     1       1.177   8.498  20.727  0.00  0.00    +0.000 A 
ATOM     12  C   UNL     1       1.443   9.844  20.329  0.00  0.00    +0.000 A 
ATOM     13  C   UNL     1       0.764  10.918  20.944  0.00  0.00    +0.000 A 
ATOM     14  C   UNL     1       0.743  12.438  20.651  0.00  0.00    +0.000 C 
ATOM     15  N   UNL     1       1.501  13.384  21.569  0.00  0.00    +0.000 NA
ATOM     16  C   UNL     1       1.820  14.302  20.720  0.00  0.00    +0.000 C 
ATOM     17  N   UNL     1       1.232  15.517  20.500  0.00  0.00    +0.000 N 
ATOM     18  N   UNL     1       2.439  13.826  19.657  0.00  0.00    +0.000 N 
ATOM     19  C   UNL     1       1.606  12.798  19.307  0.00  0.00    +0.000 C 
ATOM     20  O   UNL     1       1.532  12.286  18.196  0.00  0.00    +0.000 OA
ATOM     21  H   UNL     1       0.300  15.331  20.091  0.00  0.00    +0.000 HD
ATOM     22  H   UNL     1       1.617  15.992  19.690  0.00  0.00    +0.000 HD
ENDROOT
BRANCH  11  23
ATOM     23  C   UNL     1       1.801   7.281  20.149  0.00  0.00    +0.000 A 
ATOM     24  N   UNL     1       1.708   6.086  20.713  0.00  0.00    +0.000 NA
ATOM     25  C   UNL     1       2.247   5.113  19.897  0.00  0.00    +0.000 A 
ATOM     26  C   UNL     1       2.750   5.566  18.702  0.00  0.00    +0.000 A 
ATOM     27  S   UNL     1       2.556   7.273  18.602  0.00  0.00    +0.000 S 
ENDBRANCH  11  23
BRANCH   1  29
ATOM     28  C   UNL     1      -4.349  14.503  23.844  0.00  0.00    +0.000 C 
ATOM     29  O   UNL     1      -4.575  14.491  22.451  0.00  0.00    +0.000 OA
ENDBRANCH   1  29
BRANCH  18  30
ATOM     30  C   UNL     1       3.550  14.605  19.097  0.00  0.00    +0.000 C 
BRANCH  30  31
ATOM     31  C   UNL     1       3.321  15.201  17.729  0.00  0.00    +0.000 C 
ATOM     32  F   UNL     1       3.192  16.552  17.854  0.00  0.00    +0.000 F 
ENDBRANCH  30  31
ENDBRANCH  18  30
TORSDOF 4
ENDMDL
MODEL 8
REMARK VINA RESULT:      -6.2      3.021      5.495
REMARK  Name = 
REMARK  5 active torsions:
REMARK  status: ('A' for Active; 'I' for Inactive)
REMARK    1  A    between atoms: C_1  and  O_2
REMARK    2  A    between atoms: O_2  and  C_3
REMARK    3  A    between atoms: C_13  and  C_14
REMARK    4  A    between atoms: N_25  and  C_26
REMARK    5  A    between atoms: C_26  and  C_27
REMARK                            x       y       z     vdW  Elec       q    Type
REMARK                         _______ _______ _______ _____ _____    ______ ____
ROOT
ATOM      1  C   UNL     1       2.063  15.377  19.262  0.00  0.00    +0.000 C 
ATOM      2  C   UNL     1       0.771  14.876  18.649  0.00  0.00    +0.000 C 
ATOM      3  C   UNL     1       0.127  13.876  19.575  0.00  0.00    +0.000 C 
ATOM      4  C   UNL     1       0.974  12.578  19.861  0.00  0.00    +0.000 C 
ATOM      5  C   UNL     1       2.324  13.053  20.451  0.00  0.00    +0.000 C 
ATOM      6  C   UNL     1       2.993  14.204  19.632  0.00  0.00    +0.000 C 
ATOM      7  C   UNL     1       1.179  11.959  18.437  0.00  0.00    +0.000 C 
ATOM      8  C   UNL     1       1.384  10.517  18.699  0.00  0.00    +0.000 A 
ATOM      9  C   UNL     1       2.059   9.666  17.838  0.00  0.00    +0.000 A 
ATOM     10  C   UNL     1       2.272   8.356  18.234  0.00  0.00    +0.000 A 
ATOM     11  C   UNL     1       1.821   7.891  19.486  0.00  0.00    +0.000 A 
ATOM     12  C   UNL     1       1.091   8.782  20.331  0.00  0.00    +0.000 A 
ATOM     13  C   UNL     1       0.838  10.109  19.922  0.00  0.00    +0.000 A 
ATOM     14  C   UNL     1       0.201  11.317  20.651  0.00  0.00    +0.000 C 
ATOM     15  N   UNL     1      -1.216  11.740  20.293  0.00  0.00    +0.000 NA
ATOM     16  C   UNL     1      -1.598  12.205  21.434  0.00  0.00    +0.000 C 
ATOM     17  N   UNL     1      -1.670  13.504  21.857  0.00  0.00    +0.000 N 
ATOM     18  N   UNL     1      -1.428  11.348  22.422  0.00  0.00    +0.000 N 
ATOM     19  C   UNL     1      -0.131  10.963  22.215  0.00  0.00    +0.000 C 
ATOM     20  O   UNL     1       0.612  10.473  23.058  0.00  0.00    +0.000 OA
ATOM     21  H   UNL     1      -0.700  13.850  21.936  0.00  0.00    +0.000 HD
ATOM     22  H   UNL     1      -1.897  13.576  22.844  0.00  0.00    +0.000 HD
ENDROOT
BRANCH  11  23
ATOM     23  C   UNL     1       2.175   6.485  19.803  0.00  0.00    +0.000 A 
ATOM     24  N   UNL     1       1.613   5.805  20.791  0.00  0.00    +0.000 NA
ATOM     25  C   UNL     1       2.013   4.485  20.772  0.00  0.00    +0.000 A 
ATOM     26  C   UNL     1       2.881   4.153  19.761  0.00  0.00    +0.000 A 
ATOM     27  S   UNL     1       3.222   5.546  18.811  0.00  0.00    +0.000 S 
ENDBRANCH  11  23
BRANCH   1  29
ATOM     28  C   UNL     1       3.620  15.713  17.470  0.00  0.00    +0.000 C 
ATOM     29  O   UNL     1       2.586  16.252  18.264  0.00  0.00    +0.000 OA
ENDBRANCH   1  29
BRANCH  18  30
ATOM     30  C   UNL     1      -2.464  11.272  23.459  0.00  0.00    +0.000 C 
BRANCH  30  31
ATOM     31  C   UNL     1      -3.479  12.390  23.468  0.00  0.00    +0.000 C 
ATOM     32  F   UNL     1      -4.384  12.153  24.460  0.00  0.00    +0.000 F 
ENDBRANCH  30  31
ENDBRANCH  18  30
TORSDOF 4
ENDMDL
MODEL 9
REMARK VINA RESULT:      -6.2      2.892      5.413
REMARK  Name = 
REMARK  5 active torsions:
REMARK  status: ('A' for Active; 'I' for Inactive)
REMARK    1  A    between atoms: C_1  and  O_2
REMARK    2  A    between atoms: O_2  and  C_3
REMARK    3  A    between atoms: C_13  and  C_14
REMARK    4  A    between atoms: N_25  and  C_26
REMARK    5  A    between atoms: C_26  and  C_27
REMARK                            x       y       z     vdW  Elec       q    Type
REMARK                         _______ _______ _______ _____ _____    ______ ____
ROOT
ATOM      1  C   UNL     1       2.355  16.231  19.469  0.00  0.00    +0.000 C 
ATOM      2  C   UNL     1       1.135  15.829  18.664  0.00  0.00    +0.000 C 
ATOM      3  C   UNL     1       0.315  14.838  19.450  0.00  0.00    +0.000 C 
ATOM      4  C   UNL     1       1.043  13.483  19.794  0.00  0.00    +0.000 C 
ATOM      5  C   UNL     1       2.322  13.856  20.583  0.00  0.00    +0.000 C 
ATOM      6  C   UNL     1       3.159  14.993  19.913  0.00  0.00    +0.000 C 
ATOM      7  C   UNL     1       1.411  12.902  18.387  0.00  0.00    +0.000 C 
ATOM      8  C   UNL     1       1.499  11.442  18.613  0.00  0.00    +0.000 A 
ATOM      9  C   UNL     1       2.241  10.582  17.818  0.00  0.00    +0.000 A 
ATOM     10  C   UNL     1       2.325   9.250  18.184  0.00  0.00    +0.000 A 
ATOM     11  C   UNL     1       1.680   8.770  19.341  0.00  0.00    +0.000 A 
ATOM     12  C   UNL     1       0.888   9.672  20.115  0.00  0.00    +0.000 A 
ATOM     13  C   UNL     1       0.767  11.025  19.731  0.00  0.00    +0.000 A 
ATOM     14  C   UNL     1       0.101  12.243  20.416  0.00  0.00    +0.000 C 
ATOM     15  N   UNL     1      -1.228  12.761  19.886  0.00  0.00    +0.000 NA
ATOM     16  C   UNL     1      -1.740  13.209  20.982  0.00  0.00    +0.000 C 
ATOM     17  N   UNL     1      -1.800  14.494  21.446  0.00  0.00    +0.000 N 
ATOM     18  N   UNL     1      -1.755  12.309  21.947  0.00  0.00    +0.000 N 
ATOM     19  C   UNL     1      -0.464  11.856  21.904  0.00  0.00    +0.000 C 
ATOM     20  O   UNL     1       0.126  11.294  22.819  0.00  0.00    +0.000 OA
ATOM     21  H   UNL     1      -0.832  14.780  21.672  0.00  0.00    +0.000 HD
ATOM     22  H   UNL     1      -2.157  14.546  22.395  0.00  0.00    +0.000 HD
ENDROOT
BRANCH  11  23
ATOM     23  C   UNL     1       1.910   7.335  19.644  0.00  0.00    +0.000 A 
ATOM     24  N   UNL     1       1.516   6.763  20.772  0.00  0.00    +0.000 NA
ATOM     25  C   UNL     1       1.721   5.400  20.733  0.00  0.00    +0.000 A 
ATOM     26  C   UNL     1       2.270   4.926  19.567  0.00  0.00    +0.000 A 
ATOM     27  S   UNL     1       2.555   6.235  18.487  0.00  0.00    +0.000 S 
ENDBRANCH  11  23
BRANCH   1  29
ATOM     28  C   UNL     1       3.106  16.699  17.240  0.00  0.00    +0.000 C 
ATOM     29  O   UNL     1       3.057  17.107  18.590  0.00  0.00    +0.000 OA
ENDBRANCH   1  29
BRANCH  18  30
ATOM     30  C   UNL     1      -2.927  12.260  22.828  0.00  0.00    +0.000 C 
BRANCH  30  31
ATOM     31  C   UNL     1      -4.248  12.640  22.201  0.00  0.00    +0.000 C 
ATOM     32  F   UNL     1      -5.207  12.650  23.170  0.00  0.00    +0.000 F 
ENDBRANCH  30  31
ENDBRANCH  18  30
TORSDOF 4
ENDMDL
