MODEL 1
REMARK VINA RESULT:      -6.7      0.000      0.000
REMARK  Name = 
REMARK  6 active torsions:
REMARK  status: ('A' for Active; 'I' for Inactive)
REMARK    1  A    between atoms: C_2  and  C_3
REMARK    2  A    between atoms: C_2  and  C_4
REMARK    3  A    between atoms: C_4  and  N_5
REMARK    4  A    between atoms: C_10  and  C_11
REMARK    5  A    between atoms: C_11  and  C_12
REMARK    6  A    between atoms: N_28  and  C_29
REMARK                            x       y       z     vdW  Elec       q    Type
REMARK                         _______ _______ _______ _____ _____    ______ ____
ROOT
ATOM      1  N   UNL     1       2.993   5.461  19.767  0.00  0.00    +0.000 N 
ATOM      2  C   UNL     1       2.634   6.701  19.250  0.00  0.00    +0.000 A 
ATOM      3  N   UNL     1       1.859   7.590  19.937  0.00  0.00    +0.000 N 
ATOM      4  C   UNL     1       1.960   9.007  19.560  0.00  0.00    +0.000 C 
ATOM      5  C   UNL     1       1.664   9.858  20.802  0.00  0.00    +0.000 C 
ATOM      6  C   UNL     1       0.309   9.516  21.457  0.00  0.00    +0.000 C 
ATOM      7  C   UNL     1       0.241   7.996  21.695  0.00  0.00    +0.000 C 
ATOM      8  C   UNL     1       0.523   7.222  20.405  0.00  0.00    +0.000 C 
ATOM      9  N   UNL     1       3.280   6.928  18.117  0.00  0.00    +0.000 NA
ATOM     10  C   UNL     1       4.082   5.845  17.925  0.00  0.00    +0.000 A 
ATOM     11  C   UNL     1       3.940   4.926  18.925  0.00  0.00    +0.000 A 
ATOM     12  C   UNL     1       4.703   3.734  18.983  0.00  0.00    +0.000 A 
ATOM     13  O   UNL     1       4.616   2.868  19.847  0.00  0.00    +0.000 OA
ATOM     14  N   UNL     1       5.599   3.628  17.950  0.00  0.00    +0.000 N 
ATOM     15  C   UNL     1       5.795   4.520  16.916  0.00  0.00    +0.000 A 
ATOM     16  O   UNL     1       6.659   4.272  16.076  0.00  0.00    +0.000 OA
ATOM     17  N   UNL     1       4.991   5.657  16.898  0.00  0.00    +0.000 N 
ATOM     18  C   UNL     1       5.140   6.637  15.842  0.00  0.00    +0.000 C 
ATOM     19  H   UNL     1       6.192   2.811  17.948  0.00  0.00    +0.000 HD
ENDROOT
BRANCH   1  20
ATOM     20  C   UNL     1       2.623   4.877  21.052  0.00  0.00    +0.000 C 
BRANCH  20  22
ATOM     21  C   UNL     1       0.734   3.657  19.981  0.00  0.00    +0.000 C 
ATOM     22  C   UNL     1       1.653   3.709  20.963  0.00  0.00    +0.000 C 
ATOM     23  C   UNL     1       1.775   2.583  21.955  0.00  0.00    +0.000 C 
ENDBRANCH  20  22
ENDBRANCH   1  20
BRANCH   6  24
ATOM     24  C   UNL     1      -0.918   9.961  20.634  0.00  0.00    +0.000 C 
BRANCH  24  25
ATOM     25  C   UNL     1      -0.877  11.372  20.114  0.00  0.00    +0.000 A 
ATOM     26  C   UNL     1      -0.914  12.447  21.011  0.00  0.00    +0.000 A 
ATOM     27  C   UNL     1      -0.815  13.759  20.548  0.00  0.00    +0.000 A 
ATOM     28  C   UNL     1      -0.678  14.006  19.185  0.00  0.00    +0.000 A 
ATOM     29  C   UNL     1      -0.646  12.945  18.283  0.00  0.00    +0.000 A 
ATOM     30  C   UNL     1      -0.744  11.632  18.744  0.00  0.00    +0.000 A 
ENDBRANCH  24  25
ENDBRANCH   6  24
TORSDOF 4
ENDMDL
MODEL 2
REMARK VINA RESULT:      -6.6      5.367     10.059
REMARK  Name = 
REMARK  6 active torsions:
REMARK  status: ('A' for Active; 'I' for Inactive)
REMARK    1  A    between atoms: C_2  and  C_3
REMARK    2  A    between atoms: C_2  and  C_4
REMARK    3  A    between atoms: C_4  and  N_5
REMARK    4  A    between atoms: C_10  and  C_11
REMARK    5  A    between atoms: C_11  and  C_12
REMARK    6  A    between atoms: N_28  and  C_29
REMARK                            x       y       z     vdW  Elec       q    Type
REMARK                         _______ _______ _______ _____ _____    ______ ____
ROOT
ATOM      1  N   UNL     1      -1.351  12.766  21.034  0.00  0.00    +0.000 N 
ATOM      2  C   UNL     1      -1.333  11.578  21.757  0.00  0.00    +0.000 A 
ATOM      3  N   UNL     1      -0.432  10.581  21.517  0.00  0.00    +0.000 N 
ATOM      4  C   UNL     1      -0.160   9.639  22.611  0.00  0.00    +0.000 C 
ATOM      5  C   UNL     1       1.281   9.132  22.463  0.00  0.00    +0.000 C 
ATOM      6  C   UNL     1       1.564   8.522  21.074  0.00  0.00    +0.000 C 
ATOM      7  C   UNL     1       1.128   9.526  19.992  0.00  0.00    +0.000 C 
ATOM      8  C   UNL     1      -0.325   9.962  20.197  0.00  0.00    +0.000 C 
ATOM      9  N   UNL     1      -2.179  11.650  22.773  0.00  0.00    +0.000 NA
ATOM     10  C   UNL     1      -2.715  12.900  22.721  0.00  0.00    +0.000 A 
ATOM     11  C   UNL     1      -2.221  13.619  21.670  0.00  0.00    +0.000 A 
ATOM     12  C   UNL     1      -2.583  14.967  21.428  0.00  0.00    +0.000 A 
ATOM     13  O   UNL     1      -2.183  15.661  20.500  0.00  0.00    +0.000 OA
ATOM     14  N   UNL     1      -3.450  15.460  22.369  0.00  0.00    +0.000 N 
ATOM     15  C   UNL     1      -3.978  14.791  23.454  0.00  0.00    +0.000 A 
ATOM     16  O   UNL     1      -4.736  15.396  24.211  0.00  0.00    +0.000 OA
ATOM     17  N   UNL     1      -3.609  13.457  23.618  0.00  0.00    +0.000 N 
ATOM     18  C   UNL     1      -4.127  12.691  24.734  0.00  0.00    +0.000 C 
ATOM     19  H   UNL     1      -3.727  16.425  22.268  0.00  0.00    +0.000 HD
ENDROOT
BRANCH   1  20
ATOM     20  C   UNL     1      -0.487  13.160  19.926  0.00  0.00    +0.000 C 
BRANCH  20  22
ATOM     21  C   UNL     1       1.975  13.081  19.555  0.00  0.00    +0.000 C 
ATOM     22  C   UNL     1       0.945  13.485  20.322  0.00  0.00    +0.000 C 
ATOM     23  C   UNL     1       1.191  14.318  21.552  0.00  0.00    +0.000 C 
ENDBRANCH  20  22
ENDBRANCH   1  20
BRANCH   6  24
ATOM     24  C   UNL     1       0.868   7.168  20.827  0.00  0.00    +0.000 C 
BRANCH  24  25
ATOM     25  C   UNL     1       1.767   6.042  20.395  0.00  0.00    +0.000 A 
ATOM     26  C   UNL     1       1.460   4.725  20.756  0.00  0.00    +0.000 A 
ATOM     27  C   UNL     1       2.250   3.665  20.312  0.00  0.00    +0.000 A 
ATOM     28  C   UNL     1       3.355   3.916  19.501  0.00  0.00    +0.000 A 
ATOM     29  C   UNL     1       3.674   5.223  19.140  0.00  0.00    +0.000 A 
ATOM     30  C   UNL     1       2.884   6.283  19.584  0.00  0.00    +0.000 A 
ENDBRANCH  24  25
ENDBRANCH   6  24
TORSDOF 4
ENDMDL
MODEL 3
REMARK VINA RESULT:      -6.5      5.378      9.436
REMARK  Name = 
REMARK  6 active torsions:
REMARK  status: ('A' for Active; 'I' for Inactive)
REMARK    1  A    between atoms: C_2  and  C_3
REMARK    2  A    between atoms: C_2  and  C_4
REMARK    3  A    between atoms: C_4  and  N_5
REMARK    4  A    between atoms: C_10  and  C_11
REMARK    5  A    between atoms: C_11  and  C_12
REMARK    6  A    between atoms: N_28  and  C_29
REMARK                            x       y       z     vdW  Elec       q    Type
REMARK                         _______ _______ _______ _____ _____    ______ ____
ROOT
ATOM      1  N   UNL     1      -0.137  13.975  19.864  0.00  0.00    +0.000 N 
ATOM      2  C   UNL     1       0.893  13.168  19.393  0.00  0.00    +0.000 A 
ATOM      3  N   UNL     1       0.835  11.804  19.423  0.00  0.00    +0.000 N 
ATOM      4  C   UNL     1       1.687  11.070  18.476  0.00  0.00    +0.000 C 
ATOM      5  C   UNL     1       0.996   9.744  18.135  0.00  0.00    +0.000 C 
ATOM      6  C   UNL     1       0.646   8.908  19.385  0.00  0.00    +0.000 C 
ATOM      7  C   UNL     1      -0.132   9.796  20.374  0.00  0.00    +0.000 C 
ATOM      8  C   UNL     1       0.635  11.085  20.680  0.00  0.00    +0.000 C 
ATOM      9  N   UNL     1       1.810  13.905  18.786  0.00  0.00    +0.000 NA
ATOM     10  C   UNL     1       1.350  15.185  18.838  0.00  0.00    +0.000 A 
ATOM     11  C   UNL     1       0.149  15.265  19.485  0.00  0.00    +0.000 A 
ATOM     12  C   UNL     1      -0.564  16.481  19.627  0.00  0.00    +0.000 A 
ATOM     13  O   UNL     1      -1.638  16.619  20.203  0.00  0.00    +0.000 OA
ATOM     14  N   UNL     1       0.070  17.540  19.028  0.00  0.00    +0.000 N 
ATOM     15  C   UNL     1       1.274  17.524  18.357  0.00  0.00    +0.000 A 
ATOM     16  O   UNL     1       1.691  18.572  17.865  0.00  0.00    +0.000 OA
ATOM     17  N   UNL     1       1.943  16.304  18.280  0.00  0.00    +0.000 N 
ATOM     18  C   UNL     1       3.214  16.213  17.592  0.00  0.00    +0.000 C 
ATOM     19  H   UNL     1      -0.401  18.431  19.072  0.00  0.00    +0.000 HD
ENDROOT
BRANCH   1  20
ATOM     20  C   UNL     1      -1.399  13.564  20.471  0.00  0.00    +0.000 C 
BRANCH  20  22
ATOM     21  C   UNL     1      -0.604  14.287  22.718  0.00  0.00    +0.000 C 
ATOM     22  C   UNL     1      -1.367  13.453  21.988  0.00  0.00    +0.000 C 
ATOM     23  C   UNL     1      -2.249  12.437  22.663  0.00  0.00    +0.000 C 
ENDBRANCH  20  22
ENDBRANCH   1  20
BRANCH   6  24
ATOM     24  C   UNL     1       1.871   8.299  20.098  0.00  0.00    +0.000 C 
BRANCH  24  25
ATOM     25  C   UNL     1       2.190   6.873  19.739  0.00  0.00    +0.000 A 
ATOM     26  C   UNL     1       1.792   5.833  20.588  0.00  0.00    +0.000 A 
ATOM     27  C   UNL     1       2.027   4.504  20.240  0.00  0.00    +0.000 A 
ATOM     28  C   UNL     1       2.662   4.204  19.038  0.00  0.00    +0.000 A 
ATOM     29  C   UNL     1       3.069   5.230  18.188  0.00  0.00    +0.000 A 
ATOM     30  C   UNL     1       2.834   6.560  18.535  0.00  0.00    +0.000 A 
ENDBRANCH  24  25
ENDBRANCH   6  24
TORSDOF 4
ENDMDL
MODEL 4
REMARK VINA RESULT:      -6.5      4.908      9.554
REMARK  Name = 
REMARK  6 active torsions:
REMARK  status: ('A' for Active; 'I' for Inactive)
REMARK    1  A    between atoms: C_2  and  C_3
REMARK    2  A    between atoms: C_2  and  C_4
REMARK    3  A    between atoms: C_4  and  N_5
REMARK    4  A    between atoms: C_10  and  C_11
REMARK    5  A    between atoms: C_11  and  C_12
REMARK    6  A    between atoms: N_28  and  C_29
REMARK                            x       y       z     vdW  Elec       q    Type
REMARK                         _______ _______ _______ _____ _____    ______ ____
ROOT
ATOM      1  N   UNL     1       0.150  12.617  18.996  0.00  0.00    +0.000 N 
ATOM      2  C   UNL     1      -0.206  11.364  19.484  0.00  0.00    +0.000 A 
ATOM      3  N   UNL     1       0.573  10.257  19.313  0.00  0.00    +0.000 N 
ATOM      4  C   UNL     1       0.390   9.149  20.261  0.00  0.00    +0.000 C 
ATOM      5  C   UNL     1       1.727   8.408  20.399  0.00  0.00    +0.000 C 
ATOM      6  C   UNL     1       2.296   7.937  19.044  0.00  0.00    +0.000 C 
ATOM      7  C   UNL     1       2.329   9.134  18.076  0.00  0.00    +0.000 C 
ATOM      8  C   UNL     1       0.955   9.801  17.977  0.00  0.00    +0.000 C 
ATOM      9  N   UNL     1      -1.283  11.462  20.248  0.00  0.00    +0.000 NA
ATOM     10  C   UNL     1      -1.597  12.785  20.278  0.00  0.00    +0.000 A 
ATOM     11  C   UNL     1      -0.732  13.528  19.527  0.00  0.00    +0.000 A 
ATOM     12  C   UNL     1      -0.814  14.940  19.437  0.00  0.00    +0.000 A 
ATOM     13  O   UNL     1      -0.075  15.660  18.775  0.00  0.00    +0.000 OA
ATOM     14  N   UNL     1      -1.829  15.461  20.197  0.00  0.00    +0.000 N 
ATOM     15  C   UNL     1      -2.730  14.769  20.980  0.00  0.00    +0.000 A 
ATOM     16  O   UNL     1      -3.574  15.402  21.612  0.00  0.00    +0.000 OA
ATOM     17  N   UNL     1      -2.617  13.380  21.001  0.00  0.00    +0.000 N 
ATOM     18  C   UNL     1      -3.530  12.588  21.799  0.00  0.00    +0.000 C 
ATOM     19  H   UNL     1      -1.925  16.466  20.197  0.00  0.00    +0.000 HD
ENDROOT
BRANCH   1  20
ATOM     20  C   UNL     1       1.337  12.982  18.229  0.00  0.00    +0.000 C 
BRANCH  20  22
ATOM     21  C   UNL     1       2.550  13.267  20.385  0.00  0.00    +0.000 C 
ATOM     22  C   UNL     1       2.494  13.510  19.062  0.00  0.00    +0.000 C 
ATOM     23  C   UNL     1       3.606  14.257  18.376  0.00  0.00    +0.000 C 
ENDBRANCH  20  22
ENDBRANCH   1  20
BRANCH   6  24
ATOM     24  C   UNL     1       1.509   6.778  18.399  0.00  0.00    +0.000 C 
BRANCH  24  25
ATOM     25  C   UNL     1       2.332   5.596  17.962  0.00  0.00    +0.000 A 
ATOM     26  C   UNL     1       3.716   5.731  17.798  0.00  0.00    +0.000 A 
ATOM     27  C   UNL     1       4.500   4.631  17.453  0.00  0.00    +0.000 A 
ATOM     28  C   UNL     1       3.905   3.385  17.270  0.00  0.00    +0.000 A 
ATOM     29  C   UNL     1       2.528   3.240  17.424  0.00  0.00    +0.000 A 
ATOM     30  C   UNL     1       1.743   4.340  17.770  0.00  0.00    +0.000 A 
ENDBRANCH  24  25
ENDBRANCH   6  24
TORSDOF 4
ENDMDL
MODEL 5
REMARK VINA RESULT:      -6.5      0.861      1.142
REMARK  Name = 
REMARK  6 active torsions:
REMARK  status: ('A' for Active; 'I' for Inactive)
REMARK    1  A    between atoms: C_2  and  C_3
REMARK    2  A    between atoms: C_2  and  C_4
REMARK    3  A    between atoms: C_4  and  N_5
REMARK    4  A    between atoms: C_10  and  C_11
REMARK    5  A    between atoms: C_11  and  C_12
REMARK    6  A    between atoms: N_28  and  C_29
REMARK                            x       y       z     vdW  Elec       q    Type
REMARK                         _______ _______ _______ _____ _____    ______ ____
ROOT
ATOM      1  N   UNL     1       2.880   5.414  19.786  0.00  0.00    +0.000 N 
ATOM      2  C   UNL     1       2.576   6.694  19.334  0.00  0.00    +0.000 A 
ATOM      3  N   UNL     1       1.854   7.586  20.073  0.00  0.00    +0.000 N 
ATOM      4  C   UNL     1       2.020   9.013  19.762  0.00  0.00    +0.000 C 
ATOM      5  C   UNL     1       1.782   9.817  21.047  0.00  0.00    +0.000 C 
ATOM      6  C   UNL     1       0.420   9.511  21.705  0.00  0.00    +0.000 C 
ATOM      7  C   UNL     1       0.280   7.986  21.873  0.00  0.00    +0.000 C 
ATOM      8  C   UNL     1       0.508   7.262  20.544  0.00  0.00    +0.000 C 
ATOM      9  N   UNL     1       3.217   6.943  18.203  0.00  0.00    +0.000 NA
ATOM     10  C   UNL     1       3.963   5.833  17.948  0.00  0.00    +0.000 A 
ATOM     11  C   UNL     1       3.788   4.875  18.907  0.00  0.00    +0.000 A 
ATOM     12  C   UNL     1       4.493   3.646  18.897  0.00  0.00    +0.000 A 
ATOM     13  O   UNL     1       4.374   2.745  19.721  0.00  0.00    +0.000 OA
ATOM     14  N   UNL     1       5.369   3.545  17.847  0.00  0.00    +0.000 N 
ATOM     15  C   UNL     1       5.596   4.475  16.853  0.00  0.00    +0.000 A 
ATOM     16  O   UNL     1       6.436   4.226  15.990  0.00  0.00    +0.000 OA
ATOM     17  N   UNL     1       4.848   5.650  16.901  0.00  0.00    +0.000 N 
ATOM     18  C   UNL     1       5.032   6.670  15.889  0.00  0.00    +0.000 C 
ATOM     19  H   UNL     1       5.921   2.702  17.797  0.00  0.00    +0.000 HD
ENDROOT
BRANCH   1  20
ATOM     20  C   UNL     1       2.498   4.789  21.048  0.00  0.00    +0.000 C 
BRANCH  20  22
ATOM     21  C   UNL     1       0.641   3.605  19.885  0.00  0.00    +0.000 C 
ATOM     22  C   UNL     1       1.507   3.643  20.915  0.00  0.00    +0.000 C 
ATOM     23  C   UNL     1       1.550   2.521  21.918  0.00  0.00    +0.000 C 
ENDBRANCH  20  22
ENDBRANCH   1  20
BRANCH   6  24
ATOM     24  C   UNL     1      -0.794  10.053  20.922  0.00  0.00    +0.000 C 
BRANCH  24  25
ATOM     25  C   UNL     1      -1.290  11.408  21.347  0.00  0.00    +0.000 A 
ATOM     26  C   UNL     1      -1.197  11.796  22.689  0.00  0.00    +0.000 A 
ATOM     27  C   UNL     1      -1.597  13.071  23.088  0.00  0.00    +0.000 A 
ATOM     28  C   UNL     1      -2.093  13.969  22.146  0.00  0.00    +0.000 A 
ATOM     29  C   UNL     1      -2.196  13.592  20.809  0.00  0.00    +0.000 A 
ATOM     30  C   UNL     1      -1.796  12.317  20.409  0.00  0.00    +0.000 A 
ENDBRANCH  24  25
ENDBRANCH   6  24
TORSDOF 4
ENDMDL
MODEL 6
REMARK VINA RESULT:      -6.4      5.260      9.314
REMARK  Name = 
REMARK  6 active torsions:
REMARK  status: ('A' for Active; 'I' for Inactive)
REMARK    1  A    between atoms: C_2  and  C_3
REMARK    2  A    between atoms: C_2  and  C_4
REMARK    3  A    between atoms: C_4  and  N_5
REMARK    4  A    between atoms: C_10  and  C_11
REMARK    5  A    between atoms: C_11  and  C_12
REMARK    6  A    between atoms: N_28  and  C_29
REMARK                            x       y       z     vdW  Elec       q    Type
REMARK                         _______ _______ _______ _____ _____    ______ ____
ROOT
ATOM      1  N   UNL     1       0.275  13.765  20.329  0.00  0.00    +0.000 N 
ATOM      2  C   UNL     1       1.152  12.931  19.645  0.00  0.00    +0.000 A 
ATOM      3  N   UNL     1       1.032  11.571  19.649  0.00  0.00    +0.000 N 
ATOM      4  C   UNL     1       1.647  10.835  18.535  0.00  0.00    +0.000 C 
ATOM      5  C   UNL     1       0.836   9.554  18.299  0.00  0.00    +0.000 C 
ATOM      6  C   UNL     1       0.693   8.690  19.570  0.00  0.00    +0.000 C 
ATOM      7  C   UNL     1       0.166   9.574  20.715  0.00  0.00    +0.000 C 
ATOM      8  C   UNL     1       1.042  10.816  20.901  0.00  0.00    +0.000 C 
ATOM      9  N   UNL     1       1.971  13.648  18.892  0.00  0.00    +0.000 NA
ATOM     10  C   UNL     1       1.595  14.944  19.067  0.00  0.00    +0.000 A 
ATOM     11  C   UNL     1       0.547  15.054  19.937  0.00  0.00    +0.000 A 
ATOM     12  C   UNL     1      -0.063  16.295  20.248  0.00  0.00    +0.000 A 
ATOM     13  O   UNL     1      -0.997  16.459  21.025  0.00  0.00    +0.000 OA
ATOM     14  N   UNL     1       0.497  17.345  19.567  0.00  0.00    +0.000 N 
ATOM     15  C   UNL     1       1.547  17.300  18.673  0.00  0.00    +0.000 A 
ATOM     16  O   UNL     1       1.914  18.346  18.138  0.00  0.00    +0.000 OA
ATOM     17  N   UNL     1       2.125  16.055  18.435  0.00  0.00    +0.000 N 
ATOM     18  C   UNL     1       3.233  15.933  17.511  0.00  0.00    +0.000 C 
ATOM     19  H   UNL     1       0.089  18.255  19.725  0.00  0.00    +0.000 HD
ENDROOT
BRANCH   1  20
ATOM     20  C   UNL     1      -0.865  13.389  21.159  0.00  0.00    +0.000 C 
BRANCH  20  22
ATOM     21  C   UNL     1      -2.246  12.277  19.410  0.00  0.00    +0.000 C 
ATOM     22  C   UNL     1      -2.167  13.188  20.398  0.00  0.00    +0.000 C 
ATOM     23  C   UNL     1      -3.380  13.980  20.806  0.00  0.00    +0.000 C 
ENDBRANCH  20  22
ENDBRANCH   1  20
BRANCH   6  24
ATOM     24  C   UNL     1       1.999   8.001  20.014  0.00  0.00    +0.000 C 
BRANCH  24  25
ATOM     25  C   UNL     1       2.133   6.551  19.634  0.00  0.00    +0.000 A 
ATOM     26  C   UNL     1       1.781   5.553  20.551  0.00  0.00    +0.000 A 
ATOM     27  C   UNL     1       1.842   4.207  20.193  0.00  0.00    +0.000 A 
ATOM     28  C   UNL     1       2.255   3.848  18.912  0.00  0.00    +0.000 A 
ATOM     29  C   UNL     1       2.613   4.832  17.993  0.00  0.00    +0.000 A 
ATOM     30  C   UNL     1       2.552   6.178  18.350  0.00  0.00    +0.000 A 
ENDBRANCH  24  25
ENDBRANCH   6  24
TORSDOF 4
ENDMDL
MODEL 7
REMARK VINA RESULT:      -6.4      1.772      2.090
REMARK  Name = 
REMARK  6 active torsions:
REMARK  status: ('A' for Active; 'I' for Inactive)
REMARK    1  A    between atoms: C_2  and  C_3
REMARK    2  A    between atoms: C_2  and  C_4
REMARK    3  A    between atoms: C_4  and  N_5
REMARK    4  A    between atoms: C_10  and  C_11
REMARK    5  A    between atoms: C_11  and  C_12
REMARK    6  A    between atoms: N_28  and  C_29
REMARK                            x       y       z     vdW  Elec       q    Type
REMARK                         _______ _______ _______ _____ _____    ______ ____
ROOT
ATOM      1  N   UNL     1       3.481   5.949  18.965  0.00  0.00    +0.000 N 
ATOM      2  C   UNL     1       3.295   7.042  18.125  0.00  0.00    +0.000 A 
ATOM      3  N   UNL     1       2.369   8.014  18.374  0.00  0.00    +0.000 N 
ATOM      4  C   UNL     1       2.588   9.329  17.755  0.00  0.00    +0.000 C 
ATOM      5  C   UNL     1       1.969  10.398  18.665  0.00  0.00    +0.000 C 
ATOM      6  C   UNL     1       0.481  10.134  18.978  0.00  0.00    +0.000 C 
ATOM      7  C   UNL     1       0.331   8.692  19.497  0.00  0.00    +0.000 C 
ATOM      8  C   UNL     1       0.952   7.687  18.522  0.00  0.00    +0.000 C 
ATOM      9  N   UNL     1       4.233   7.065  17.192  0.00  0.00    +0.000 NA
ATOM     10  C   UNL     1       5.044   6.004  17.455  0.00  0.00    +0.000 A 
ATOM     11  C   UNL     1       4.618   5.300  18.545  0.00  0.00    +0.000 A 
ATOM     12  C   UNL     1       5.320   4.181  19.055  0.00  0.00    +0.000 A 
ATOM     13  O   UNL     1       4.986   3.504  20.021  0.00  0.00    +0.000 OA
ATOM     14  N   UNL     1       6.467   3.910  18.353  0.00  0.00    +0.000 N 
ATOM     15  C   UNL     1       6.954   4.584  17.252  0.00  0.00    +0.000 A 
ATOM     16  O   UNL     1       8.014   4.211  16.751  0.00  0.00    +0.000 OA
ATOM     17  N   UNL     1       6.200   5.656  16.779  0.00  0.00    +0.000 N 
ATOM     18  C   UNL     1       6.649   6.408  15.626  0.00  0.00    +0.000 C 
ATOM     19  H   UNL     1       7.027   3.138  18.682  0.00  0.00    +0.000 HD
ENDROOT
BRANCH   1  20
ATOM     20  C   UNL     1       2.760   5.620  20.191  0.00  0.00    +0.000 C 
BRANCH  20  22
ATOM     21  C   UNL     1       1.347   4.016  18.912  0.00  0.00    +0.000 C 
ATOM     22  C   UNL     1       1.872   4.389  20.095  0.00  0.00    +0.000 C 
ATOM     23  C   UNL     1       1.639   3.560  21.329  0.00  0.00    +0.000 C 
ENDBRANCH  20  22
ENDBRANCH   1  20
BRANCH   6  24
ATOM     24  C   UNL     1      -0.463  10.346  17.777  0.00  0.00    +0.000 C 
BRANCH  24  25
ATOM     25  C   UNL     1      -1.867  10.765  18.118  0.00  0.00    +0.000 A 
ATOM     26  C   UNL     1      -2.084  11.774  19.064  0.00  0.00    +0.000 A 
ATOM     27  C   UNL     1      -3.376  12.215  19.346  0.00  0.00    +0.000 A 
ATOM     28  C   UNL     1      -4.462  11.651  18.683  0.00  0.00    +0.000 A 
ATOM     29  C   UNL     1      -4.259  10.642  17.744  0.00  0.00    +0.000 A 
ATOM     30  C   UNL     1      -2.967  10.200  17.460  0.00  0.00    +0.000 A 
ENDBRANCH  24  25
ENDBRANCH   6  24
TORSDOF 4
ENDMDL
MODEL 8
REMARK VINA RESULT:      -6.4      1.593      1.961
REMARK  Name = 
REMARK  6 active torsions:
REMARK  status: ('A' for Active; 'I' for Inactive)
REMARK    1  A    between atoms: C_2  and  C_3
REMARK    2  A    between atoms: C_2  and  C_4
REMARK    3  A    between atoms: C_4  and  N_5
REMARK    4  A    between atoms: C_10  and  C_11
REMARK    5  A    between atoms: C_11  and  C_12
REMARK    6  A    between atoms: N_28  and  C_29
REMARK                            x       y       z     vdW  Elec       q    Type
REMARK                         _______ _______ _______ _____ _____    ______ ____
ROOT
ATOM      1  N   UNL     1       3.510   6.007  18.961  0.00  0.00    +0.000 N 
ATOM      2  C   UNL     1       3.181   7.066  18.121  0.00  0.00    +0.000 A 
ATOM      3  N   UNL     1       2.295   8.042  18.476  0.00  0.00    +0.000 N 
ATOM      4  C   UNL     1       2.398   9.333  17.782  0.00  0.00    +0.000 C 
ATOM      5  C   UNL     1       1.918  10.433  18.737  0.00  0.00    +0.000 C 
ATOM      6  C   UNL     1       0.501  10.173  19.291  0.00  0.00    +0.000 C 
ATOM      7  C   UNL     1       0.452   8.751  19.882  0.00  0.00    +0.000 C 
ATOM      8  C   UNL     1       0.923   7.713  18.860  0.00  0.00    +0.000 C 
ATOM      9  N   UNL     1       3.960   7.058  17.051  0.00  0.00    +0.000 NA
ATOM     10  C   UNL     1       4.814   6.012  17.222  0.00  0.00    +0.000 A 
ATOM     11  C   UNL     1       4.574   5.349  18.392  0.00  0.00    +0.000 A 
ATOM     12  C   UNL     1       5.361   4.254  18.826  0.00  0.00    +0.000 A 
ATOM     13  O   UNL     1       5.191   3.614  19.858  0.00  0.00    +0.000 OA
ATOM     14  N   UNL     1       6.386   3.962  17.962  0.00  0.00    +0.000 N 
ATOM     15  C   UNL     1       6.685   4.595  16.773  0.00  0.00    +0.000 A 
ATOM     16  O   UNL     1       7.657   4.210  16.126  0.00  0.00    +0.000 OA
ATOM     17  N   UNL     1       5.853   5.644  16.386  0.00  0.00    +0.000 N 
ATOM     18  C   UNL     1       6.106   6.353  15.148  0.00  0.00    +0.000 C 
ATOM     19  H   UNL     1       7.000   3.207  18.227  0.00  0.00    +0.000 HD
ENDROOT
BRANCH   1  20
ATOM     20  C   UNL     1       2.996   5.723  20.297  0.00  0.00    +0.000 C 
BRANCH  20  22
ATOM     21  C   UNL     1       1.333   4.134  19.343  0.00  0.00    +0.000 C 
ATOM     22  C   UNL     1       2.103   4.495  20.386  0.00  0.00    +0.000 C 
ATOM     23  C   UNL     1       2.139   3.655  21.635  0.00  0.00    +0.000 C 
ENDBRANCH  20  22
ENDBRANCH   1  20
BRANCH   6  24
ATOM     24  C   UNL     1      -0.622  10.333  18.247  0.00  0.00    +0.000 C 
BRANCH  24  25
ATOM     25  C   UNL     1      -1.830  11.105  18.704  0.00  0.00    +0.000 A 
ATOM     26  C   UNL     1      -3.050  10.955  18.032  0.00  0.00    +0.000 A 
ATOM     27  C   UNL     1      -4.192  11.618  18.481  0.00  0.00    +0.000 A 
ATOM     28  C   UNL     1      -4.123  12.436  19.605  0.00  0.00    +0.000 A 
ATOM     29  C   UNL     1      -2.914  12.598  20.278  0.00  0.00    +0.000 A 
ATOM     30  C   UNL     1      -1.771  11.935  19.831  0.00  0.00    +0.000 A 
ENDBRANCH  24  25
ENDBRANCH   6  24
TORSDOF 4
ENDMDL
MODEL 9
REMARK VINA RESULT:      -6.4      5.031      9.098
REMARK  Name = 
REMARK  6 active torsions:
REMARK  status: ('A' for Active; 'I' for Inactive)
REMARK    1  A    between atoms: C_2  and  C_3
REMARK    2  A    between atoms: C_2  and  C_4
REMARK    3  A    between atoms: C_4  and  N_5
REMARK    4  A    between atoms: C_10  and  C_11
REMARK    5  A    between atoms: C_11  and  C_12
REMARK    6  A    between atoms: N_28  and  C_29
REMARK                            x       y       z     vdW  Elec       q    Type
REMARK                         _______ _______ _______ _____ _____    ______ ____
ROOT
ATOM      1  N   UNL     1       0.489  13.133  19.872  0.00  0.00    +0.000 N 
ATOM      2  C   UNL     1       1.456  12.387  19.207  0.00  0.00    +0.000 A 
ATOM      3  N   UNL     1       1.408  11.026  19.119  0.00  0.00    +0.000 N 
ATOM      4  C   UNL     1       2.140  10.393  18.013  0.00  0.00    +0.000 C 
ATOM      5  C   UNL     1       1.418   9.092  17.639  0.00  0.00    +0.000 C 
ATOM      6  C   UNL     1       1.229   8.142  18.841  0.00  0.00    +0.000 C 
ATOM      7  C   UNL     1       0.574   8.925  19.995  0.00  0.00    +0.000 C 
ATOM      8  C   UNL     1       1.367  10.193  20.321  0.00  0.00    +0.000 C 
ATOM      9  N   UNL     1       2.288  13.190  18.563  0.00  0.00    +0.000 NA
ATOM     10  C   UNL     1       1.832  14.453  18.787  0.00  0.00    +0.000 A 
ATOM     11  C   UNL     1       0.720  14.456  19.581  0.00  0.00    +0.000 A 
ATOM     12  C   UNL     1       0.024  15.643  19.919  0.00  0.00    +0.000 A 
ATOM     13  O   UNL     1      -0.971  15.712  20.632  0.00  0.00    +0.000 OA
ATOM     14  N   UNL     1       0.575  16.761  19.346  0.00  0.00    +0.000 N 
ATOM     15  C   UNL     1       1.688  16.824  18.534  0.00  0.00    +0.000 A 
ATOM     16  O   UNL     1       2.036  17.918  18.092  0.00  0.00    +0.000 OA
ATOM     17  N   UNL     1       2.347  15.627  18.265  0.00  0.00    +0.000 N 
ATOM     18  C   UNL     1       3.524  15.618  17.421  0.00  0.00    +0.000 C 
ATOM     19  H   UNL     1       0.109  17.638  19.528  0.00  0.00    +0.000 HD
ENDROOT
BRANCH   1  20
ATOM     20  C   UNL     1      -0.687  12.649  20.589  0.00  0.00    +0.000 C 
BRANCH  20  22
ATOM     21  C   UNL     1      -3.145  12.817  20.226  0.00  0.00    +0.000 C 
ATOM     22  C   UNL     1      -1.935  12.495  19.733  0.00  0.00    +0.000 C 
ATOM     23  C   UNL     1      -1.789  12.034  18.308  0.00  0.00    +0.000 C 
ENDBRANCH  20  22
ENDBRANCH   1  20
BRANCH   6  24
ATOM     24  C   UNL     1       2.534   7.491  19.340  0.00  0.00    +0.000 C 
BRANCH  24  25
ATOM     25  C   UNL     1       2.979   6.266  18.589  0.00  0.00    +0.000 A 
ATOM     26  C   UNL     1       2.082   5.211  18.379  0.00  0.00    +0.000 A 
ATOM     27  C   UNL     1       2.461   4.095  17.633  0.00  0.00    +0.000 A 
ATOM     28  C   UNL     1       3.741   4.027  17.088  0.00  0.00    +0.000 A 
ATOM     29  C   UNL     1       4.644   5.068  17.295  0.00  0.00    +0.000 A 
ATOM     30  C   UNL     1       4.266   6.184  18.041  0.00  0.00    +0.000 A 
ENDBRANCH  24  25
ENDBRANCH   6  24
TORSDOF 4
ENDMDL
