MODEL 1
REMARK VINA RESULT:      -7.2      0.000      0.000
REMARK  Name = 
REMARK  7 active torsions:
REMARK  status: ('A' for Active; 'I' for Inactive)
REMARK    1  A    between atoms: C_1  and  C_2
REMARK    2  A    between atoms: C_5  and  C_6
REMARK    3  A    between atoms: C_6  and  S_7
REMARK    4  A    between atoms: S_7  and  C_8
REMARK    5  A    between atoms: C_8  and  C_9
REMARK    6  A    between atoms: C_9  and  N_10
REMARK    7  A    between atoms: C_11  and  C_13
REMARK                            x       y       z     vdW  Elec       q    Type
REMARK                         _______ _______ _______ _____ _____    ______ ____
ROOT
ATOM      1  N   UNL     1       3.618   4.830  19.665  0.00  0.00    +0.000 N 
ATOM      2  C   UNL     1       2.561   5.429  20.323  0.00  0.00    +0.000 C 
ATOM      3  O   UNL     1       1.943   4.857  21.216  0.00  0.00    +0.000 OA
ATOM      4  H   UNL     1       3.909   5.220  18.780  0.00  0.00    +0.000 HD
ENDROOT
BRANCH   2   5
ATOM      5  C   UNL     1       2.157   6.819  19.918  0.00  0.00    +0.000 A 
ATOM      6  C   UNL     1       2.500   7.203  18.568  0.00  0.00    +0.000 A 
ATOM      7  C   UNL     1       2.196   8.449  17.977  0.00  0.00    +0.000 A 
ATOM      8  C   UNL     1       1.524   9.258  18.877  0.00  0.00    +0.000 A 
ATOM      9  C   UNL     1       1.078  10.526  18.623  0.00  0.00    +0.000 A 
ATOM     10  N   UNL     1       0.481  10.918  19.785  0.00  0.00    +0.000 N 
ATOM     11  N   UNL     1       0.510   9.992  20.767  0.00  0.00    +0.000 NA
ATOM     12  C   UNL     1       1.152   8.941  20.231  0.00  0.00    +0.000 A 
ATOM     13  C   UNL     1       1.464   7.689  20.796  0.00  0.00    +0.000 A 
ATOM     14  H   UNL     1       0.030  11.806  19.981  0.00  0.00    +0.000 HD
ENDBRANCH   2   5
BRANCH   1  15
ATOM     15  C   UNL     1       3.942   3.420  19.861  0.00  0.00    +0.000 C 
BRANCH  15  16
ATOM     16  C   UNL     1       3.576   2.477  18.703  0.00  0.00    +0.000 C 
BRANCH  16  17
ATOM     17  S   UNL     1       3.236   3.488  17.213  0.00  0.00    +0.000 S 
BRANCH  17  18
ATOM     18  C   UNL     1       4.891   3.492  16.446  0.00  0.00    +0.000 C 
BRANCH  18  23
ATOM     19  C   UNL     1       7.922   8.287  17.832  0.00  0.00    +0.000 C 
ATOM     20  C   UNL     1       7.128   7.062  17.489  0.00  0.00    +0.000 A 
ATOM     21  C   UNL     1       5.896   7.159  16.834  0.00  0.00    +0.000 A 
ATOM     22  C   UNL     1       5.170   6.008  16.509  0.00  0.00    +0.000 A 
ATOM     23  C   UNL     1       5.659   4.735  16.837  0.00  0.00    +0.000 A 
ATOM     24  C   UNL     1       6.895   4.641  17.493  0.00  0.00    +0.000 A 
ATOM     25  C   UNL     1       7.620   5.793  17.819  0.00  0.00    +0.000 A 
ENDBRANCH  18  23
ENDBRANCH  17  18
ENDBRANCH  16  17
ENDBRANCH  15  16
ENDBRANCH   1  15
TORSDOF 6
ENDMDL
MODEL 2
REMARK VINA RESULT:      -6.9      1.826      2.363
REMARK  Name = 
REMARK  7 active torsions:
REMARK  status: ('A' for Active; 'I' for Inactive)
REMARK    1  A    between atoms: C_1  and  C_2
REMARK    2  A    between atoms: C_5  and  C_6
REMARK    3  A    between atoms: C_6  and  S_7
REMARK    4  A    between atoms: S_7  and  C_8
REMARK    5  A    between atoms: C_8  and  C_9
REMARK    6  A    between atoms: C_9  and  N_10
REMARK    7  A    between atoms: C_11  and  C_13
REMARK                            x       y       z     vdW  Elec       q    Type
REMARK                         _______ _______ _______ _____ _____    ______ ____
ROOT
ATOM      1  N   UNL     1       1.824   5.925  20.833  0.00  0.00    +0.000 N 
ATOM      2  C   UNL     1       2.049   7.085  20.116  0.00  0.00    +0.000 C 
ATOM      3  O   UNL     1       2.815   7.118  19.157  0.00  0.00    +0.000 OA
ATOM      4  H   UNL     1       1.412   6.007  21.752  0.00  0.00    +0.000 HD
ENDROOT
BRANCH   2   5
ATOM      5  C   UNL     1       1.338   8.340  20.539  0.00  0.00    +0.000 A 
ATOM      6  C   UNL     1       1.052   9.284  19.483  0.00  0.00    +0.000 A 
ATOM      7  C   UNL     1       0.375  10.511  19.654  0.00  0.00    +0.000 A 
ATOM      8  C   UNL     1       0.025  10.687  20.982  0.00  0.00    +0.000 A 
ATOM      9  C   UNL     1      -0.647  11.766  21.487  0.00  0.00    +0.000 A 
ATOM     10  N   UNL     1      -0.769  11.500  22.819  0.00  0.00    +0.000 N 
ATOM     11  N   UNL     1      -0.224  10.327  23.206  0.00  0.00    +0.000 NA
ATOM     12  C   UNL     1       0.278   9.793  22.080  0.00  0.00    +0.000 A 
ATOM     13  C   UNL     1       0.953   8.572  21.883  0.00  0.00    +0.000 A 
ATOM     14  H   UNL     1      -1.214  12.075  23.527  0.00  0.00    +0.000 HD
ENDBRANCH   2   5
BRANCH   1  15
ATOM     15  C   UNL     1       2.621   4.721  20.612  0.00  0.00    +0.000 C 
BRANCH  15  16
ATOM     16  C   UNL     1       2.012   3.676  19.662  0.00  0.00    +0.000 C 
BRANCH  16  17
ATOM     17  S   UNL     1       3.367   2.646  18.983  0.00  0.00    +0.000 S 
BRANCH  17  18
ATOM     18  C   UNL     1       3.598   3.451  17.364  0.00  0.00    +0.000 C 
BRANCH  18  23
ATOM     19  C   UNL     1       7.727   7.567  17.721  0.00  0.00    +0.000 C 
ATOM     20  C   UNL     1       6.682   6.495  17.626  0.00  0.00    +0.000 A 
ATOM     21  C   UNL     1       6.597   5.482  18.587  0.00  0.00    +0.000 A 
ATOM     22  C   UNL     1       5.610   4.494  18.494  0.00  0.00    +0.000 A 
ATOM     23  C   UNL     1       4.690   4.496  17.436  0.00  0.00    +0.000 A 
ATOM     24  C   UNL     1       4.777   5.514  16.475  0.00  0.00    +0.000 A 
ATOM     25  C   UNL     1       5.765   6.501  16.568  0.00  0.00    +0.000 A 
ENDBRANCH  18  23
ENDBRANCH  17  18
ENDBRANCH  16  17
ENDBRANCH  15  16
ENDBRANCH   1  15
TORSDOF 6
ENDMDL
MODEL 3
REMARK VINA RESULT:      -6.9      1.305      1.714
REMARK  Name = 
REMARK  7 active torsions:
REMARK  status: ('A' for Active; 'I' for Inactive)
REMARK    1  A    between atoms: C_1  and  C_2
REMARK    2  A    between atoms: C_5  and  C_6
REMARK    3  A    between atoms: C_6  and  S_7
REMARK    4  A    between atoms: S_7  and  C_8
REMARK    5  A    between atoms: C_8  and  C_9
REMARK    6  A    between atoms: C_9  and  N_10
REMARK    7  A    between atoms: C_11  and  C_13
REMARK                            x       y       z     vdW  Elec       q    Type
REMARK                         _______ _______ _______ _____ _____    ______ ____
ROOT
ATOM      1  N   UNL     1       1.167   4.337  19.591  0.00  0.00    +0.000 N 
ATOM      2  C   UNL     1       1.949   5.275  20.238  0.00  0.00    +0.000 C 
ATOM      3  O   UNL     1       2.671   4.977  21.185  0.00  0.00    +0.000 OA
ATOM      4  H   UNL     1       0.407   4.670  19.014  0.00  0.00    +0.000 HD
ENDROOT
BRANCH   2   5
ATOM      5  C   UNL     1       1.898   6.702  19.768  0.00  0.00    +0.000 A 
ATOM      6  C   UNL     1       2.456   6.951  18.459  0.00  0.00    +0.000 A 
ATOM      7  C   UNL     1       2.490   8.208  17.818  0.00  0.00    +0.000 A 
ATOM      8  C   UNL     1       1.917   9.176  18.624  0.00  0.00    +0.000 A 
ATOM      9  C   UNL     1       1.783  10.498  18.301  0.00  0.00    +0.000 A 
ATOM     10  N   UNL     1       1.165  11.054  19.382  0.00  0.00    +0.000 N 
ATOM     11  N   UNL     1       0.891  10.182  20.377  0.00  0.00    +0.000 NA
ATOM     12  C   UNL     1       1.345   8.999  19.932  0.00  0.00    +0.000 A 
ATOM     13  C   UNL     1       1.319   7.733  20.550  0.00  0.00    +0.000 A 
ATOM     14  H   UNL     1       0.897  12.024  19.512  0.00  0.00    +0.000 HD
ENDBRANCH   2   5
BRANCH   1  15
ATOM     15  C   UNL     1       1.010   2.981  20.109  0.00  0.00    +0.000 C 
BRANCH  15  16
ATOM     16  C   UNL     1       1.361   1.844  19.135  0.00  0.00    +0.000 C 
BRANCH  16  17
ATOM     17  S   UNL     1       2.349   2.538  17.758  0.00  0.00    +0.000 S 
BRANCH  17  18
ATOM     18  C   UNL     1       4.008   2.521  18.516  0.00  0.00    +0.000 C 
BRANCH  18  23
ATOM     19  C   UNL     1       6.812   7.487  17.258  0.00  0.00    +0.000 C 
ATOM     20  C   UNL     1       6.111   6.201  17.584  0.00  0.00    +0.000 A 
ATOM     21  C   UNL     1       6.203   5.632  18.857  0.00  0.00    +0.000 A 
ATOM     22  C   UNL     1       5.535   4.438  19.153  0.00  0.00    +0.000 A 
ATOM     23  C   UNL     1       4.763   3.788  18.180  0.00  0.00    +0.000 A 
ATOM     24  C   UNL     1       4.672   4.363  16.904  0.00  0.00    +0.000 A 
ATOM     25  C   UNL     1       5.342   5.556  16.609  0.00  0.00    +0.000 A 
ENDBRANCH  18  23
ENDBRANCH  17  18
ENDBRANCH  16  17
ENDBRANCH  15  16
ENDBRANCH   1  15
TORSDOF 6
ENDMDL
MODEL 4
REMARK VINA RESULT:      -6.9      3.490      7.996
REMARK  Name = 
REMARK  7 active torsions:
REMARK  status: ('A' for Active; 'I' for Inactive)
REMARK    1  A    between atoms: C_1  and  C_2
REMARK    2  A    between atoms: C_5  and  C_6
REMARK    3  A    between atoms: C_6  and  S_7
REMARK    4  A    between atoms: S_7  and  C_8
REMARK    5  A    between atoms: C_8  and  C_9
REMARK    6  A    between atoms: C_9  and  N_10
REMARK    7  A    between atoms: C_11  and  C_13
REMARK                            x       y       z     vdW  Elec       q    Type
REMARK                         _______ _______ _______ _____ _____    ______ ____
ROOT
ATOM      1  N   UNL     1       1.792   7.982  21.428  0.00  0.00    +0.000 N 
ATOM      2  C   UNL     1       2.034   7.457  20.173  0.00  0.00    +0.000 C 
ATOM      3  O   UNL     1       1.868   8.114  19.150  0.00  0.00    +0.000 OA
ATOM      4  H   UNL     1       1.682   7.339  22.199  0.00  0.00    +0.000 HD
ENDROOT
BRANCH   2   5
ATOM      5  C   UNL     1       2.505   6.033  20.069  0.00  0.00    +0.000 A 
ATOM      6  C   UNL     1       1.544   5.025  20.454  0.00  0.00    +0.000 A 
ATOM      7  C   UNL     1       1.769   3.632  20.412  0.00  0.00    +0.000 A 
ATOM      8  C   UNL     1       3.046   3.364  19.951  0.00  0.00    +0.000 A 
ATOM      9  C   UNL     1       3.582   2.117  19.784  0.00  0.00    +0.000 A 
ATOM     10  N   UNL     1       4.841   2.345  19.313  0.00  0.00    +0.000 N 
ATOM     11  N   UNL     1       5.152   3.651  19.165  0.00  0.00    +0.000 NA
ATOM     12  C   UNL     1       4.050   4.314  19.552  0.00  0.00    +0.000 A 
ATOM     13  C   UNL     1       3.800   5.700  19.601  0.00  0.00    +0.000 A 
ATOM     14  H   UNL     1       5.546   1.657  19.068  0.00  0.00    +0.000 HD
ENDBRANCH   2   5
BRANCH   1  15
ATOM     15  C   UNL     1       1.149   9.281  21.603  0.00  0.00    +0.000 C 
BRANCH  15  16
ATOM     16  C   UNL     1      -0.294   9.253  22.134  0.00  0.00    +0.000 C 
BRANCH  16  17
ATOM     17  S   UNL     1      -0.939  10.967  22.163  0.00  0.00    +0.000 S 
BRANCH  17  18
ATOM     18  C   UNL     1      -0.220  11.604  20.613  0.00  0.00    +0.000 C 
BRANCH  18  23
ATOM     19  C   UNL     1      -3.566  10.394  15.982  0.00  0.00    +0.000 C 
ATOM     20  C   UNL     1      -2.711  10.685  17.180  0.00  0.00    +0.000 A 
ATOM     21  C   UNL     1      -1.524   9.981  17.407  0.00  0.00    +0.000 A 
ATOM     22  C   UNL     1      -0.728  10.270  18.521  0.00  0.00    +0.000 A 
ATOM     23  C   UNL     1      -1.105  11.266  19.433  0.00  0.00    +0.000 A 
ATOM     24  C   UNL     1      -2.295  11.971  19.201  0.00  0.00    +0.000 A 
ATOM     25  C   UNL     1      -3.091  11.681  18.087  0.00  0.00    +0.000 A 
ENDBRANCH  18  23
ENDBRANCH  17  18
ENDBRANCH  16  17
ENDBRANCH  15  16
ENDBRANCH   1  15
TORSDOF 6
ENDMDL
MODEL 5
REMARK VINA RESULT:      -6.8      1.573      2.268
REMARK  Name = 
REMARK  7 active torsions:
REMARK  status: ('A' for Active; 'I' for Inactive)
REMARK    1  A    between atoms: C_1  and  C_2
REMARK    2  A    between atoms: C_5  and  C_6
REMARK    3  A    between atoms: C_6  and  S_7
REMARK    4  A    between atoms: S_7  and  C_8
REMARK    5  A    between atoms: C_8  and  C_9
REMARK    6  A    between atoms: C_9  and  N_10
REMARK    7  A    between atoms: C_11  and  C_13
REMARK                            x       y       z     vdW  Elec       q    Type
REMARK                         _______ _______ _______ _____ _____    ______ ____
ROOT
ATOM      1  N   UNL     1       1.185   4.304  19.822  0.00  0.00    +0.000 N 
ATOM      2  C   UNL     1       1.901   5.287  20.479  0.00  0.00    +0.000 C 
ATOM      3  O   UNL     1       2.645   5.030  21.421  0.00  0.00    +0.000 OA
ATOM      4  H   UNL     1       0.402   4.588  19.252  0.00  0.00    +0.000 HD
ENDROOT
BRANCH   2   5
ATOM      5  C   UNL     1       1.748   6.712  20.025  0.00  0.00    +0.000 A 
ATOM      6  C   UNL     1       1.139   7.611  20.978  0.00  0.00    +0.000 A 
ATOM      7  C   UNL     1       0.922   8.990  20.767  0.00  0.00    +0.000 A 
ATOM      8  C   UNL     1       1.372   9.363  19.512  0.00  0.00    +0.000 A 
ATOM      9  C   UNL     1       1.317  10.627  18.994  0.00  0.00    +0.000 A 
ATOM     10  N   UNL     1       1.872  10.513  17.754  0.00  0.00    +0.000 N 
ATOM     11  N   UNL     1       2.280   9.266  17.438  0.00  0.00    +0.000 NA
ATOM     12  C   UNL     1       1.985   8.523  18.517  0.00  0.00    +0.000 A 
ATOM     13  C   UNL     1       2.194   7.150  18.753  0.00  0.00    +0.000 A 
ATOM     14  H   UNL     1       2.007  11.247  17.065  0.00  0.00    +0.000 HD
ENDBRANCH   2   5
BRANCH   1  15
ATOM     15  C   UNL     1       1.126   2.935  20.325  0.00  0.00    +0.000 C 
BRANCH  15  16
ATOM     16  C   UNL     1       1.211   1.824  19.265  0.00  0.00    +0.000 C 
BRANCH  16  17
ATOM     17  S   UNL     1       2.151   2.460  17.827  0.00  0.00    +0.000 S 
BRANCH  17  18
ATOM     18  C   UNL     1       3.844   2.396  18.501  0.00  0.00    +0.000 C 
BRANCH  18  23
ATOM     19  C   UNL     1       6.643   7.370  17.263  0.00  0.00    +0.000 C 
ATOM     20  C   UNL     1       5.943   6.083  17.585  0.00  0.00    +0.000 A 
ATOM     21  C   UNL     1       5.968   5.553  18.878  0.00  0.00    +0.000 A 
ATOM     22  C   UNL     1       5.301   4.357  19.170  0.00  0.00    +0.000 A 
ATOM     23  C   UNL     1       4.599   3.666  18.172  0.00  0.00    +0.000 A 
ATOM     24  C   UNL     1       4.576   4.202  16.876  0.00  0.00    +0.000 A 
ATOM     25  C   UNL     1       5.244   5.397  16.585  0.00  0.00    +0.000 A 
ENDBRANCH  18  23
ENDBRANCH  17  18
ENDBRANCH  16  17
ENDBRANCH  15  16
ENDBRANCH   1  15
TORSDOF 6
ENDMDL
MODEL 6
REMARK VINA RESULT:      -6.8      4.139      6.755
REMARK  Name = 
REMARK  7 active torsions:
REMARK  status: ('A' for Active; 'I' for Inactive)
REMARK    1  A    between atoms: C_1  and  C_2
REMARK    2  A    between atoms: C_5  and  C_6
REMARK    3  A    between atoms: C_6  and  S_7
REMARK    4  A    between atoms: S_7  and  C_8
REMARK    5  A    between atoms: C_8  and  C_9
REMARK    6  A    between atoms: C_9  and  N_10
REMARK    7  A    between atoms: C_11  and  C_13
REMARK                            x       y       z     vdW  Elec       q    Type
REMARK                         _______ _______ _______ _____ _____    ______ ____
ROOT
ATOM      1  N   UNL     1       6.074   6.178  18.047  0.00  0.00    +0.000 N 
ATOM      2  C   UNL     1       5.163   5.410  17.346  0.00  0.00    +0.000 C 
ATOM      3  O   UNL     1       5.230   5.272  16.128  0.00  0.00    +0.000 OA
ATOM      4  H   UNL     1       5.826   6.476  18.979  0.00  0.00    +0.000 HD
ENDROOT
BRANCH   2   5
ATOM      5  C   UNL     1       4.055   4.737  18.107  0.00  0.00    +0.000 A 
ATOM      6  C   UNL     1       2.766   4.723  17.455  0.00  0.00    +0.000 A 
ATOM      7  C   UNL     1       1.599   4.126  17.980  0.00  0.00    +0.000 A 
ATOM      8  C   UNL     1       1.862   3.557  19.214  0.00  0.00    +0.000 A 
ATOM      9  C   UNL     1       0.952   2.893  19.990  0.00  0.00    +0.000 A 
ATOM     10  N   UNL     1       1.656   2.512  21.094  0.00  0.00    +0.000 N 
ATOM     11  N   UNL     1       2.955   2.883  21.082  0.00  0.00    +0.000 NA
ATOM     12  C   UNL     1       3.116   3.535  19.918  0.00  0.00    +0.000 A 
ATOM     13  C   UNL     1       4.268   4.135  19.372  0.00  0.00    +0.000 A 
ATOM     14  H   UNL     1       1.316   1.994  21.897  0.00  0.00    +0.000 HD
ENDBRANCH   2   5
BRANCH   1  15
ATOM     15  C   UNL     1       7.053   7.018  17.363  0.00  0.00    +0.000 C 
BRANCH  15  16
ATOM     16  C   UNL     1       8.156   7.624  18.248  0.00  0.00    +0.000 C 
BRANCH  16  17
ATOM     17  S   UNL     1       8.264   9.419  17.899  0.00  0.00    +0.000 S 
BRANCH  17  18
ATOM     18  C   UNL     1       9.257   9.962  19.329  0.00  0.00    +0.000 C 
BRANCH  18  23
ATOM     19  C   UNL     1      12.323  14.760  18.030  0.00  0.00    +0.000 C 
ATOM     20  C   UNL     1      11.554  13.516  18.364  0.00  0.00    +0.000 A 
ATOM     21  C   UNL     1      11.730  12.866  19.589  0.00  0.00    +0.000 A 
ATOM     22  C   UNL     1      10.998  11.713  19.894  0.00  0.00    +0.000 A 
ATOM     23  C   UNL     1      10.077  11.184  18.978  0.00  0.00    +0.000 A 
ATOM     24  C   UNL     1       9.902  11.840  17.751  0.00  0.00    +0.000 A 
ATOM     25  C   UNL     1      10.636  12.992  17.446  0.00  0.00    +0.000 A 
ENDBRANCH  18  23
ENDBRANCH  17  18
ENDBRANCH  16  17
ENDBRANCH  15  16
ENDBRANCH   1  15
TORSDOF 6
ENDMDL
MODEL 7
REMARK VINA RESULT:      -6.8      3.926      6.477
REMARK  Name = 
REMARK  7 active torsions:
REMARK  status: ('A' for Active; 'I' for Inactive)
REMARK    1  A    between atoms: C_1  and  C_2
REMARK    2  A    between atoms: C_5  and  C_6
REMARK    3  A    between atoms: C_6  and  S_7
REMARK    4  A    between atoms: S_7  and  C_8
REMARK    5  A    between atoms: C_8  and  C_9
REMARK    6  A    between atoms: C_9  and  N_10
REMARK    7  A    between atoms: C_11  and  C_13
REMARK                            x       y       z     vdW  Elec       q    Type
REMARK                         _______ _______ _______ _____ _____    ______ ____
ROOT
ATOM      1  N   UNL     1       6.068   6.051  17.628  0.00  0.00    +0.000 N 
ATOM      2  C   UNL     1       5.787   5.269  18.732  0.00  0.00    +0.000 C 
ATOM      3  O   UNL     1       6.608   5.087  19.626  0.00  0.00    +0.000 OA
ATOM      4  H   UNL     1       5.479   5.951  16.813  0.00  0.00    +0.000 HD
ENDROOT
BRANCH   2   5
ATOM      5  C   UNL     1       4.434   4.619  18.827  0.00  0.00    +0.000 A 
ATOM      6  C   UNL     1       4.078   3.750  17.729  0.00  0.00    +0.000 A 
ATOM      7  C   UNL     1       2.871   3.025  17.628  0.00  0.00    +0.000 A 
ATOM      8  C   UNL     1       2.069   3.267  18.730  0.00  0.00    +0.000 A 
ATOM      9  C   UNL     1       0.837   2.717  18.949  0.00  0.00    +0.000 A 
ATOM     10  N   UNL     1       0.438   3.235  20.146  0.00  0.00    +0.000 N 
ATOM     11  N   UNL     1       1.328   4.078  20.713  0.00  0.00    +0.000 NA
ATOM     12  C   UNL     1       2.360   4.117  19.854  0.00  0.00    +0.000 A 
ATOM     13  C   UNL     1       3.574   4.828  19.934  0.00  0.00    +0.000 A 
ATOM     14  H   UNL     1      -0.431   3.057  20.640  0.00  0.00    +0.000 HD
ENDBRANCH   2   5
BRANCH   1  15
ATOM     15  C   UNL     1       7.415   6.551  17.366  0.00  0.00    +0.000 C 
BRANCH  15  16
ATOM     16  C   UNL     1       8.035   7.425  18.469  0.00  0.00    +0.000 C 
BRANCH  16  17
ATOM     17  S   UNL     1       8.176   9.141  17.843  0.00  0.00    +0.000 S 
BRANCH  17  18
ATOM     18  C   UNL     1       9.113   9.902  19.211  0.00  0.00    +0.000 C 
BRANCH  18  23
ATOM     19  C   UNL     1      11.212  15.153  17.754  0.00  0.00    +0.000 C 
ATOM     20  C   UNL     1      10.662  13.804  18.109  0.00  0.00    +0.000 A 
ATOM     21  C   UNL     1      11.005  12.667  17.371  0.00  0.00    +0.000 A 
ATOM     22  C   UNL     1      10.495  11.412  17.719  0.00  0.00    +0.000 A 
ATOM     23  C   UNL     1       9.628  11.267  18.811  0.00  0.00    +0.000 A 
ATOM     24  C   UNL     1       9.287  12.410  19.551  0.00  0.00    +0.000 A 
ATOM     25  C   UNL     1       9.797  13.665  19.201  0.00  0.00    +0.000 A 
ENDBRANCH  18  23
ENDBRANCH  17  18
ENDBRANCH  16  17
ENDBRANCH  15  16
ENDBRANCH   1  15
TORSDOF 6
ENDMDL
MODEL 8
REMARK VINA RESULT:      -6.8      3.378      7.706
REMARK  Name = 
REMARK  7 active torsions:
REMARK  status: ('A' for Active; 'I' for Inactive)
REMARK    1  A    between atoms: C_1  and  C_2
REMARK    2  A    between atoms: C_5  and  C_6
REMARK    3  A    between atoms: C_6  and  S_7
REMARK    4  A    between atoms: S_7  and  C_8
REMARK    5  A    between atoms: C_8  and  C_9
REMARK    6  A    between atoms: C_9  and  N_10
REMARK    7  A    between atoms: C_11  and  C_13
REMARK                            x       y       z     vdW  Elec       q    Type
REMARK                         _______ _______ _______ _____ _____    ______ ____
ROOT
ATOM      1  N   UNL     1       2.182   7.653  20.107  0.00  0.00    +0.000 N 
ATOM      2  C   UNL     1       2.284   6.307  19.812  0.00  0.00    +0.000 C 
ATOM      3  O   UNL     1       1.656   5.455  20.433  0.00  0.00    +0.000 OA
ATOM      4  H   UNL     1       2.902   8.271  19.762  0.00  0.00    +0.000 HD
ENDROOT
BRANCH   2   5
ATOM      5  C   UNL     1       3.203   5.883  18.700  0.00  0.00    +0.000 A 
ATOM      6  C   UNL     1       3.500   4.470  18.637  0.00  0.00    +0.000 A 
ATOM      7  C   UNL     1       4.319   3.857  17.664  0.00  0.00    +0.000 A 
ATOM      8  C   UNL     1       4.804   4.802  16.777  0.00  0.00    +0.000 A 
ATOM      9  C   UNL     1       5.621   4.542  15.711  0.00  0.00    +0.000 A 
ATOM     10  N   UNL     1       5.829   5.761  15.134  0.00  0.00    +0.000 N 
ATOM     11  N   UNL     1       5.203   6.785  15.753  0.00  0.00    +0.000 NA
ATOM     12  C   UNL     1       4.551   6.218  16.782  0.00  0.00    +0.000 A 
ATOM     13  C   UNL     1       3.727   6.807  17.762  0.00  0.00    +0.000 A 
ATOM     14  H   UNL     1       6.387   5.970  14.313  0.00  0.00    +0.000 HD
ENDBRANCH   2   5
BRANCH   1  15
ATOM     15  C   UNL     1       1.469   8.125  21.291  0.00  0.00    +0.000 C 
BRANCH  15  16
ATOM     16  C   UNL     1       0.197   8.948  21.028  0.00  0.00    +0.000 C 
BRANCH  16  17
ATOM     17  S   UNL     1       0.684  10.563  20.312  0.00  0.00    +0.000 S 
BRANCH  17  18
ATOM     18  C   UNL     1      -0.948  11.368  20.203  0.00  0.00    +0.000 C 
BRANCH  18  23
ATOM     19  C   UNL     1      -3.497  10.149  15.091  0.00  0.00    +0.000 C 
ATOM     20  C   UNL     1      -2.846  10.442  16.411  0.00  0.00    +0.000 A 
ATOM     21  C   UNL     1      -1.657   9.808  16.785  0.00  0.00    +0.000 A 
ATOM     22  C   UNL     1      -1.052  10.099  18.013  0.00  0.00    +0.000 A 
ATOM     23  C   UNL     1      -1.627  11.026  18.895  0.00  0.00    +0.000 A 
ATOM     24  C   UNL     1      -2.819  11.660  18.515  0.00  0.00    +0.000 A 
ATOM     25  C   UNL     1      -3.423  11.368  17.287  0.00  0.00    +0.000 A 
ENDBRANCH  18  23
ENDBRANCH  17  18
ENDBRANCH  16  17
ENDBRANCH  15  16
ENDBRANCH   1  15
TORSDOF 6
ENDMDL
MODEL 9
REMARK VINA RESULT:      -6.8      3.060      6.352
REMARK  Name = 
REMARK  7 active torsions:
REMARK  status: ('A' for Active; 'I' for Inactive)
REMARK    1  A    between atoms: C_1  and  C_2
REMARK    2  A    between atoms: C_5  and  C_6
REMARK    3  A    between atoms: C_6  and  S_7
REMARK    4  A    between atoms: S_7  and  C_8
REMARK    5  A    between atoms: C_8  and  C_9
REMARK    6  A    between atoms: C_9  and  N_10
REMARK    7  A    between atoms: C_11  and  C_13
REMARK                            x       y       z     vdW  Elec       q    Type
REMARK                         _______ _______ _______ _____ _____    ______ ____
ROOT
ATOM      1  N   UNL     1       4.338   2.929  18.733  0.00  0.00    +0.000 N 
ATOM      2  C   UNL     1       5.166   4.022  18.559  0.00  0.00    +0.000 C 
ATOM      3  O   UNL     1       5.433   4.788  19.479  0.00  0.00    +0.000 OA
ATOM      4  H   UNL     1       3.940   2.499  17.910  0.00  0.00    +0.000 HD
ENDROOT
BRANCH   2   5
ATOM      5  C   UNL     1       5.741   4.276  17.193  0.00  0.00    +0.000 A 
ATOM      6  C   UNL     1       6.852   5.199  17.143  0.00  0.00    +0.000 A 
ATOM      7  C   UNL     1       7.553   5.561  15.973  0.00  0.00    +0.000 A 
ATOM      8  C   UNL     1       7.023   4.910  14.872  0.00  0.00    +0.000 A 
ATOM      9  C   UNL     1       7.473   5.033  13.587  0.00  0.00    +0.000 A 
ATOM     10  N   UNL     1       6.661   4.213  12.860  0.00  0.00    +0.000 N 
ATOM     11  N   UNL     1       5.721   3.572  13.587  0.00  0.00    +0.000 NA
ATOM     12  C   UNL     1       5.923   3.983  14.850  0.00  0.00    +0.000 A 
ATOM     13  C   UNL     1       5.241   3.635  16.033  0.00  0.00    +0.000 A 
ATOM     14  H   UNL     1       6.690   4.040  11.860  0.00  0.00    +0.000 HD
ENDBRANCH   2   5
BRANCH   1  15
ATOM     15  C   UNL     1       3.587   2.727  19.969  0.00  0.00    +0.000 C 
BRANCH  15  16
ATOM     16  C   UNL     1       2.128   2.270  19.803  0.00  0.00    +0.000 C 
BRANCH  16  17
ATOM     17  S   UNL     1       1.026   3.674  20.218  0.00  0.00    +0.000 S 
BRANCH  17  18
ATOM     18  C   UNL     1       2.256   4.873  20.831  0.00  0.00    +0.000 C 
BRANCH  18  23
ATOM     19  C   UNL     1       1.709   9.892  17.897  0.00  0.00    +0.000 C 
ATOM     20  C   UNL     1       1.865   8.612  18.662  0.00  0.00    +0.000 A 
ATOM     21  C   UNL     1       1.572   8.547  20.028  0.00  0.00    +0.000 A 
ATOM     22  C   UNL     1       1.710   7.344  20.729  0.00  0.00    +0.000 A 
ATOM     23  C   UNL     1       2.148   6.181  20.079  0.00  0.00    +0.000 A 
ATOM     24  C   UNL     1       2.441   6.250  18.709  0.00  0.00    +0.000 A 
ATOM     25  C   UNL     1       2.303   7.454  18.009  0.00  0.00    +0.000 A 
ENDBRANCH  18  23
ENDBRANCH  17  18
ENDBRANCH  16  17
ENDBRANCH  15  16
ENDBRANCH   1  15
TORSDOF 6
ENDMDL
