MODEL 1
REMARK VINA RESULT:      -8.9      0.000      0.000
REMARK  Name = 
REMARK  5 active torsions:
REMARK  status: ('A' for Active; 'I' for Inactive)
REMARK    1  A    between atoms: N_1  and  S_2
REMARK    2  A    between atoms: S_2  and  C_5
REMARK    3  A    between atoms: C_9  and  N_10
REMARK    4  A    between atoms: C_11  and  C_13
REMARK    5  A    between atoms: C_17  and  N_18
REMARK                            x       y       z     vdW  Elec       q    Type
REMARK                         _______ _______ _______ _____ _____    ______ ____
ROOT
ATOM      1  C   UNL     1       1.370   9.712  19.087  0.00  0.00    +0.000 A 
ATOM      2  C   UNL     1       2.048  10.715  18.388  0.00  0.00    +0.000 A 
ATOM      3  C   UNL     1       1.582  12.017  18.432  0.00  0.00    +0.000 A 
ATOM      4  C   UNL     1       0.452  12.323  19.190  0.00  0.00    +0.000 A 
ATOM      5  C   UNL     1      -0.241  11.347  19.933  0.00  0.00    +0.000 A 
ATOM      6  C   UNL     1       0.229  10.024  19.847  0.00  0.00    +0.000 A 
ENDROOT
BRANCH   5   7
ATOM      7  N   UNL     1      -1.340  11.713  20.776  0.00  0.00    +0.000 N 
ATOM      8  C   UNL     1      -2.566  12.154  20.315  0.00  0.00    +0.000 C 
ATOM      9  O   UNL     1      -3.011  12.329  19.193  0.00  0.00    +0.000 OA
ATOM     10  C   UNL     1      -3.382  12.471  21.473  0.00  0.00    +0.000 A 
ATOM     11  C   UNL     1      -4.679  12.944  21.527  0.00  0.00    +0.000 A 
ATOM     12  C   UNL     1      -5.201  13.228  22.787  0.00  0.00    +0.000 A 
ATOM     13  C   UNL     1      -4.419  13.042  23.944  0.00  0.00    +0.000 A 
ATOM     14  C   UNL     1      -3.112  12.544  23.860  0.00  0.00    +0.000 A 
ATOM     15  C   UNL     1      -2.619  12.257  22.597  0.00  0.00    +0.000 A 
ATOM     16  C   UNL     1      -1.324  11.737  22.160  0.00  0.00    +0.000 C 
ATOM     17  O   UNL     1      -0.471  11.410  22.966  0.00  0.00    +0.000 OA
ENDBRANCH   5   7
BRANCH   1  19
ATOM     18  N   UNL     1       2.689   7.983  17.966  0.00  0.00    +0.000 N 
ATOM     19  C   UNL     1       1.984   8.359  19.098  0.00  0.00    +0.000 C 
ATOM     20  O   UNL     1       1.855   7.695  20.122  0.00  0.00    +0.000 OA
ATOM     21  H   UNL     1       2.932   8.706  17.297  0.00  0.00    +0.000 HD
BRANCH  18  26
ATOM     22  C   UNL     1       5.126   5.325  17.111  0.00  0.00    +0.000 A 
ATOM     23  C   UNL     1       4.375   4.161  17.296  0.00  0.00    +0.000 A 
ATOM     24  C   UNL     1       3.054   4.264  17.705  0.00  0.00    +0.000 A 
ATOM     25  C   UNL     1       2.493   5.523  17.932  0.00  0.00    +0.000 A 
ATOM     26  C   UNL     1       3.236   6.697  17.747  0.00  0.00    +0.000 A 
ATOM     27  C   UNL     1       4.562   6.595  17.306  0.00  0.00    +0.000 A 
BRANCH  22  28
ATOM     28  S   UNL     1       6.810   5.163  16.602  0.00  0.00    +0.000 S 
ATOM     29  O   UNL     1       7.431   6.467  16.581  0.00  0.00    +0.000 OA
ATOM     30  O   UNL     1       6.887   4.249  15.487  0.00  0.00    +0.000 OA
BRANCH  28  31
ATOM     31  N   UNL     1       7.479   4.347  17.909  0.00  0.00    +0.000 NA
ATOM     32  H   UNL     1       8.420   4.695  18.089  0.00  0.00    +0.000 HD
ATOM     33  H   UNL     1       7.431   3.339  17.761  0.00  0.00    +0.000 HD
ENDBRANCH  28  31
ENDBRANCH  22  28
ENDBRANCH  18  26
ENDBRANCH   1  19
TORSDOF 5
ENDMDL
MODEL 2
REMARK VINA RESULT:      -8.8      1.775      2.392
REMARK  Name = 
REMARK  5 active torsions:
REMARK  status: ('A' for Active; 'I' for Inactive)
REMARK    1  A    between atoms: N_1  and  S_2
REMARK    2  A    between atoms: S_2  and  C_5
REMARK    3  A    between atoms: C_9  and  N_10
REMARK    4  A    between atoms: C_11  and  C_13
REMARK    5  A    between atoms: C_17  and  N_18
REMARK                            x       y       z     vdW  Elec       q    Type
REMARK                         _______ _______ _______ _____ _____    ______ ____
ROOT
ATOM      1  C   UNL     1       1.266   9.997  18.574  0.00  0.00    +0.000 A 
ATOM      2  C   UNL     1       2.094  11.123  18.558  0.00  0.00    +0.000 A 
ATOM      3  C   UNL     1       1.532  12.387  18.491  0.00  0.00    +0.000 A 
ATOM      4  C   UNL     1       0.144  12.527  18.461  0.00  0.00    +0.000 A 
ATOM      5  C   UNL     1      -0.724  11.418  18.508  0.00  0.00    +0.000 A 
ATOM      6  C   UNL     1      -0.132  10.142  18.541  0.00  0.00    +0.000 A 
ENDROOT
BRANCH   5   7
ATOM      7  N   UNL     1      -2.143  11.602  18.573  0.00  0.00    +0.000 N 
ATOM      8  C   UNL     1      -3.011  11.358  17.525  0.00  0.00    +0.000 C 
ATOM      9  O   UNL     1      -2.838  10.957  16.387  0.00  0.00    +0.000 OA
ATOM     10  C   UNL     1      -4.346  11.715  17.971  0.00  0.00    +0.000 A 
ATOM     11  C   UNL     1      -5.545  11.646  17.286  0.00  0.00    +0.000 A 
ATOM     12  C   UNL     1      -6.680  12.121  17.941  0.00  0.00    +0.000 A 
ATOM     13  C   UNL     1      -6.585  12.653  19.242  0.00  0.00    +0.000 A 
ATOM     14  C   UNL     1      -5.358  12.693  19.918  0.00  0.00    +0.000 A 
ATOM     15  C   UNL     1      -4.246  12.203  19.252  0.00  0.00    +0.000 A 
ATOM     16  C   UNL     1      -2.845  12.100  19.657  0.00  0.00    +0.000 C 
ATOM     17  O   UNL     1      -2.487  12.417  20.776  0.00  0.00    +0.000 OA
ENDBRANCH   5   7
BRANCH   1  19
ATOM     18  N   UNL     1       2.650   8.180  17.697  0.00  0.00    +0.000 N 
ATOM     19  C   UNL     1       1.922   8.677  18.765  0.00  0.00    +0.000 C 
ATOM     20  O   UNL     1       1.803   8.149  19.867  0.00  0.00    +0.000 OA
ATOM     21  H   UNL     1       2.877   8.816  16.941  0.00  0.00    +0.000 HD
BRANCH  18  26
ATOM     22  C   UNL     1       5.165   5.508  17.177  0.00  0.00    +0.000 A 
ATOM     23  C   UNL     1       4.460   4.358  17.542  0.00  0.00    +0.000 A 
ATOM     24  C   UNL     1       3.142   4.475  17.960  0.00  0.00    +0.000 A 
ATOM     25  C   UNL     1       2.541   5.735  18.017  0.00  0.00    +0.000 A 
ATOM     26  C   UNL     1       3.239   6.894  17.652  0.00  0.00    +0.000 A 
ATOM     27  C   UNL     1       4.560   6.774  17.202  0.00  0.00    +0.000 A 
BRANCH  22  28
ATOM     28  S   UNL     1       6.846   5.330  16.661  0.00  0.00    +0.000 S 
ATOM     29  O   UNL     1       7.504   6.615  16.725  0.00  0.00    +0.000 OA
ATOM     30  O   UNL     1       6.900   4.489  15.489  0.00  0.00    +0.000 OA
BRANCH  28  31
ATOM     31  N   UNL     1       7.487   4.413  17.913  0.00  0.00    +0.000 NA
ATOM     32  H   UNL     1       6.796   4.312  18.656  0.00  0.00    +0.000 HD
ATOM     33  H   UNL     1       8.375   4.807  18.224  0.00  0.00    +0.000 HD
ENDBRANCH  28  31
ENDBRANCH  22  28
ENDBRANCH  18  26
ENDBRANCH   1  19
TORSDOF 5
ENDMDL
MODEL 3
REMARK VINA RESULT:      -8.8      0.710      1.792
REMARK  Name = 
REMARK  5 active torsions:
REMARK  status: ('A' for Active; 'I' for Inactive)
REMARK    1  A    between atoms: N_1  and  S_2
REMARK    2  A    between atoms: S_2  and  C_5
REMARK    3  A    between atoms: C_9  and  N_10
REMARK    4  A    between atoms: C_11  and  C_13
REMARK    5  A    between atoms: C_17  and  N_18
REMARK                            x       y       z     vdW  Elec       q    Type
REMARK                         _______ _______ _______ _____ _____    ______ ____
ROOT
ATOM      1  C   UNL     1       1.194   9.814  19.231  0.00  0.00    +0.000 A 
ATOM      2  C   UNL     1       1.889  10.788  18.509  0.00  0.00    +0.000 A 
ATOM      3  C   UNL     1       1.447  12.099  18.522  0.00  0.00    +0.000 A 
ATOM      4  C   UNL     1       0.324  12.443  19.275  0.00  0.00    +0.000 A 
ATOM      5  C   UNL     1      -0.385  11.497  20.042  0.00  0.00    +0.000 A 
ATOM      6  C   UNL     1       0.061  10.164  19.986  0.00  0.00    +0.000 A 
ENDROOT
BRANCH   5   7
ATOM      7  N   UNL     1      -1.476  11.902  20.878  0.00  0.00    +0.000 N 
ATOM      8  C   UNL     1      -1.446  11.893  22.260  0.00  0.00    +0.000 C 
ATOM      9  O   UNL     1      -0.584  11.582  23.064  0.00  0.00    +0.000 OA
ATOM     10  C   UNL     1      -2.752  12.319  22.729  0.00  0.00    +0.000 A 
ATOM     11  C   UNL     1      -3.210  12.471  24.024  0.00  0.00    +0.000 A 
ATOM     12  C   UNL     1      -4.546  12.835  24.188  0.00  0.00    +0.000 A 
ATOM     13  C   UNL     1      -5.378  13.025  23.067  0.00  0.00    +0.000 A 
ATOM     14  C   UNL     1      -4.880  12.881  21.765  0.00  0.00    +0.000 A 
ATOM     15  C   UNL     1      -3.547  12.532  21.627  0.00  0.00    +0.000 A 
ATOM     16  C   UNL     1      -2.726  12.302  20.439  0.00  0.00    +0.000 C 
ATOM     17  O   UNL     1      -3.173  12.476  19.320  0.00  0.00    +0.000 OA
ENDBRANCH   5   7
BRANCH   1  19
ATOM     18  N   UNL     1       2.404   8.002  18.117  0.00  0.00    +0.000 N 
ATOM     19  C   UNL     1       1.783   8.450  19.272  0.00  0.00    +0.000 C 
ATOM     20  O   UNL     1       1.712   7.843  20.336  0.00  0.00    +0.000 OA
ATOM     21  H   UNL     1       2.613   8.684  17.397  0.00  0.00    +0.000 HD
BRANCH  18  26
ATOM     22  C   UNL     1       4.788   5.247  17.441  0.00  0.00    +0.000 A 
ATOM     23  C   UNL     1       3.975   4.115  17.548  0.00  0.00    +0.000 A 
ATOM     24  C   UNL     1       2.630   4.273  17.845  0.00  0.00    +0.000 A 
ATOM     25  C   UNL     1       2.106   5.553  18.038  0.00  0.00    +0.000 A 
ATOM     26  C   UNL     1       2.912   6.695  17.931  0.00  0.00    +0.000 A 
ATOM     27  C   UNL     1       4.264   6.539  17.602  0.00  0.00    +0.000 A 
BRANCH  22  28
ATOM     28  S   UNL     1       6.501   5.016  17.074  0.00  0.00    +0.000 S 
ATOM     29  O   UNL     1       7.172   4.488  18.240  0.00  0.00    +0.000 OA
ATOM     30  O   UNL     1       6.995   6.162  16.348  0.00  0.00    +0.000 OA
BRANCH  28  31
ATOM     31  N   UNL     1       6.440   3.760  15.961  0.00  0.00    +0.000 NA
ATOM     32  H   UNL     1       5.623   3.870  15.361  0.00  0.00    +0.000 HD
ATOM     33  H   UNL     1       6.487   2.860  16.437  0.00  0.00    +0.000 HD
ENDBRANCH  28  31
ENDBRANCH  22  28
ENDBRANCH  18  26
ENDBRANCH   1  19
TORSDOF 5
ENDMDL
MODEL 4
REMARK VINA RESULT:      -8.7      1.867      2.788
REMARK  Name = 
REMARK  5 active torsions:
REMARK  status: ('A' for Active; 'I' for Inactive)
REMARK    1  A    between atoms: N_1  and  S_2
REMARK    2  A    between atoms: S_2  and  C_5
REMARK    3  A    between atoms: C_9  and  N_10
REMARK    4  A    between atoms: C_11  and  C_13
REMARK    5  A    between atoms: C_17  and  N_18
REMARK                            x       y       z     vdW  Elec       q    Type
REMARK                         _______ _______ _______ _____ _____    ______ ____
ROOT
ATOM      1  C   UNL     1       0.945  10.329  18.656  0.00  0.00    +0.000 A 
ATOM      2  C   UNL     1       1.738  11.479  18.616  0.00  0.00    +0.000 A 
ATOM      3  C   UNL     1       1.139  12.724  18.534  0.00  0.00    +0.000 A 
ATOM      4  C   UNL     1      -0.253  12.823  18.513  0.00  0.00    +0.000 A 
ATOM      5  C   UNL     1      -1.087  11.689  18.583  0.00  0.00    +0.000 A 
ATOM      6  C   UNL     1      -0.457  10.433  18.632  0.00  0.00    +0.000 A 
ENDROOT
BRANCH   5   7
ATOM      7  N   UNL     1      -2.511  11.832  18.657  0.00  0.00    +0.000 N 
ATOM      8  C   UNL     1      -3.193  12.296  19.765  0.00  0.00    +0.000 C 
ATOM      9  O   UNL     1      -2.823  12.677  20.862  0.00  0.00    +0.000 OA
ATOM     10  C   UNL     1      -4.612  12.240  19.460  0.00  0.00    +0.000 A 
ATOM     11  C   UNL     1      -5.691  12.599  20.247  0.00  0.00    +0.000 A 
ATOM     12  C   UNL     1      -6.962  12.377  19.721  0.00  0.00    +0.000 A 
ATOM     13  C   UNL     1      -7.119  11.802  18.444  0.00  0.00    +0.000 A 
ATOM     14  C   UNL     1      -6.006  11.466  17.663  0.00  0.00    +0.000 A 
ATOM     15  C   UNL     1      -4.752  11.707  18.201  0.00  0.00    +0.000 A 
ATOM     16  C   UNL     1      -3.410  11.477  17.666  0.00  0.00    +0.000 C 
ATOM     17  O   UNL     1      -3.245  11.056  16.535  0.00  0.00    +0.000 OA
ENDBRANCH   5   7
BRANCH   1  19
ATOM     18  N   UNL     1       2.356   8.529  17.789  0.00  0.00    +0.000 N 
ATOM     19  C   UNL     1       1.641   9.032  18.863  0.00  0.00    +0.000 C 
ATOM     20  O   UNL     1       1.564   8.529  19.979  0.00  0.00    +0.000 OA
ATOM     21  H   UNL     1       2.547   9.151  17.012  0.00  0.00    +0.000 HD
BRANCH  18  26
ATOM     22  C   UNL     1       4.946   5.920  17.320  0.00  0.00    +0.000 A 
ATOM     23  C   UNL     1       4.265   4.754  17.683  0.00  0.00    +0.000 A 
ATOM     24  C   UNL     1       2.940   4.840  18.082  0.00  0.00    +0.000 A 
ATOM     25  C   UNL     1       2.305   6.084  18.123  0.00  0.00    +0.000 A 
ATOM     26  C   UNL     1       2.978   7.258  17.760  0.00  0.00    +0.000 A 
ATOM     27  C   UNL     1       4.308   7.170  17.328  0.00  0.00    +0.000 A 
BRANCH  22  28
ATOM     28  S   UNL     1       6.638   5.782  16.827  0.00  0.00    +0.000 S 
ATOM     29  O   UNL     1       7.443   6.670  17.634  0.00  0.00    +0.000 OA
ATOM     30  O   UNL     1       6.716   5.759  15.385  0.00  0.00    +0.000 OA
BRANCH  28  31
ATOM     31  N   UNL     1       7.009   4.224  17.331  0.00  0.00    +0.000 NA
ATOM     32  H   UNL     1       6.824   4.131  18.329  0.00  0.00    +0.000 HD
ATOM     33  H   UNL     1       7.962   3.981  17.061  0.00  0.00    +0.000 HD
ENDBRANCH  28  31
ENDBRANCH  22  28
ENDBRANCH  18  26
ENDBRANCH   1  19
TORSDOF 5
ENDMDL
MODEL 5
REMARK VINA RESULT:      -8.5      2.717      4.035
REMARK  Name = 
REMARK  5 active torsions:
REMARK  status: ('A' for Active; 'I' for Inactive)
REMARK    1  A    between atoms: N_1  and  S_2
REMARK    2  A    between atoms: S_2  and  C_5
REMARK    3  A    between atoms: C_9  and  N_10
REMARK    4  A    between atoms: C_11  and  C_13
REMARK    5  A    between atoms: C_17  and  N_18
REMARK                            x       y       z     vdW  Elec       q    Type
REMARK                         _______ _______ _______ _____ _____    ______ ____
ROOT
ATOM      1  C   UNL     1       1.645   9.351  19.232  0.00  0.00    +0.000 A 
ATOM      2  C   UNL     1       1.058   8.933  20.429  0.00  0.00    +0.000 A 
ATOM      3  C   UNL     1       0.486   9.867  21.276  0.00  0.00    +0.000 A 
ATOM      4  C   UNL     1       0.481  11.215  20.917  0.00  0.00    +0.000 A 
ATOM      5  C   UNL     1       1.033  11.672  19.704  0.00  0.00    +0.000 A 
ATOM      6  C   UNL     1       1.640  10.711  18.875  0.00  0.00    +0.000 A 
ENDROOT
BRANCH   5   7
ATOM      7  N   UNL     1       0.925  13.049  19.323  0.00  0.00    +0.000 N 
ATOM      8  C   UNL     1       2.003  13.886  19.105  0.00  0.00    +0.000 C 
ATOM      9  O   UNL     1       3.208  13.711  19.160  0.00  0.00    +0.000 OA
ATOM     10  C   UNL     1       1.478  15.203  18.793  0.00  0.00    +0.000 A 
ATOM     11  C   UNL     1       2.159  16.369  18.497  0.00  0.00    +0.000 A 
ATOM     12  C   UNL     1       1.396  17.519  18.299  0.00  0.00    +0.000 A 
ATOM     13  C   UNL     1      -0.008  17.473  18.409  0.00  0.00    +0.000 A 
ATOM     14  C   UNL     1      -0.671  16.272  18.692  0.00  0.00    +0.000 A 
ATOM     15  C   UNL     1       0.107  15.140  18.872  0.00  0.00    +0.000 A 
ATOM     16  C   UNL     1      -0.255  13.756  19.175  0.00  0.00    +0.000 C 
ATOM     17  O   UNL     1      -1.421  13.411  19.249  0.00  0.00    +0.000 OA
ENDBRANCH   5   7
BRANCH   1  19
ATOM     18  N   UNL     1       2.484   7.079  18.884  0.00  0.00    +0.000 N 
ATOM     19  C   UNL     1       2.136   8.292  18.312  0.00  0.00    +0.000 C 
ATOM     20  O   UNL     1       2.157   8.558  17.114  0.00  0.00    +0.000 OA
ATOM     21  H   UNL     1       2.189   6.903  19.838  0.00  0.00    +0.000 HD
BRANCH  18  26
ATOM     22  C   UNL     1       5.022   5.058  17.094  0.00  0.00    +0.000 A 
ATOM     23  C   UNL     1       4.319   3.887  16.800  0.00  0.00    +0.000 A 
ATOM     24  C   UNL     1       2.995   3.773  17.198  0.00  0.00    +0.000 A 
ATOM     25  C   UNL     1       2.385   4.822  17.890  0.00  0.00    +0.000 A 
ATOM     26  C   UNL     1       3.081   6.002  18.189  0.00  0.00    +0.000 A 
ATOM     27  C   UNL     1       4.409   6.129  17.762  0.00  0.00    +0.000 A 
BRANCH  22  28
ATOM     28  S   UNL     1       6.711   5.170  16.587  0.00  0.00    +0.000 S 
ATOM     29  O   UNL     1       7.144   6.546  16.667  0.00  0.00    +0.000 OA
ATOM     30  O   UNL     1       6.911   4.362  15.406  0.00  0.00    +0.000 OA
BRANCH  28  31
ATOM     31  N   UNL     1       7.491   4.359  17.834  0.00  0.00    +0.000 NA
ATOM     32  H   UNL     1       7.088   4.633  18.729  0.00  0.00    +0.000 HD
ATOM     33  H   UNL     1       8.500   4.500  17.773  0.00  0.00    +0.000 HD
ENDBRANCH  28  31
ENDBRANCH  22  28
ENDBRANCH  18  26
ENDBRANCH   1  19
TORSDOF 5
ENDMDL
MODEL 6
REMARK VINA RESULT:      -8.5      2.780      3.967
REMARK  Name = 
REMARK  5 active torsions:
REMARK  status: ('A' for Active; 'I' for Inactive)
REMARK    1  A    between atoms: N_1  and  S_2
REMARK    2  A    between atoms: S_2  and  C_5
REMARK    3  A    between atoms: C_9  and  N_10
REMARK    4  A    between atoms: C_11  and  C_13
REMARK    5  A    between atoms: C_17  and  N_18
REMARK                            x       y       z     vdW  Elec       q    Type
REMARK                         _______ _______ _______ _____ _____    ______ ____
ROOT
ATOM      1  C   UNL     1       1.591   9.085  19.430  0.00  0.00    +0.000 A 
ATOM      2  C   UNL     1       0.837   8.560  20.483  0.00  0.00    +0.000 A 
ATOM      3  C   UNL     1       0.159   9.416  21.334  0.00  0.00    +0.000 A 
ATOM      4  C   UNL     1       0.216  10.793  21.121  0.00  0.00    +0.000 A 
ATOM      5  C   UNL     1       0.939  11.359  20.053  0.00  0.00    +0.000 A 
ATOM      6  C   UNL     1       1.649  10.474  19.220  0.00  0.00    +0.000 A 
ENDROOT
BRANCH   5   7
ATOM      7  N   UNL     1       0.899  12.770  19.807  0.00  0.00    +0.000 N 
ATOM      8  C   UNL     1       1.661  13.703  20.483  0.00  0.00    +0.000 C 
ATOM      9  O   UNL     1       2.493  13.603  21.369  0.00  0.00    +0.000 OA
ATOM     10  C   UNL     1       1.292  15.015  19.983  0.00  0.00    +0.000 A 
ATOM     11  C   UNL     1       1.777  16.258  20.346  0.00  0.00    +0.000 A 
ATOM     12  C   UNL     1       1.191  17.370  19.744  0.00  0.00    +0.000 A 
ATOM     13  C   UNL     1       0.143  17.212  18.815  0.00  0.00    +0.000 A 
ATOM     14  C   UNL     1      -0.315  15.937  18.454  0.00  0.00    +0.000 A 
ATOM     15  C   UNL     1       0.292  14.847  19.055  0.00  0.00    +0.000 A 
ATOM     16  C   UNL     1       0.060  13.410  18.911  0.00  0.00    +0.000 C 
ATOM     17  O   UNL     1      -0.745  12.979  18.106  0.00  0.00    +0.000 OA
ENDBRANCH   5   7
BRANCH   1  19
ATOM     18  N   UNL     1       2.544   6.874  18.993  0.00  0.00    +0.000 N 
ATOM     19  C   UNL     1       2.199   8.115  18.482  0.00  0.00    +0.000 C 
ATOM     20  O   UNL     1       2.310   8.470  17.313  0.00  0.00    +0.000 OA
ATOM     21  H   UNL     1       2.178   6.617  19.903  0.00  0.00    +0.000 HD
BRANCH  18  26
ATOM     22  C   UNL     1       5.322   5.028  17.379  0.00  0.00    +0.000 A 
ATOM     23  C   UNL     1       4.672   3.907  16.855  0.00  0.00    +0.000 A 
ATOM     24  C   UNL     1       3.304   3.769  17.040  0.00  0.00    +0.000 A 
ATOM     25  C   UNL     1       2.597   4.743  17.748  0.00  0.00    +0.000 A 
ATOM     26  C   UNL     1       3.239   5.872  18.276  0.00  0.00    +0.000 A 
ATOM     27  C   UNL     1       4.615   6.027  18.065  0.00  0.00    +0.000 A 
BRANCH  22  28
ATOM     28  S   UNL     1       7.067   5.170  17.140  0.00  0.00    +0.000 S 
ATOM     29  O   UNL     1       7.412   4.667  15.830  0.00  0.00    +0.000 OA
ATOM     30  O   UNL     1       7.751   4.745  18.339  0.00  0.00    +0.000 OA
BRANCH  28  31
ATOM     31  N   UNL     1       7.262   6.837  17.068  0.00  0.00    +0.000 NA
ATOM     32  H   UNL     1       7.512   7.115  16.119  0.00  0.00    +0.000 HD
ATOM     33  H   UNL     1       7.923   7.148  17.779  0.00  0.00    +0.000 HD
ENDBRANCH  28  31
ENDBRANCH  22  28
ENDBRANCH  18  26
ENDBRANCH   1  19
TORSDOF 5
ENDMDL
MODEL 7
REMARK VINA RESULT:      -8.5      2.758      4.048
REMARK  Name = 
REMARK  5 active torsions:
REMARK  status: ('A' for Active; 'I' for Inactive)
REMARK    1  A    between atoms: N_1  and  S_2
REMARK    2  A    between atoms: S_2  and  C_5
REMARK    3  A    between atoms: C_9  and  N_10
REMARK    4  A    between atoms: C_11  and  C_13
REMARK    5  A    between atoms: C_17  and  N_18
REMARK                            x       y       z     vdW  Elec       q    Type
REMARK                         _______ _______ _______ _____ _____    ______ ____
ROOT
ATOM      1  C   UNL     1       1.571   9.547  19.239  0.00  0.00    +0.000 A 
ATOM      2  C   UNL     1       0.886   9.107  20.375  0.00  0.00    +0.000 A 
ATOM      3  C   UNL     1       0.277  10.028  21.209  0.00  0.00    +0.000 A 
ATOM      4  C   UNL     1       0.332  11.387  20.898  0.00  0.00    +0.000 A 
ATOM      5  C   UNL     1       0.986  11.867  19.746  0.00  0.00    +0.000 A 
ATOM      6  C   UNL     1       1.627  10.917  18.930  0.00  0.00    +0.000 A 
ENDROOT
BRANCH   5   7
ATOM      7  N   UNL     1       0.942  13.259  19.406  0.00  0.00    +0.000 N 
ATOM      8  C   UNL     1      -0.220  13.998  19.291  0.00  0.00    +0.000 C 
ATOM      9  O   UNL     1      -1.397  13.714  19.435  0.00  0.00    +0.000 OA
ATOM     10  C   UNL     1       0.154  15.341  18.882  0.00  0.00    +0.000 A 
ATOM     11  C   UNL     1      -0.650  16.438  18.640  0.00  0.00    +0.000 A 
ATOM     12  C   UNL     1      -0.024  17.600  18.192  0.00  0.00    +0.000 A 
ATOM     13  C   UNL     1       1.370  17.629  17.992  0.00  0.00    +0.000 A 
ATOM     14  C   UNL     1       2.163  16.505  18.263  0.00  0.00    +0.000 A 
ATOM     15  C   UNL     1       1.519  15.367  18.720  0.00  0.00    +0.000 A 
ATOM     16  C   UNL     1       2.034  14.048  19.089  0.00  0.00    +0.000 C 
ATOM     17  O   UNL     1       3.229  13.814  19.086  0.00  0.00    +0.000 OA
ENDBRANCH   5   7
BRANCH   1  19
ATOM     18  N   UNL     1       2.518   7.317  18.899  0.00  0.00    +0.000 N 
ATOM     19  C   UNL     1       2.102   8.505  18.321  0.00  0.00    +0.000 C 
ATOM     20  O   UNL     1       2.093   8.761  17.121  0.00  0.00    +0.000 OA
ATOM     21  H   UNL     1       2.246   7.135  19.859  0.00  0.00    +0.000 HD
BRANCH  18  26
ATOM     22  C   UNL     1       5.118   5.422  17.060  0.00  0.00    +0.000 A 
ATOM     23  C   UNL     1       4.482   4.202  16.815  0.00  0.00    +0.000 A 
ATOM     24  C   UNL     1       3.183   4.013  17.263  0.00  0.00    +0.000 A 
ATOM     25  C   UNL     1       2.531   5.036  17.955  0.00  0.00    +0.000 A 
ATOM     26  C   UNL     1       3.159   6.264  18.204  0.00  0.00    +0.000 A 
ATOM     27  C   UNL     1       4.460   6.467  17.727  0.00  0.00    +0.000 A 
BRANCH  22  28
ATOM     28  S   UNL     1       6.778   5.630  16.490  0.00  0.00    +0.000 S 
ATOM     29  O   UNL     1       7.572   4.497  16.907  0.00  0.00    +0.000 OA
ATOM     30  O   UNL     1       7.195   6.994  16.715  0.00  0.00    +0.000 OA
BRANCH  28  31
ATOM     31  N   UNL     1       6.584   5.480  14.829  0.00  0.00    +0.000 NA
ATOM     32  H   UNL     1       7.330   5.980  14.347  0.00  0.00    +0.000 HD
ATOM     33  H   UNL     1       5.645   5.769  14.553  0.00  0.00    +0.000 HD
ENDBRANCH  28  31
ENDBRANCH  22  28
ENDBRANCH  18  26
ENDBRANCH   1  19
TORSDOF 5
ENDMDL
MODEL 8
REMARK VINA RESULT:      -8.5      2.648      3.603
REMARK  Name = 
REMARK  5 active torsions:
REMARK  status: ('A' for Active; 'I' for Inactive)
REMARK    1  A    between atoms: N_1  and  S_2
REMARK    2  A    between atoms: S_2  and  C_5
REMARK    3  A    between atoms: C_9  and  N_10
REMARK    4  A    between atoms: C_11  and  C_13
REMARK    5  A    between atoms: C_17  and  N_18
REMARK                            x       y       z     vdW  Elec       q    Type
REMARK                         _______ _______ _______ _____ _____    ______ ____
ROOT
ATOM      1  C   UNL     1       1.501   9.184  19.499  0.00  0.00    +0.000 A 
ATOM      2  C   UNL     1       0.736   8.633  20.531  0.00  0.00    +0.000 A 
ATOM      3  C   UNL     1       0.051   9.467  21.398  0.00  0.00    +0.000 A 
ATOM      4  C   UNL     1       0.112  10.849  21.222  0.00  0.00    +0.000 A 
ATOM      5  C   UNL     1       0.846  11.442  20.176  0.00  0.00    +0.000 A 
ATOM      6  C   UNL     1       1.562  10.578  19.327  0.00  0.00    +0.000 A 
ENDROOT
BRANCH   5   7
ATOM      7  N   UNL     1       0.810  12.859  19.967  0.00  0.00    +0.000 N 
ATOM      8  C   UNL     1      -0.009  13.492  19.051  0.00  0.00    +0.000 C 
ATOM      9  O   UNL     1      -0.839  13.078  18.261  0.00  0.00    +0.000 OA
ATOM     10  C   UNL     1       0.290  14.913  19.107  0.00  0.00    +0.000 A 
ATOM     11  C   UNL     1      -0.266  15.952  18.386  0.00  0.00    +0.000 A 
ATOM     12  C   UNL     1       0.261  17.225  18.595  0.00  0.00    +0.000 A 
ATOM     13  C   UNL     1       1.322  17.420  19.502  0.00  0.00    +0.000 A 
ATOM     14  C   UNL     1       1.854  16.348  20.232  0.00  0.00    +0.000 A 
ATOM     15  C   UNL     1       1.305  15.095  20.016  0.00  0.00    +0.000 A 
ATOM     16  C   UNL     1       1.618  13.789  20.598  0.00  0.00    +0.000 C 
ATOM     17  O   UNL     1       2.451  13.674  21.477  0.00  0.00    +0.000 OA
ENDBRANCH   5   7
BRANCH   1  19
ATOM     18  N   UNL     1       2.487   6.996  19.022  0.00  0.00    +0.000 N 
ATOM     19  C   UNL     1       2.116   8.238  18.532  0.00  0.00    +0.000 C 
ATOM     20  O   UNL     1       2.210   8.613  17.367  0.00  0.00    +0.000 OA
ATOM     21  H   UNL     1       2.134   6.720  19.931  0.00  0.00    +0.000 HD
BRANCH  18  26
ATOM     22  C   UNL     1       5.267   5.255  17.297  0.00  0.00    +0.000 A 
ATOM     23  C   UNL     1       4.644   4.099  16.818  0.00  0.00    +0.000 A 
ATOM     24  C   UNL     1       3.294   3.902  17.070  0.00  0.00    +0.000 A 
ATOM     25  C   UNL     1       2.578   4.853  17.800  0.00  0.00    +0.000 A 
ATOM     26  C   UNL     1       3.193   6.017  18.284  0.00  0.00    +0.000 A 
ATOM     27  C   UNL     1       4.548   6.231  18.005  0.00  0.00    +0.000 A 
BRANCH  22  28
ATOM     28  S   UNL     1       6.990   5.472  16.973  0.00  0.00    +0.000 S 
ATOM     29  O   UNL     1       7.404   6.775  17.441  0.00  0.00    +0.000 OA
ATOM     30  O   UNL     1       7.291   4.994  15.644  0.00  0.00    +0.000 OA
BRANCH  28  31
ATOM     31  N   UNL     1       7.674   4.358  18.026  0.00  0.00    +0.000 NA
ATOM     32  H   UNL     1       8.138   3.621  17.496  0.00  0.00    +0.000 HD
ATOM     33  H   UNL     1       6.974   4.016  18.686  0.00  0.00    +0.000 HD
ENDBRANCH  28  31
ENDBRANCH  22  28
ENDBRANCH  18  26
ENDBRANCH   1  19
TORSDOF 5
ENDMDL
MODEL 9
REMARK VINA RESULT:      -8.4      2.908      3.737
REMARK  Name = 
REMARK  5 active torsions:
REMARK  status: ('A' for Active; 'I' for Inactive)
REMARK    1  A    between atoms: N_1  and  S_2
REMARK    2  A    between atoms: S_2  and  C_5
REMARK    3  A    between atoms: C_9  and  N_10
REMARK    4  A    between atoms: C_11  and  C_13
REMARK    5  A    between atoms: C_17  and  N_18
REMARK                            x       y       z     vdW  Elec       q    Type
REMARK                         _______ _______ _______ _____ _____    ______ ____
ROOT
ATOM      1  C   UNL     1       0.892  10.353  18.698  0.00  0.00    +0.000 A 
ATOM      2  C   UNL     1       1.686  11.502  18.631  0.00  0.00    +0.000 A 
ATOM      3  C   UNL     1       1.086  12.745  18.526  0.00  0.00    +0.000 A 
ATOM      4  C   UNL     1      -0.305  12.844  18.510  0.00  0.00    +0.000 A 
ATOM      5  C   UNL     1      -1.139  11.713  18.607  0.00  0.00    +0.000 A 
ATOM      6  C   UNL     1      -0.510  10.457  18.678  0.00  0.00    +0.000 A 
ENDROOT
BRANCH   5   7
ATOM      7  N   UNL     1      -2.563  11.858  18.684  0.00  0.00    +0.000 N 
ATOM      8  C   UNL     1      -3.241  12.328  19.792  0.00  0.00    +0.000 C 
ATOM      9  O   UNL     1      -2.867  12.715  20.886  0.00  0.00    +0.000 OA
ATOM     10  C   UNL     1      -4.661  12.273  19.492  0.00  0.00    +0.000 A 
ATOM     11  C   UNL     1      -5.737  12.637  20.280  0.00  0.00    +0.000 A 
ATOM     12  C   UNL     1      -7.011  12.415  19.759  0.00  0.00    +0.000 A 
ATOM     13  C   UNL     1      -7.172  11.834  18.486  0.00  0.00    +0.000 A 
ATOM     14  C   UNL     1      -6.061  11.492  17.702  0.00  0.00    +0.000 A 
ATOM     15  C   UNL     1      -4.806  11.734  18.235  0.00  0.00    +0.000 A 
ATOM     16  C   UNL     1      -3.466  11.500  17.697  0.00  0.00    +0.000 C 
ATOM     17  O   UNL     1      -3.305  11.073  16.569  0.00  0.00    +0.000 OA
ENDBRANCH   5   7
BRANCH   1  19
ATOM     18  N   UNL     1       2.295   8.532  17.860  0.00  0.00    +0.000 N 
ATOM     19  C   UNL     1       1.588   9.060  18.928  0.00  0.00    +0.000 C 
ATOM     20  O   UNL     1       1.518   8.581  20.056  0.00  0.00    +0.000 OA
ATOM     21  H   UNL     1       2.481   9.138  17.068  0.00  0.00    +0.000 HD
BRANCH  18  26
ATOM     22  C   UNL     1       2.813   4.898  18.366  0.00  0.00    +0.000 A 
ATOM     23  C   UNL     1       4.105   4.708  17.868  0.00  0.00    +0.000 A 
ATOM     24  C   UNL     1       4.804   5.795  17.364  0.00  0.00    +0.000 A 
ATOM     25  C   UNL     1       4.210   7.059  17.354  0.00  0.00    +0.000 A 
ATOM     26  C   UNL     1       2.916   7.261  17.854  0.00  0.00    +0.000 A 
ATOM     27  C   UNL     1       2.220   6.170  18.390  0.00  0.00    +0.000 A 
BRANCH  22  28
ATOM     28  S   UNL     1       1.942   3.493  18.990  0.00  0.00    +0.000 S 
ATOM     29  O   UNL     1       2.878   2.591  19.620  0.00  0.00    +0.000 OA
ATOM     30  O   UNL     1       0.981   3.051  18.006  0.00  0.00    +0.000 OA
BRANCH  28  31
ATOM     31  N   UNL     1       1.043   4.178  20.232  0.00  0.00    +0.000 NA
ATOM     32  H   UNL     1       0.125   4.452  19.884  0.00  0.00    +0.000 HD
ATOM     33  H   UNL     1       1.564   4.938  20.670  0.00  0.00    +0.000 HD
ENDBRANCH  28  31
ENDBRANCH  22  28
ENDBRANCH  18  26
ENDBRANCH   1  19
TORSDOF 5
ENDMDL
