MODEL 1
REMARK VINA RESULT:      -7.9      0.000      0.000
REMARK  Name = 
REMARK  9 active torsions:
REMARK  status: ('A' for Active; 'I' for Inactive)
REMARK    1  A    between atoms: C_1  and  C_2
REMARK    2  A    between atoms: C_4  and  C_5
REMARK    3  A    between atoms: N_6  and  C_7
REMARK    4  A    between atoms: C_7  and  C_8
REMARK    5  A    between atoms: C_8  and  N_9
REMARK    6  A    between atoms: C_10  and  C_12
REMARK    7  A    between atoms: C_14  and  C_15
REMARK    8  A    between atoms: C_15  and  O_16
REMARK    9  A    between atoms: O_16  and  C_17
REMARK                            x       y       z     vdW  Elec       q    Type
REMARK                         _______ _______ _______ _____ _____    ______ ____
ROOT
ATOM      1  C   UNL     1       7.220   6.554  17.717  0.00  0.00    +0.000 A 
ATOM      2  C   UNL     1       8.116   7.073  18.690  0.00  0.00    +0.000 A 
ATOM      3  C   UNL     1       8.285   8.390  18.344  0.00  0.00    +0.000 A 
ATOM      4  O   UNL     1       7.545   8.654  17.234  0.00  0.00    +0.000 OA
ATOM      5  N   UNL     1       6.881   7.508  16.830  0.00  0.00    +0.000 NA
ENDROOT
BRANCH   1   7
ATOM      6  N   UNL     1       5.688   5.000  16.712  0.00  0.00    +0.000 N 
ATOM      7  C   UNL     1       6.701   5.186  17.635  0.00  0.00    +0.000 C 
ATOM      8  O   UNL     1       7.139   4.279  18.334  0.00  0.00    +0.000 OA
ATOM      9  H   UNL     1       5.449   5.797  16.128  0.00  0.00    +0.000 HD
BRANCH   6  10
ATOM     10  C   UNL     1       5.108   3.684  16.486  0.00  0.00    +0.000 C 
BRANCH  10  11
ATOM     11  C   UNL     1       3.632   3.604  16.854  0.00  0.00    +0.000 C 
BRANCH  11  17
ATOM     12  C   UNL     1       2.212   7.306  19.622  0.00  0.00    +0.000 C 
ATOM     13  C   UNL     1       2.721   5.954  19.285  0.00  0.00    +0.000 A 
ATOM     14  C   UNL     1       3.132   4.941  20.174  0.00  0.00    +0.000 A 
ATOM     15  C   UNL     1       3.526   3.889  19.374  0.00  0.00    +0.000 A 
ATOM     16  C   UNL     1       4.054   2.552  19.742  0.00  0.00    +0.000 C 
ATOM     17  N   UNL     1       3.334   4.315  18.084  0.00  0.00    +0.000 N 
ATOM     18  N   UNL     1       2.840   5.569  18.010  0.00  0.00    +0.000 NA
ENDBRANCH  11  17
ENDBRANCH  10  11
ENDBRANCH   6  10
ENDBRANCH   1   7
BRANCH   3  19
ATOM     19  C   UNL     1       9.076   9.518  18.895  0.00  0.00    +0.000 C 
BRANCH  19  20
ATOM     20  O   UNL     1       8.754  10.663  18.109  0.00  0.00    +0.000 OA
BRANCH  20  21
ATOM     21  C   UNL     1       9.687  11.665  18.042  0.00  0.00    +0.000 A 
ATOM     22  C   UNL     1      11.055  11.485  18.282  0.00  0.00    +0.000 A 
ATOM     23  C   UNL     1      11.942  12.556  18.137  0.00  0.00    +0.000 A 
ATOM     24  C   UNL     1      11.465  13.803  17.755  0.00  0.00    +0.000 A 
ATOM     25  F   UNL     1      12.324  14.821  17.614  0.00  0.00    +0.000 F 
ATOM     26  C   UNL     1      10.116  14.007  17.509  0.00  0.00    +0.000 A 
ATOM     27  C   UNL     1       9.229  12.938  17.647  0.00  0.00    +0.000 A 
ATOM     28 CL   UNL     1       7.554  13.231  17.334  0.00  0.00    +0.000 Cl
ENDBRANCH  20  21
ENDBRANCH  19  20
ENDBRANCH   3  19
TORSDOF 7
ENDMDL
MODEL 2
REMARK VINA RESULT:      -7.8      1.833      1.939
REMARK  Name = 
REMARK  9 active torsions:
REMARK  status: ('A' for Active; 'I' for Inactive)
REMARK    1  A    between atoms: C_1  and  C_2
REMARK    2  A    between atoms: C_4  and  C_5
REMARK    3  A    between atoms: N_6  and  C_7
REMARK    4  A    between atoms: C_7  and  C_8
REMARK    5  A    between atoms: C_8  and  N_9
REMARK    6  A    between atoms: C_10  and  C_12
REMARK    7  A    between atoms: C_14  and  C_15
REMARK    8  A    between atoms: C_15  and  O_16
REMARK    9  A    between atoms: O_16  and  C_17
REMARK                            x       y       z     vdW  Elec       q    Type
REMARK                         _______ _______ _______ _____ _____    ______ ____
ROOT
ATOM      1  C   UNL     1       7.135   6.081  17.837  0.00  0.00    +0.000 A 
ATOM      2  C   UNL     1       7.114   7.357  17.209  0.00  0.00    +0.000 A 
ATOM      3  C   UNL     1       7.967   8.128  17.957  0.00  0.00    +0.000 A 
ATOM      4  O   UNL     1       8.471   7.376  18.972  0.00  0.00    +0.000 OA
ATOM      5  N   UNL     1       7.949   6.095  18.909  0.00  0.00    +0.000 NA
ENDROOT
BRANCH   1   7
ATOM      6  N   UNL     1       5.440   4.450  18.323  0.00  0.00    +0.000 N 
ATOM      7  C   UNL     1       6.399   4.883  17.425  0.00  0.00    +0.000 C 
ATOM      8  O   UNL     1       6.621   4.313  16.362  0.00  0.00    +0.000 OA
ATOM      9  H   UNL     1       5.281   5.034  19.139  0.00  0.00    +0.000 HD
BRANCH   6  10
ATOM     10  C   UNL     1       4.597   3.300  18.028  0.00  0.00    +0.000 C 
BRANCH  10  11
ATOM     11  C   UNL     1       3.160   3.676  17.690  0.00  0.00    +0.000 C 
BRANCH  11  17
ATOM     12  C   UNL     1       2.025   7.588  20.295  0.00  0.00    +0.000 C 
ATOM     13  C   UNL     1       2.051   6.160  19.894  0.00  0.00    +0.000 A 
ATOM     14  C   UNL     1       1.443   5.070  20.548  0.00  0.00    +0.000 A 
ATOM     15  C   UNL     1       1.766   3.962  19.792  0.00  0.00    +0.000 A 
ATOM     16  C   UNL     1       1.411   2.535  19.985  0.00  0.00    +0.000 C 
ATOM     17  N   UNL     1       2.527   4.435  18.753  0.00  0.00    +0.000 N 
ATOM     18  N   UNL     1       2.708   5.772  18.796  0.00  0.00    +0.000 NA
ENDBRANCH  11  17
ENDBRANCH  10  11
ENDBRANCH   6  10
ENDBRANCH   1   7
BRANCH   3  19
ATOM     19  C   UNL     1       8.418   9.541  17.895  0.00  0.00    +0.000 C 
BRANCH  19  20
ATOM     20  O   UNL     1       9.092   9.808  19.123  0.00  0.00    +0.000 OA
BRANCH  20  21
ATOM     21  C   UNL     1       9.871  10.934  19.184  0.00  0.00    +0.000 A 
ATOM     22  C   UNL     1      10.680  11.389  18.135  0.00  0.00    +0.000 A 
ATOM     23  C   UNL     1      11.400  12.580  18.268  0.00  0.00    +0.000 A 
ATOM     24  C   UNL     1      11.314  13.314  19.444  0.00  0.00    +0.000 A 
ATOM     25  F   UNL     1      12.005  14.456  19.559  0.00  0.00    +0.000 F 
ATOM     26  C   UNL     1      10.519  12.885  20.496  0.00  0.00    +0.000 A 
ATOM     27  C   UNL     1       9.795  11.700  20.363  0.00  0.00    +0.000 A 
ATOM     28 CL   UNL     1       8.816  11.197  21.697  0.00  0.00    +0.000 Cl
ENDBRANCH  20  21
ENDBRANCH  19  20
ENDBRANCH   3  19
TORSDOF 7
ENDMDL
MODEL 3
REMARK VINA RESULT:      -7.7      5.915      8.921
REMARK  Name = 
REMARK  9 active torsions:
REMARK  status: ('A' for Active; 'I' for Inactive)
REMARK    1  A    between atoms: C_1  and  C_2
REMARK    2  A    between atoms: C_4  and  C_5
REMARK    3  A    between atoms: N_6  and  C_7
REMARK    4  A    between atoms: C_7  and  C_8
REMARK    5  A    between atoms: C_8  and  N_9
REMARK    6  A    between atoms: C_10  and  C_12
REMARK    7  A    between atoms: C_14  and  C_15
REMARK    8  A    between atoms: C_15  and  O_16
REMARK    9  A    between atoms: O_16  and  C_17
REMARK                            x       y       z     vdW  Elec       q    Type
REMARK                         _______ _______ _______ _____ _____    ______ ____
ROOT
ATOM      1  C   UNL     1       1.714   8.741  19.221  0.00  0.00    +0.000 A 
ATOM      2  C   UNL     1       2.411   7.701  18.548  0.00  0.00    +0.000 A 
ATOM      3  C   UNL     1       2.506   6.689  19.470  0.00  0.00    +0.000 A 
ATOM      4  O   UNL     1       1.909   7.087  20.627  0.00  0.00    +0.000 OA
ATOM      5  N   UNL     1       1.418   8.373  20.481  0.00  0.00    +0.000 NA
ENDROOT
BRANCH   1   7
ATOM      6  N   UNL     1       0.077  10.488  19.027  0.00  0.00    +0.000 N 
ATOM      7  C   UNL     1       1.340  10.048  18.676  0.00  0.00    +0.000 C 
ATOM      8  O   UNL     1       2.097  10.700  17.965  0.00  0.00    +0.000 OA
ATOM      9  H   UNL     1      -0.443   9.910  19.682  0.00  0.00    +0.000 HD
BRANCH   6  10
ATOM     10  C   UNL     1      -0.413  11.791  18.599  0.00  0.00    +0.000 C 
BRANCH  10  11
ATOM     11  C   UNL     1      -1.872  12.037  18.964  0.00  0.00    +0.000 C 
BRANCH  11  17
ATOM     12  C   UNL     1      -3.182  10.217  14.680  0.00  0.00    +0.000 C 
ATOM     13  C   UNL     1      -3.339  10.797  16.036  0.00  0.00    +0.000 A 
ATOM     14  C   UNL     1      -4.537  11.135  16.697  0.00  0.00    +0.000 A 
ATOM     15  C   UNL     1      -4.151  11.644  17.919  0.00  0.00    +0.000 A 
ATOM     16  C   UNL     1      -4.971  12.164  19.040  0.00  0.00    +0.000 C 
ATOM     17  N   UNL     1      -2.781  11.584  17.926  0.00  0.00    +0.000 N 
ATOM     18  N   UNL     1      -2.268  11.068  16.789  0.00  0.00    +0.000 NA
ENDBRANCH  11  17
ENDBRANCH  10  11
ENDBRANCH   6  10
ENDBRANCH   1   7
BRANCH   3  19
ATOM     19  C   UNL     1       3.103   5.331  19.468  0.00  0.00    +0.000 C 
BRANCH  19  20
ATOM     20  O   UNL     1       4.512   5.505  19.342  0.00  0.00    +0.000 OA
BRANCH  20  21
ATOM     21  C   UNL     1       5.098   5.085  18.176  0.00  0.00    +0.000 A 
ATOM     22  C   UNL     1       4.387   4.665  17.045  0.00  0.00    +0.000 A 
ATOM     23  C   UNL     1       5.070   4.304  15.879  0.00  0.00    +0.000 A 
ATOM     24  C   UNL     1       6.457   4.361  15.843  0.00  0.00    +0.000 A 
ATOM     25  F   UNL     1       7.101   4.018  14.720  0.00  0.00    +0.000 F 
ATOM     26  C   UNL     1       7.183   4.775  16.949  0.00  0.00    +0.000 A 
ATOM     27  C   UNL     1       6.504   5.141  18.112  0.00  0.00    +0.000 A 
ATOM     28 CL   UNL     1       7.444   5.650  19.472  0.00  0.00    +0.000 Cl
ENDBRANCH  20  21
ENDBRANCH  19  20
ENDBRANCH   3  19
TORSDOF 7
ENDMDL
MODEL 4
REMARK VINA RESULT:      -7.6      1.598      1.936
REMARK  Name = 
REMARK  9 active torsions:
REMARK  status: ('A' for Active; 'I' for Inactive)
REMARK    1  A    between atoms: C_1  and  C_2
REMARK    2  A    between atoms: C_4  and  C_5
REMARK    3  A    between atoms: N_6  and  C_7
REMARK    4  A    between atoms: C_7  and  C_8
REMARK    5  A    between atoms: C_8  and  N_9
REMARK    6  A    between atoms: C_10  and  C_12
REMARK    7  A    between atoms: C_14  and  C_15
REMARK    8  A    between atoms: C_15  and  O_16
REMARK    9  A    between atoms: O_16  and  C_17
REMARK                            x       y       z     vdW  Elec       q    Type
REMARK                         _______ _______ _______ _____ _____    ______ ____
ROOT
ATOM      1  C   UNL     1       7.415   6.754  17.831  0.00  0.00    +0.000 A 
ATOM      2  C   UNL     1       8.276   7.338  18.800  0.00  0.00    +0.000 A 
ATOM      3  C   UNL     1       8.419   8.643  18.400  0.00  0.00    +0.000 A 
ATOM      4  O   UNL     1       7.697   8.840  17.264  0.00  0.00    +0.000 OA
ATOM      5  N   UNL     1       7.072   7.660  16.896  0.00  0.00    +0.000 NA
ENDROOT
BRANCH   1   7
ATOM      6  N   UNL     1       5.569   5.232  17.621  0.00  0.00    +0.000 N 
ATOM      7  C   UNL     1       6.934   5.371  17.798  0.00  0.00    +0.000 C 
ATOM      8  O   UNL     1       7.690   4.413  17.916  0.00  0.00    +0.000 OA
ATOM      9  H   UNL     1       5.040   6.084  17.456  0.00  0.00    +0.000 HD
BRANCH   6  10
ATOM     10  C   UNL     1       4.953   3.916  17.520  0.00  0.00    +0.000 C 
BRANCH  10  11
ATOM     11  C   UNL     1       4.499   3.358  18.862  0.00  0.00    +0.000 C 
BRANCH  11  17
ATOM     12  C   UNL     1       1.824   7.004  20.577  0.00  0.00    +0.000 C 
ATOM     13  C   UNL     1       2.151   5.630  20.123  0.00  0.00    +0.000 A 
ATOM     14  C   UNL     1       1.306   4.502  20.110  0.00  0.00    +0.000 A 
ATOM     15  C   UNL     1       2.076   3.472  19.612  0.00  0.00    +0.000 A 
ATOM     16  C   UNL     1       1.732   2.050  19.370  0.00  0.00    +0.000 C 
ATOM     17  N   UNL     1       3.307   4.023  19.358  0.00  0.00    +0.000 N 
ATOM     18  N   UNL     1       3.370   5.337  19.659  0.00  0.00    +0.000 NA
ENDBRANCH  11  17
ENDBRANCH  10  11
ENDBRANCH   6  10
ENDBRANCH   1   7
BRANCH   3  19
ATOM     19  C   UNL     1       9.169   9.814  18.918  0.00  0.00    +0.000 C 
BRANCH  19  20
ATOM     20  O   UNL     1       9.526  10.603  17.785  0.00  0.00    +0.000 OA
BRANCH  20  21
ATOM     21  C   UNL     1       9.335  11.957  17.873  0.00  0.00    +0.000 A 
ATOM     22  C   UNL     1       8.116  12.598  17.615  0.00  0.00    +0.000 A 
ATOM     23  C   UNL     1       7.999  13.982  17.782  0.00  0.00    +0.000 A 
ATOM     24  C   UNL     1       9.096  14.723  18.205  0.00  0.00    +0.000 A 
ATOM     25  F   UNL     1       8.972  16.046  18.367  0.00  0.00    +0.000 F 
ATOM     26  C   UNL     1      10.312  14.111  18.468  0.00  0.00    +0.000 A 
ATOM     27  C   UNL     1      10.429  12.730  18.307  0.00  0.00    +0.000 A 
ATOM     28 CL   UNL     1      11.962  12.004  18.644  0.00  0.00    +0.000 Cl
ENDBRANCH  20  21
ENDBRANCH  19  20
ENDBRANCH   3  19
TORSDOF 7
ENDMDL
MODEL 5
REMARK VINA RESULT:      -7.6      2.232      2.369
REMARK  Name = 
REMARK  9 active torsions:
REMARK  status: ('A' for Active; 'I' for Inactive)
REMARK    1  A    between atoms: C_1  and  C_2
REMARK    2  A    between atoms: C_4  and  C_5
REMARK    3  A    between atoms: N_6  and  C_7
REMARK    4  A    between atoms: C_7  and  C_8
REMARK    5  A    between atoms: C_8  and  N_9
REMARK    6  A    between atoms: C_10  and  C_12
REMARK    7  A    between atoms: C_14  and  C_15
REMARK    8  A    between atoms: C_15  and  O_16
REMARK    9  A    between atoms: O_16  and  C_17
REMARK                            x       y       z     vdW  Elec       q    Type
REMARK                         _______ _______ _______ _____ _____    ______ ____
ROOT
ATOM      1  C   UNL     1       7.392   6.497  17.698  0.00  0.00    +0.000 A 
ATOM      2  C   UNL     1       7.367   7.833  17.213  0.00  0.00    +0.000 A 
ATOM      3  C   UNL     1       8.162   8.536  18.083  0.00  0.00    +0.000 A 
ATOM      4  O   UNL     1       8.637   7.688  19.034  0.00  0.00    +0.000 OA
ATOM      5  N   UNL     1       8.153   6.410  18.805  0.00  0.00    +0.000 NA
ENDROOT
BRANCH   1   7
ATOM      6  N   UNL     1       5.366   5.236  17.433  0.00  0.00    +0.000 N 
ATOM      7  C   UNL     1       6.710   5.336  17.123  0.00  0.00    +0.000 C 
ATOM      8  O   UNL     1       7.293   4.519  16.418  0.00  0.00    +0.000 OA
ATOM      9  H   UNL     1       4.960   6.003  17.960  0.00  0.00    +0.000 HD
BRANCH   6  10
ATOM     10  C   UNL     1       4.546   4.159  16.892  0.00  0.00    +0.000 C 
BRANCH  10  11
ATOM     11  C   UNL     1       4.012   3.213  17.961  0.00  0.00    +0.000 C 
BRANCH  11  17
ATOM     12  C   UNL     1       1.871   6.620  20.643  0.00  0.00    +0.000 C 
ATOM     13  C   UNL     1       2.044   5.322  19.945  0.00  0.00    +0.000 A 
ATOM     14  C   UNL     1       1.157   4.227  19.929  0.00  0.00    +0.000 A 
ATOM     15  C   UNL     1       1.773   3.267  19.155  0.00  0.00    +0.000 A 
ATOM     16  C   UNL     1       1.322   1.904  18.781  0.00  0.00    +0.000 C 
ATOM     17  N   UNL     1       2.963   3.822  18.758  0.00  0.00    +0.000 N 
ATOM     18  N   UNL     1       3.144   5.075  19.227  0.00  0.00    +0.000 NA
ENDBRANCH  11  17
ENDBRANCH  10  11
ENDBRANCH   6  10
ENDBRANCH   1   7
BRANCH   3  19
ATOM     19  C   UNL     1       8.577   9.957  18.198  0.00  0.00    +0.000 C 
BRANCH  19  20
ATOM     20  O   UNL     1       9.611  10.001  19.177  0.00  0.00    +0.000 OA
BRANCH  20  21
ATOM     21  C   UNL     1       9.770  11.169  19.875  0.00  0.00    +0.000 A 
ATOM     22  C   UNL     1       9.067  11.489  21.044  0.00  0.00    +0.000 A 
ATOM     23  C   UNL     1       9.335  12.683  21.721  0.00  0.00    +0.000 A 
ATOM     24  C   UNL     1      10.299  13.555  21.233  0.00  0.00    +0.000 A 
ATOM     25  F   UNL     1      10.551  14.693  21.892  0.00  0.00    +0.000 F 
ATOM     26  C   UNL     1      11.010  13.260  20.080  0.00  0.00    +0.000 A 
ATOM     27  C   UNL     1      10.749  12.066  19.405  0.00  0.00    +0.000 A 
ATOM     28 CL   UNL     1      11.655  11.734  17.970  0.00  0.00    +0.000 Cl
ENDBRANCH  20  21
ENDBRANCH  19  20
ENDBRANCH   3  19
TORSDOF 7
ENDMDL
MODEL 6
REMARK VINA RESULT:      -7.6      4.516      9.538
REMARK  Name = 
REMARK  9 active torsions:
REMARK  status: ('A' for Active; 'I' for Inactive)
REMARK    1  A    between atoms: C_1  and  C_2
REMARK    2  A    between atoms: C_4  and  C_5
REMARK    3  A    between atoms: N_6  and  C_7
REMARK    4  A    between atoms: C_7  and  C_8
REMARK    5  A    between atoms: C_8  and  N_9
REMARK    6  A    between atoms: C_10  and  C_12
REMARK    7  A    between atoms: C_14  and  C_15
REMARK    8  A    between atoms: C_15  and  O_16
REMARK    9  A    between atoms: O_16  and  C_17
REMARK                            x       y       z     vdW  Elec       q    Type
REMARK                         _______ _______ _______ _____ _____    ______ ____
ROOT
ATOM      1  C   UNL     1       6.559   6.322  17.453  0.00  0.00    +0.000 A 
ATOM      2  C   UNL     1       5.574   5.445  17.982  0.00  0.00    +0.000 A 
ATOM      3  C   UNL     1       4.806   5.090  16.901  0.00  0.00    +0.000 A 
ATOM      4  O   UNL     1       5.289   5.710  15.791  0.00  0.00    +0.000 OA
ATOM      5  N   UNL     1       6.382   6.491  16.129  0.00  0.00    +0.000 NA
ENDROOT
BRANCH   1   7
ATOM      6  N   UNL     1       7.857   8.305  17.847  0.00  0.00    +0.000 N 
ATOM      7  C   UNL     1       7.640   6.982  18.189  0.00  0.00    +0.000 C 
ATOM      8  O   UNL     1       8.297   6.400  19.046  0.00  0.00    +0.000 OA
ATOM      9  H   UNL     1       7.210   8.717  17.181  0.00  0.00    +0.000 HD
BRANCH   6  10
ATOM     10  C   UNL     1       8.867   9.103  18.529  0.00  0.00    +0.000 C 
BRANCH  10  11
ATOM     11  C   UNL     1       8.727  10.598  18.274  0.00  0.00    +0.000 C 
BRANCH  11  17
ATOM     12  C   UNL     1       9.290  13.139  22.350  0.00  0.00    +0.000 C 
ATOM     13  C   UNL     1       9.654  12.516  21.053  0.00  0.00    +0.000 A 
ATOM     14  C   UNL     1      10.885  12.597  20.373  0.00  0.00    +0.000 A 
ATOM     15  C   UNL     1      10.716  11.863  19.218  0.00  0.00    +0.000 A 
ATOM     16  C   UNL     1      11.663  11.588  18.111  0.00  0.00    +0.000 C 
ATOM     17  N   UNL     1       9.428  11.392  19.267  0.00  0.00    +0.000 N 
ATOM     18  N   UNL     1       8.767  11.777  20.379  0.00  0.00    +0.000 NA
ENDBRANCH  11  17
ENDBRANCH  10  11
ENDBRANCH   6  10
ENDBRANCH   1   7
BRANCH   3  19
ATOM     19  C   UNL     1       3.616   4.224  16.710  0.00  0.00    +0.000 C 
BRANCH  19  20
ATOM     20  O   UNL     1       2.553   4.823  17.447  0.00  0.00    +0.000 OA
BRANCH  20  21
ATOM     21  C   UNL     1       2.147   4.193  18.594  0.00  0.00    +0.000 A 
ATOM     22  C   UNL     1       1.811   2.835  18.669  0.00  0.00    +0.000 A 
ATOM     23  C   UNL     1       1.458   2.264  19.896  0.00  0.00    +0.000 A 
ATOM     24  C   UNL     1       1.440   3.046  21.044  0.00  0.00    +0.000 A 
ATOM     25  F   UNL     1       1.106   2.488  22.215  0.00  0.00    +0.000 F 
ATOM     26  C   UNL     1       1.770   4.391  20.996  0.00  0.00    +0.000 A 
ATOM     27  C   UNL     1       2.128   4.962  19.774  0.00  0.00    +0.000 A 
ATOM     28 CL   UNL     1       2.532   6.644  19.754  0.00  0.00    +0.000 Cl
ENDBRANCH  20  21
ENDBRANCH  19  20
ENDBRANCH   3  19
TORSDOF 7
ENDMDL
MODEL 7
REMARK VINA RESULT:      -7.5      5.849      8.662
REMARK  Name = 
REMARK  9 active torsions:
REMARK  status: ('A' for Active; 'I' for Inactive)
REMARK    1  A    between atoms: C_1  and  C_2
REMARK    2  A    between atoms: C_4  and  C_5
REMARK    3  A    between atoms: N_6  and  C_7
REMARK    4  A    between atoms: C_7  and  C_8
REMARK    5  A    between atoms: C_8  and  N_9
REMARK    6  A    between atoms: C_10  and  C_12
REMARK    7  A    between atoms: C_14  and  C_15
REMARK    8  A    between atoms: C_15  and  O_16
REMARK    9  A    between atoms: O_16  and  C_17
REMARK                            x       y       z     vdW  Elec       q    Type
REMARK                         _______ _______ _______ _____ _____    ______ ____
ROOT
ATOM      1  C   UNL     1       2.481   7.455  18.594  0.00  0.00    +0.000 A 
ATOM      2  C   UNL     1       1.693   8.327  19.392  0.00  0.00    +0.000 A 
ATOM      3  C   UNL     1       1.559   9.466  18.639  0.00  0.00    +0.000 A 
ATOM      4  O   UNL     1       2.223   9.300  17.463  0.00  0.00    +0.000 OA
ATOM      5  N   UNL     1       2.810   8.046  17.430  0.00  0.00    +0.000 NA
ENDROOT
BRANCH   1   7
ATOM      6  N   UNL     1       2.815   5.180  17.898  0.00  0.00    +0.000 N 
ATOM      7  C   UNL     1       2.909   6.095  18.931  0.00  0.00    +0.000 C 
ATOM      8  O   UNL     1       3.321   5.798  20.048  0.00  0.00    +0.000 OA
ATOM      9  H   UNL     1       2.535   5.541  16.991  0.00  0.00    +0.000 HD
BRANCH   6  10
ATOM     10  C   UNL     1       3.250   3.800  18.073  0.00  0.00    +0.000 C 
BRANCH  10  11
ATOM     11  C   UNL     1       4.404   3.412  17.158  0.00  0.00    +0.000 C 
BRANCH  11  17
ATOM     12  C   UNL     1       7.952   5.790  19.424  0.00  0.00    +0.000 C 
ATOM     13  C   UNL     1       7.081   5.356  18.304  0.00  0.00    +0.000 A 
ATOM     14  C   UNL     1       7.112   5.796  16.966  0.00  0.00    +0.000 A 
ATOM     15  C   UNL     1       6.103   5.106  16.329  0.00  0.00    +0.000 A 
ATOM     16  C   UNL     1       5.657   5.151  14.915  0.00  0.00    +0.000 C 
ATOM     17  N   UNL     1       5.537   4.309  17.292  0.00  0.00    +0.000 N 
ATOM     18  N   UNL     1       6.122   4.445  18.501  0.00  0.00    +0.000 NA
ENDBRANCH  11  17
ENDBRANCH  10  11
ENDBRANCH   6  10
ENDBRANCH   1   7
BRANCH   3  19
ATOM     19  C   UNL     1       0.886  10.774  18.838  0.00  0.00    +0.000 C 
BRANCH  19  20
ATOM     20  O   UNL     1      -0.418  10.488  19.338  0.00  0.00    +0.000 OA
BRANCH  20  21
ATOM     21  C   UNL     1      -1.470  10.613  18.468  0.00  0.00    +0.000 A 
ATOM     22  C   UNL     1      -1.612   9.865  17.293  0.00  0.00    +0.000 A 
ATOM     23  C   UNL     1      -2.747  10.021  16.492  0.00  0.00    +0.000 A 
ATOM     24  C   UNL     1      -3.737  10.923  16.863  0.00  0.00    +0.000 A 
ATOM     25  F   UNL     1      -4.823  11.061  16.091  0.00  0.00    +0.000 F 
ATOM     26  C   UNL     1      -3.620  11.674  18.022  0.00  0.00    +0.000 A 
ATOM     27  C   UNL     1      -2.491  11.515  18.826  0.00  0.00    +0.000 A 
ATOM     28 CL   UNL     1      -2.381  12.470  20.264  0.00  0.00    +0.000 Cl
ENDBRANCH  20  21
ENDBRANCH  19  20
ENDBRANCH   3  19
TORSDOF 7
ENDMDL
MODEL 8
REMARK VINA RESULT:      -7.5      5.985      8.818
REMARK  Name = 
REMARK  9 active torsions:
REMARK  status: ('A' for Active; 'I' for Inactive)
REMARK    1  A    between atoms: C_1  and  C_2
REMARK    2  A    between atoms: C_4  and  C_5
REMARK    3  A    between atoms: N_6  and  C_7
REMARK    4  A    between atoms: C_7  and  C_8
REMARK    5  A    between atoms: C_8  and  N_9
REMARK    6  A    between atoms: C_10  and  C_12
REMARK    7  A    between atoms: C_14  and  C_15
REMARK    8  A    between atoms: C_15  and  O_16
REMARK    9  A    between atoms: O_16  and  C_17
REMARK                            x       y       z     vdW  Elec       q    Type
REMARK                         _______ _______ _______ _____ _____    ______ ____
ROOT
ATOM      1  C   UNL     1       2.240   7.615  18.823  0.00  0.00    +0.000 A 
ATOM      2  C   UNL     1       1.480   8.590  19.524  0.00  0.00    +0.000 A 
ATOM      3  C   UNL     1       1.453   9.679  18.690  0.00  0.00    +0.000 A 
ATOM      4  O   UNL     1       2.152   9.389  17.560  0.00  0.00    +0.000 OA
ATOM      5  N   UNL     1       2.655   8.101  17.638  0.00  0.00    +0.000 NA
ENDROOT
BRANCH   1   7
ATOM      6  N   UNL     1       3.125   5.443  18.305  0.00  0.00    +0.000 N 
ATOM      7  C   UNL     1       2.563   6.259  19.270  0.00  0.00    +0.000 C 
ATOM      8  O   UNL     1       2.351   5.881  20.418  0.00  0.00    +0.000 OA
ATOM      9  H   UNL     1       3.330   5.872  17.407  0.00  0.00    +0.000 HD
BRANCH   6  10
ATOM     10  C   UNL     1       3.541   4.083  18.617  0.00  0.00    +0.000 C 
BRANCH  10  11
ATOM     11  C   UNL     1       5.046   3.941  18.806  0.00  0.00    +0.000 C 
BRANCH  11  17
ATOM     12  C   UNL     1       6.063   3.961  14.079  0.00  0.00    +0.000 C 
ATOM     13  C   UNL     1       6.224   4.257  15.524  0.00  0.00    +0.000 A 
ATOM     14  C   UNL     1       7.274   4.959  16.149  0.00  0.00    +0.000 A 
ATOM     15  C   UNL     1       6.968   4.954  17.494  0.00  0.00    +0.000 A 
ATOM     16  C   UNL     1       7.702   5.537  18.643  0.00  0.00    +0.000 C 
ATOM     17  N   UNL     1       5.784   4.270  17.600  0.00  0.00    +0.000 N 
ATOM     18  N   UNL     1       5.314   3.840  16.410  0.00  0.00    +0.000 NA
ENDBRANCH  11  17
ENDBRANCH  10  11
ENDBRANCH   6  10
ENDBRANCH   1   7
BRANCH   3  19
ATOM     19  C   UNL     1       0.860  11.038  18.770  0.00  0.00    +0.000 C 
BRANCH  19  20
ATOM     20  O   UNL     1      -0.438  10.883  19.338  0.00  0.00    +0.000 OA
BRANCH  20  21
ATOM     21  C   UNL     1      -1.507  10.877  18.480  0.00  0.00    +0.000 A 
ATOM     22  C   UNL     1      -1.591  10.076  17.334  0.00  0.00    +0.000 A 
ATOM     23  C   UNL     1      -2.745  10.096  16.545  0.00  0.00    +0.000 A 
ATOM     24  C   UNL     1      -3.811  10.913  16.898  0.00  0.00    +0.000 A 
ATOM     25  F   UNL     1      -4.914  10.922  16.138  0.00  0.00    +0.000 F 
ATOM     26  C   UNL     1      -3.752  11.714  18.028  0.00  0.00    +0.000 A 
ATOM     27  C   UNL     1      -2.604  11.691  18.821  0.00  0.00    +0.000 A 
ATOM     28 CL   UNL     1      -2.568  12.705  20.222  0.00  0.00    +0.000 Cl
ENDBRANCH  20  21
ENDBRANCH  19  20
ENDBRANCH   3  19
TORSDOF 7
ENDMDL
MODEL 9
REMARK VINA RESULT:      -7.4      5.835      8.999
REMARK  Name = 
REMARK  9 active torsions:
REMARK  status: ('A' for Active; 'I' for Inactive)
REMARK    1  A    between atoms: C_1  and  C_2
REMARK    2  A    between atoms: C_4  and  C_5
REMARK    3  A    between atoms: N_6  and  C_7
REMARK    4  A    between atoms: C_7  and  C_8
REMARK    5  A    between atoms: C_8  and  N_9
REMARK    6  A    between atoms: C_10  and  C_12
REMARK    7  A    between atoms: C_14  and  C_15
REMARK    8  A    between atoms: C_15  and  O_16
REMARK    9  A    between atoms: O_16  and  C_17
REMARK                            x       y       z     vdW  Elec       q    Type
REMARK                         _______ _______ _______ _____ _____    ______ ____
ROOT
ATOM      1  C   UNL     1       1.437   9.009  19.141  0.00  0.00    +0.000 A 
ATOM      2  C   UNL     1       1.844   7.968  20.020  0.00  0.00    +0.000 A 
ATOM      3  C   UNL     1       2.448   7.041  19.208  0.00  0.00    +0.000 A 
ATOM      4  O   UNL     1       2.408   7.485  17.922  0.00  0.00    +0.000 OA
ATOM      5  N   UNL     1       1.769   8.713  17.871  0.00  0.00    +0.000 NA
ENDROOT
BRANCH   1   7
ATOM      6  N   UNL     1       0.207  10.949  18.439  0.00  0.00    +0.000 N 
ATOM      7  C   UNL     1       0.749  10.250  19.503  0.00  0.00    +0.000 C 
ATOM      8  O   UNL     1       0.661  10.634  20.664  0.00  0.00    +0.000 OA
ATOM      9  H   UNL     1       0.267  10.509  17.525  0.00  0.00    +0.000 HD
BRANCH   6  10
ATOM     10  C   UNL     1      -0.547  12.177  18.651  0.00  0.00    +0.000 C 
BRANCH  10  11
ATOM     11  C   UNL     1      -1.977  11.934  19.118  0.00  0.00    +0.000 C 
BRANCH  11  17
ATOM     12  C   UNL     1      -3.144  10.339  14.705  0.00  0.00    +0.000 C 
ATOM     13  C   UNL     1      -3.345  10.849  16.083  0.00  0.00    +0.000 A 
ATOM     14  C   UNL     1      -4.565  11.154  16.720  0.00  0.00    +0.000 A 
ATOM     15  C   UNL     1      -4.220  11.599  17.979  0.00  0.00    +0.000 A 
ATOM     16  C   UNL     1      -5.076  12.063  19.097  0.00  0.00    +0.000 C 
ATOM     17  N   UNL     1      -2.850  11.537  18.029  0.00  0.00    +0.000 N 
ATOM     18  N   UNL     1      -2.301  11.079  16.884  0.00  0.00    +0.000 NA
ENDBRANCH  11  17
ENDBRANCH  10  11
ENDBRANCH   6  10
ENDBRANCH   1   7
BRANCH   3  19
ATOM     19  C   UNL     1       3.089   5.722  19.432  0.00  0.00    +0.000 C 
BRANCH  19  20
ATOM     20  O   UNL     1       4.481   5.897  19.180  0.00  0.00    +0.000 OA
BRANCH  20  21
ATOM     21  C   UNL     1       5.008   5.271  18.080  0.00  0.00    +0.000 A 
ATOM     22  C   UNL     1       4.242   4.744  17.032  0.00  0.00    +0.000 A 
ATOM     23  C   UNL     1       4.869   4.169  15.922  0.00  0.00    +0.000 A 
ATOM     24  C   UNL     1       6.256   4.119  15.860  0.00  0.00    +0.000 A 
ATOM     25  F   UNL     1       6.846   3.570  14.790  0.00  0.00    +0.000 F 
ATOM     26  C   UNL     1       7.035   4.634  16.884  0.00  0.00    +0.000 A 
ATOM     27  C   UNL     1       6.412   5.214  17.990  0.00  0.00    +0.000 A 
ATOM     28 CL   UNL     1       7.418   5.845  19.247  0.00  0.00    +0.000 Cl
ENDBRANCH  20  21
ENDBRANCH  19  20
ENDBRANCH   3  19
TORSDOF 7
ENDMDL
