MODEL 1
REMARK VINA RESULT:      -7.9      0.000      0.000
REMARK  Name = 
REMARK  3 active torsions:
REMARK  status: ('A' for Active; 'I' for Inactive)
REMARK    1  A    between atoms: C_1  and  C_2
REMARK    2  A    between atoms: C_5  and  C_7
REMARK    3  A    between atoms: C_17  and  C_18
REMARK                            x       y       z     vdW  Elec       q    Type
REMARK                         _______ _______ _______ _____ _____    ______ ____
ROOT
ATOM      1  C   UNL     1       0.653   3.277  19.191  0.00  0.00    +0.000 C 
ATOM      2  C   UNL     1       1.241   3.813  20.501  0.00  0.00    +0.000 C 
ATOM      3  C   UNL     1       2.689   3.307  20.719  0.00  0.00    +0.000 C 
ATOM      4  N   UNL     1       3.636   3.972  19.819  0.00  0.00    +0.000 N 
ATOM      5  C   UNL     1       4.326   3.203  18.883  0.00  0.00    +0.000 C 
ATOM      6  O   UNL     1       4.143   1.991  18.764  0.00  0.00    +0.000 OA
ATOM      7  C   UNL     1       3.552   5.436  19.881  0.00  0.00    +0.000 C 
ATOM      8  C   UNL     1       2.111   5.945  19.675  0.00  0.00    +0.000 C 
ATOM      9  C   UNL     1       2.076   7.459  19.881  0.00  0.00    +0.000 C 
ATOM     10  N   UNL     1       1.146   5.292  20.578  0.00  0.00    +0.000 NA
ATOM     11  H   UNL     1       0.201   5.585  20.335  0.00  0.00    +0.000 HD
ENDROOT
BRANCH   5  12
ATOM     12  C   UNL     1       5.300   3.832  17.947  0.00  0.00    +0.000 A 
ATOM     13  C   UNL     1       6.412   4.555  18.398  0.00  0.00    +0.000 A 
ATOM     14  C   UNL     1       7.252   5.235  17.512  0.00  0.00    +0.000 A 
ATOM     15  C   UNL     1       7.002   5.065  16.150  0.00  0.00    +0.000 A 
ATOM     16  N   UNL     1       7.640   5.554  15.037  0.00  0.00    +0.000 N 
ATOM     17  N   UNL     1       7.125   5.114  13.876  0.00  0.00    +0.000 NA
ATOM     18  C   UNL     1       6.118   4.326  14.258  0.00  0.00    +0.000 A 
ATOM     19  C   UNL     1       5.969   4.269  15.663  0.00  0.00    +0.000 A 
ATOM     20  C   UNL     1       5.095   3.645  16.567  0.00  0.00    +0.000 A 
ATOM     21  H   UNL     1       8.431   6.180  15.008  0.00  0.00    +0.000 HD
ENDBRANCH   5  12
TORSDOF 1
ENDMDL
MODEL 2
REMARK VINA RESULT:      -7.3      1.906      2.628
REMARK  Name = 
REMARK  3 active torsions:
REMARK  status: ('A' for Active; 'I' for Inactive)
REMARK    1  A    between atoms: C_1  and  C_2
REMARK    2  A    between atoms: C_5  and  C_7
REMARK    3  A    between atoms: C_17  and  C_18
REMARK                            x       y       z     vdW  Elec       q    Type
REMARK                         _______ _______ _______ _____ _____    ______ ____
ROOT
ATOM      1  C   UNL     1       1.466   4.344  21.180  0.00  0.00    +0.000 C 
ATOM      2  C   UNL     1       1.402   2.931  20.590  0.00  0.00    +0.000 C 
ATOM      3  C   UNL     1       1.401   2.964  19.041  0.00  0.00    +0.000 C 
ATOM      4  N   UNL     1       2.720   3.315  18.506  0.00  0.00    +0.000 N 
ATOM      5  C   UNL     1       2.854   4.490  17.767  0.00  0.00    +0.000 C 
ATOM      6  O   UNL     1       1.911   5.258  17.577  0.00  0.00    +0.000 OA
ATOM      7  C   UNL     1       3.796   2.468  19.035  0.00  0.00    +0.000 C 
ATOM      8  C   UNL     1       3.796   2.423  20.577  0.00  0.00    +0.000 C 
ATOM      9  C   UNL     1       4.851   1.426  21.053  0.00  0.00    +0.000 C 
ATOM     10  N   UNL     1       2.478   2.064  21.131  0.00  0.00    +0.000 NA
ATOM     11  H   UNL     1       2.503   2.146  22.147  0.00  0.00    +0.000 HD
ENDROOT
BRANCH   5  12
ATOM     12  C   UNL     1       4.173   4.890  17.202  0.00  0.00    +0.000 A 
ATOM     13  C   UNL     1       5.032   5.780  17.861  0.00  0.00    +0.000 A 
ATOM     14  C   UNL     1       6.214   6.233  17.267  0.00  0.00    +0.000 A 
ATOM     15  C   UNL     1       6.558   5.669  16.038  0.00  0.00    +0.000 A 
ATOM     16  N   UNL     1       7.641   5.863  15.217  0.00  0.00    +0.000 N 
ATOM     17  N   UNL     1       7.643   5.081  14.124  0.00  0.00    +0.000 NA
ATOM     18  C   UNL     1       6.520   4.371  14.244  0.00  0.00    +0.000 A 
ATOM     19  C   UNL     1       5.782   4.704  15.403  0.00  0.00    +0.000 A 
ATOM     20  C   UNL     1       4.566   4.307  15.982  0.00  0.00    +0.000 A 
ATOM     21  H   UNL     1       8.409   6.504  15.354  0.00  0.00    +0.000 HD
ENDBRANCH   5  12
TORSDOF 1
ENDMDL
MODEL 3
REMARK VINA RESULT:      -7.2      1.111      1.980
REMARK  Name = 
REMARK  3 active torsions:
REMARK  status: ('A' for Active; 'I' for Inactive)
REMARK    1  A    between atoms: C_1  and  C_2
REMARK    2  A    between atoms: C_5  and  C_7
REMARK    3  A    between atoms: C_17  and  C_18
REMARK                            x       y       z     vdW  Elec       q    Type
REMARK                         _______ _______ _______ _____ _____    ______ ____
ROOT
ATOM      1  C   UNL     1       0.410   2.530  18.934  0.00  0.00    +0.000 C 
ATOM      2  C   UNL     1       1.039   2.750  20.314  0.00  0.00    +0.000 C 
ATOM      3  C   UNL     1       2.539   2.365  20.320  0.00  0.00    +0.000 C 
ATOM      4  N   UNL     1       3.354   3.348  19.600  0.00  0.00    +0.000 N 
ATOM      5  C   UNL     1       4.042   2.942  18.458  0.00  0.00    +0.000 C 
ATOM      6  O   UNL     1       3.965   1.795  18.016  0.00  0.00    +0.000 OA
ATOM      7  C   UNL     1       3.139   4.722  20.069  0.00  0.00    +0.000 C 
ATOM      8  C   UNL     1       1.646   5.109  20.075  0.00  0.00    +0.000 C 
ATOM      9  C   UNL     1       1.485   6.496  20.694  0.00  0.00    +0.000 C 
ATOM     10  N   UNL     1       0.813   4.134  20.802  0.00  0.00    +0.000 NA
ATOM     11  H   UNL     1      -0.170   4.377  20.692  0.00  0.00    +0.000 HD
ENDROOT
BRANCH   5  12
ATOM     12  C   UNL     1       4.884   3.904  17.692  0.00  0.00    +0.000 A 
ATOM     13  C   UNL     1       4.864   3.967  16.292  0.00  0.00    +0.000 A 
ATOM     14  C   UNL     1       5.740   4.794  15.584  0.00  0.00    +0.000 A 
ATOM     15  C   UNL     1       6.556   5.640  16.336  0.00  0.00    +0.000 A 
ATOM     16  N   UNL     1       7.486   6.578  15.964  0.00  0.00    +0.000 N 
ATOM     17  N   UNL     1       8.035   7.241  16.996  0.00  0.00    +0.000 NA
ATOM     18  C   UNL     1       7.444   6.702  18.065  0.00  0.00    +0.000 A 
ATOM     19  C   UNL     1       6.527   5.680  17.727  0.00  0.00    +0.000 A 
ATOM     20  C   UNL     1       5.688   4.797  18.425  0.00  0.00    +0.000 A 
ATOM     21  H   UNL     1       7.780   6.815  15.027  0.00  0.00    +0.000 HD
ENDBRANCH   5  12
TORSDOF 1
ENDMDL
MODEL 4
REMARK VINA RESULT:      -7.1      2.051      3.116
REMARK  Name = 
REMARK  3 active torsions:
REMARK  status: ('A' for Active; 'I' for Inactive)
REMARK    1  A    between atoms: C_1  and  C_2
REMARK    2  A    between atoms: C_5  and  C_7
REMARK    3  A    between atoms: C_17  and  C_18
REMARK                            x       y       z     vdW  Elec       q    Type
REMARK                         _______ _______ _______ _____ _____    ______ ____
ROOT
ATOM      1  C   UNL     1       1.230   4.285  21.066  0.00  0.00    +0.000 C 
ATOM      2  C   UNL     1       1.249   2.838  20.560  0.00  0.00    +0.000 C 
ATOM      3  C   UNL     1       1.270   2.781  19.011  0.00  0.00    +0.000 C 
ATOM      4  N   UNL     1       2.576   3.170  18.473  0.00  0.00    +0.000 N 
ATOM      5  C   UNL     1       2.659   4.305  17.667  0.00  0.00    +0.000 C 
ATOM      6  O   UNL     1       1.681   5.009  17.420  0.00  0.00    +0.000 OA
ATOM      7  C   UNL     1       3.686   2.413  19.063  0.00  0.00    +0.000 C 
ATOM      8  C   UNL     1       3.665   2.458  20.605  0.00  0.00    +0.000 C 
ATOM      9  C   UNL     1       4.764   1.548  21.152  0.00  0.00    +0.000 C 
ATOM     10  N   UNL     1       2.360   2.062  21.164  0.00  0.00    +0.000 NA
ATOM     11  H   UNL     1       2.365   2.205  22.173  0.00  0.00    +0.000 HD
ENDROOT
BRANCH   5  12
ATOM     12  C   UNL     1       3.965   4.740  17.095  0.00  0.00    +0.000 A 
ATOM     13  C   UNL     1       4.559   4.091  16.005  0.00  0.00    +0.000 A 
ATOM     14  C   UNL     1       5.835   4.438  15.552  0.00  0.00    +0.000 A 
ATOM     15  C   UNL     1       6.442   5.538  16.160  0.00  0.00    +0.000 A 
ATOM     16  N   UNL     1       7.651   6.149  15.939  0.00  0.00    +0.000 N 
ATOM     17  N   UNL     1       7.861   7.234  16.704  0.00  0.00    +0.000 NA
ATOM     18  C   UNL     1       6.754   7.313  17.446  0.00  0.00    +0.000 A 
ATOM     19  C   UNL     1       5.837   6.272  17.175  0.00  0.00    +0.000 A 
ATOM     20  C   UNL     1       4.583   5.871  17.663  0.00  0.00    +0.000 A 
ATOM     21  H   UNL     1       8.365   5.879  15.278  0.00  0.00    +0.000 HD
ENDBRANCH   5  12
TORSDOF 1
ENDMDL
MODEL 5
REMARK VINA RESULT:      -7.0      2.017      6.155
REMARK  Name = 
REMARK  3 active torsions:
REMARK  status: ('A' for Active; 'I' for Inactive)
REMARK    1  A    between atoms: C_1  and  C_2
REMARK    2  A    between atoms: C_5  and  C_7
REMARK    3  A    between atoms: C_17  and  C_18
REMARK                            x       y       z     vdW  Elec       q    Type
REMARK                         _______ _______ _______ _____ _____    ______ ____
ROOT
ATOM      1  C   UNL     1       7.096   4.399  14.960  0.00  0.00    +0.000 C 
ATOM      2  C   UNL     1       6.675   5.846  15.244  0.00  0.00    +0.000 C 
ATOM      3  C   UNL     1       5.169   5.939  15.595  0.00  0.00    +0.000 C 
ATOM      4  N   UNL     1       4.892   5.412  16.935  0.00  0.00    +0.000 N 
ATOM      5  C   UNL     1       4.067   4.295  17.060  0.00  0.00    +0.000 C 
ATOM      6  O   UNL     1       3.590   3.717  16.083  0.00  0.00    +0.000 OA
ATOM      7  C   UNL     1       5.734   6.018  17.973  0.00  0.00    +0.000 C 
ATOM      8  C   UNL     1       7.235   5.938  17.624  0.00  0.00    +0.000 C 
ATOM      9  C   UNL     1       8.040   6.699  18.677  0.00  0.00    +0.000 C 
ATOM     10  N   UNL     1       7.532   6.470  16.282  0.00  0.00    +0.000 NA
ATOM     11  H   UNL     1       8.513   6.303  16.060  0.00  0.00    +0.000 HD
ENDROOT
BRANCH   5  12
ATOM     12  C   UNL     1       3.755   3.724  18.400  0.00  0.00    +0.000 A 
ATOM     13  C   UNL     1       4.680   2.958  19.122  0.00  0.00    +0.000 A 
ATOM     14  C   UNL     1       4.335   2.335  20.324  0.00  0.00    +0.000 A 
ATOM     15  C   UNL     1       3.064   2.605  20.833  0.00  0.00    +0.000 A 
ATOM     16  N   UNL     1       2.433   2.190  21.979  0.00  0.00    +0.000 N 
ATOM     17  N   UNL     1       1.209   2.717  22.149  0.00  0.00    +0.000 NA
ATOM     18  C   UNL     1       1.047   3.487  21.071  0.00  0.00    +0.000 A 
ATOM     19  C   UNL     1       2.156   3.445  20.195  0.00  0.00    +0.000 A 
ATOM     20  C   UNL     1       2.494   4.012  18.956  0.00  0.00    +0.000 A 
ATOM     21  H   UNL     1       2.789   1.559  22.682  0.00  0.00    +0.000 HD
ENDBRANCH   5  12
TORSDOF 1
ENDMDL
MODEL 6
REMARK VINA RESULT:      -6.9      3.067      6.414
REMARK  Name = 
REMARK  3 active torsions:
REMARK  status: ('A' for Active; 'I' for Inactive)
REMARK    1  A    between atoms: C_1  and  C_2
REMARK    2  A    between atoms: C_5  and  C_7
REMARK    3  A    between atoms: C_17  and  C_18
REMARK                            x       y       z     vdW  Elec       q    Type
REMARK                         _______ _______ _______ _____ _____    ______ ____
ROOT
ATOM      1  C   UNL     1       3.201   3.264  17.087  0.00  0.00    +0.000 C 
ATOM      2  C   UNL     1       3.930   3.200  18.434  0.00  0.00    +0.000 C 
ATOM      3  C   UNL     1       4.569   4.564  18.797  0.00  0.00    +0.000 C 
ATOM      4  N   UNL     1       3.558   5.548  19.193  0.00  0.00    +0.000 N 
ATOM      5  C   UNL     1       3.398   6.696  18.419  0.00  0.00    +0.000 C 
ATOM      6  O   UNL     1       4.053   6.897  17.397  0.00  0.00    +0.000 OA
ATOM      7  C   UNL     1       2.671   5.059  20.256  0.00  0.00    +0.000 C 
ATOM      8  C   UNL     1       2.039   3.697  19.906  0.00  0.00    +0.000 C 
ATOM      9  C   UNL     1       1.237   3.188  21.103  0.00  0.00    +0.000 C 
ATOM     10  N   UNL     1       3.044   2.693  19.511  0.00  0.00    +0.000 NA
ATOM     11  H   UNL     1       2.573   1.847  19.193  0.00  0.00    +0.000 HD
ENDROOT
BRANCH   5  12
ATOM     12  C   UNL     1       2.384   7.726  18.782  0.00  0.00    +0.000 A 
ATOM     13  C   UNL     1       1.819   8.588  17.834  0.00  0.00    +0.000 A 
ATOM     14  C   UNL     1       0.955   9.622  18.206  0.00  0.00    +0.000 A 
ATOM     15  C   UNL     1       0.589   9.684  19.551  0.00  0.00    +0.000 A 
ATOM     16  N   UNL     1      -0.247  10.536  20.231  0.00  0.00    +0.000 N 
ATOM     17  N   UNL     1      -0.390  10.235  21.533  0.00  0.00    +0.000 NA
ATOM     18  C   UNL     1       0.388   9.163  21.694  0.00  0.00    +0.000 A 
ATOM     19  C   UNL     1       1.048   8.779  20.504  0.00  0.00    +0.000 A 
ATOM     20  C   UNL     1       1.965   7.786  20.125  0.00  0.00    +0.000 A 
ATOM     21  H   UNL     1      -0.751  11.328  19.860  0.00  0.00    +0.000 HD
ENDBRANCH   5  12
TORSDOF 1
ENDMDL
MODEL 7
REMARK VINA RESULT:      -6.8      2.511      3.131
REMARK  Name = 
REMARK  3 active torsions:
REMARK  status: ('A' for Active; 'I' for Inactive)
REMARK    1  A    between atoms: C_1  and  C_2
REMARK    2  A    between atoms: C_5  and  C_7
REMARK    3  A    between atoms: C_17  and  C_18
REMARK                            x       y       z     vdW  Elec       q    Type
REMARK                         _______ _______ _______ _____ _____    ______ ____
ROOT
ATOM      1  C   UNL     1       1.161   4.190  17.421  0.00  0.00    +0.000 C 
ATOM      2  C   UNL     1       1.605   2.930  18.173  0.00  0.00    +0.000 C 
ATOM      3  C   UNL     1       3.006   2.458  17.709  0.00  0.00    +0.000 C 
ATOM      4  N   UNL     1       4.067   3.340  18.205  0.00  0.00    +0.000 N 
ATOM      5  C   UNL     1       4.842   4.041  17.283  0.00  0.00    +0.000 C 
ATOM      6  O   UNL     1       4.646   3.972  16.070  0.00  0.00    +0.000 OA
ATOM      7  C   UNL     1       4.011   3.540  19.658  0.00  0.00    +0.000 C 
ATOM      8  C   UNL     1       2.616   4.000  20.128  0.00  0.00    +0.000 C 
ATOM      9  C   UNL     1       2.592   4.062  21.655  0.00  0.00    +0.000 C 
ATOM     10  N   UNL     1       1.537   3.120  19.644  0.00  0.00    +0.000 NA
ATOM     11  H   UNL     1       0.633   3.520  19.894  0.00  0.00    +0.000 HD
ENDROOT
BRANCH   5  12
ATOM     12  C   UNL     1       5.933   4.949  17.739  0.00  0.00    +0.000 A 
ATOM     13  C   UNL     1       6.927   4.535  18.635  0.00  0.00    +0.000 A 
ATOM     14  C   UNL     1       7.876   5.428  19.140  0.00  0.00    +0.000 A 
ATOM     15  C   UNL     1       7.861   6.724  18.622  0.00  0.00    +0.000 A 
ATOM     16  N   UNL     1       8.656   7.815  18.872  0.00  0.00    +0.000 N 
ATOM     17  N   UNL     1       8.358   8.889  18.123  0.00  0.00    +0.000 NA
ATOM     18  C   UNL     1       7.332   8.476  17.376  0.00  0.00    +0.000 A 
ATOM     19  C   UNL     1       6.955   7.141  17.653  0.00  0.00    +0.000 A 
ATOM     20  C   UNL     1       5.967   6.251  17.203  0.00  0.00    +0.000 A 
ATOM     21  H   UNL     1       9.417   7.882  19.532  0.00  0.00    +0.000 HD
ENDBRANCH   5  12
TORSDOF 1
ENDMDL
MODEL 8
REMARK VINA RESULT:      -6.7      2.654      6.482
REMARK  Name = 
REMARK  3 active torsions:
REMARK  status: ('A' for Active; 'I' for Inactive)
REMARK    1  A    between atoms: C_1  and  C_2
REMARK    2  A    between atoms: C_5  and  C_7
REMARK    3  A    between atoms: C_17  and  C_18
REMARK                            x       y       z     vdW  Elec       q    Type
REMARK                         _______ _______ _______ _____ _____    ______ ____
ROOT
ATOM      1  C   UNL     1       6.726   4.103  17.667  0.00  0.00    +0.000 C 
ATOM      2  C   UNL     1       6.765   4.985  16.413  0.00  0.00    +0.000 C 
ATOM      3  C   UNL     1       5.338   5.326  15.916  0.00  0.00    +0.000 C 
ATOM      4  N   UNL     1       4.677   6.298  16.791  0.00  0.00    +0.000 N 
ATOM      5  C   UNL     1       3.521   5.915  17.469  0.00  0.00    +0.000 C 
ATOM      6  O   UNL     1       3.054   4.779  17.383  0.00  0.00    +0.000 OA
ATOM      7  C   UNL     1       5.482   7.505  17.014  0.00  0.00    +0.000 C 
ATOM      8  C   UNL     1       6.907   7.173  17.500  0.00  0.00    +0.000 C 
ATOM      9  C   UNL     1       7.726   8.461  17.585  0.00  0.00    +0.000 C 
ATOM     10  N   UNL     1       7.590   6.201  16.626  0.00  0.00    +0.000 NA
ATOM     11  H   UNL     1       8.482   5.938  17.042  0.00  0.00    +0.000 HD
ENDROOT
BRANCH   5  12
ATOM     12  C   UNL     1       2.813   6.868  18.369  0.00  0.00    +0.000 A 
ATOM     13  C   UNL     1       2.584   6.591  19.723  0.00  0.00    +0.000 A 
ATOM     14  C   UNL     1       1.821   7.443  20.526  0.00  0.00    +0.000 A 
ATOM     15  C   UNL     1       1.394   8.640  19.949  0.00  0.00    +0.000 A 
ATOM     16  N   UNL     1       0.670   9.690  20.457  0.00  0.00    +0.000 N 
ATOM     17  N   UNL     1       0.504  10.706  19.593  0.00  0.00    +0.000 NA
ATOM     18  C   UNL     1       1.134  10.288  18.493  0.00  0.00    +0.000 A 
ATOM     19  C   UNL     1       1.692   8.997  18.638  0.00  0.00    +0.000 A 
ATOM     20  C   UNL     1       2.405   8.102  17.824  0.00  0.00    +0.000 A 
ATOM     21  H   UNL     1       0.273   9.772  21.382  0.00  0.00    +0.000 HD
ENDBRANCH   5  12
TORSDOF 1
ENDMDL
MODEL 9
REMARK VINA RESULT:      -6.7      1.861      6.093
REMARK  Name = 
REMARK  3 active torsions:
REMARK  status: ('A' for Active; 'I' for Inactive)
REMARK    1  A    between atoms: C_1  and  C_2
REMARK    2  A    between atoms: C_5  and  C_7
REMARK    3  A    between atoms: C_17  and  C_18
REMARK                            x       y       z     vdW  Elec       q    Type
REMARK                         _______ _______ _______ _____ _____    ______ ____
ROOT
ATOM      1  C   UNL     1       7.421   7.226  17.076  0.00  0.00    +0.000 C 
ATOM      2  C   UNL     1       7.855   5.829  16.618  0.00  0.00    +0.000 C 
ATOM      3  C   UNL     1       7.614   4.771  17.724  0.00  0.00    +0.000 C 
ATOM      4  N   UNL     1       6.189   4.466  17.881  0.00  0.00    +0.000 N 
ATOM      5  C   UNL     1       5.569   4.758  19.096  0.00  0.00    +0.000 C 
ATOM      6  O   UNL     1       6.170   5.292  20.029  0.00  0.00    +0.000 OA
ATOM      7  C   UNL     1       5.541   4.095  16.618  0.00  0.00    +0.000 C 
ATOM      8  C   UNL     1       5.785   5.140  15.509  0.00  0.00    +0.000 C 
ATOM      9  C   UNL     1       5.198   4.629  14.195  0.00  0.00    +0.000 C 
ATOM     10  N   UNL     1       7.215   5.452  15.333  0.00  0.00    +0.000 NA
ATOM     11  H   UNL     1       7.317   6.216  14.666  0.00  0.00    +0.000 HD
ENDROOT
BRANCH   5  12
ATOM     12  C   UNL     1       4.123   4.467  19.304  0.00  0.00    +0.000 A 
ATOM     13  C   UNL     1       3.266   5.359  19.961  0.00  0.00    +0.000 A 
ATOM     14  C   UNL     1       1.940   5.023  20.249  0.00  0.00    +0.000 A 
ATOM     15  C   UNL     1       1.475   3.806  19.749  0.00  0.00    +0.000 A 
ATOM     16  N   UNL     1       0.245   3.201  19.822  0.00  0.00    +0.000 N 
ATOM     17  N   UNL     1       0.171   2.035  19.157  0.00  0.00    +0.000 NA
ATOM     18  C   UNL     1       1.396   1.885  18.651  0.00  0.00    +0.000 A 
ATOM     19  C   UNL     1       2.268   2.942  19.002  0.00  0.00    +0.000 A 
ATOM     20  C   UNL     1       3.616   3.264  18.776  0.00  0.00    +0.000 A 
ATOM     21  H   UNL     1      -0.579   3.537  20.300  0.00  0.00    +0.000 HD
ENDBRANCH   5  12
TORSDOF 1
ENDMDL
