MODEL 1
REMARK VINA RESULT:      -8.0      0.000      0.000
REMARK  Name = 
REMARK  5 active torsions:
REMARK  status: ('A' for Active; 'I' for Inactive)
REMARK    1  A    between atoms: N_3  and  C_4
REMARK    2  A    between atoms: N_11  and  C_12
REMARK    3  A    between atoms: C_15  and  C_16
REMARK    4  A    between atoms: C_16  and  C_17
REMARK    5  A    between atoms: C_17  and  C_18
REMARK                            x       y       z     vdW  Elec       q    Type
REMARK                         _______ _______ _______ _____ _____    ______ ____
ROOT
ATOM      1  C   UNL     1       7.628   6.751  18.287  0.00  0.00    +0.000 A 
ATOM      2  C   UNL     1       7.049   5.745  19.062  0.00  0.00    +0.000 A 
ATOM      3  C   UNL     1       6.189   4.809  18.492  0.00  0.00    +0.000 A 
ATOM      4  C   UNL     1       5.865   4.873  17.134  0.00  0.00    +0.000 A 
ATOM      5  C   UNL     1       6.467   5.861  16.346  0.00  0.00    +0.000 A 
ATOM      6  C   UNL     1       7.336   6.799  16.921  0.00  0.00    +0.000 A 
ENDROOT
BRANCH   1  10
ATOM      7  O   UNL     1       7.574   9.585  17.777  0.00  0.00    +0.000 OA
ATOM      8  C   UNL     1       8.446   9.083  18.480  0.00  0.00    +0.000 C 
ATOM      9  N   UNL     1       9.531   9.774  18.991  0.00  0.00    +0.000 N 
ATOM     10  N   UNL     1       8.469   7.745  18.839  0.00  0.00    +0.000 N 
ATOM     11  H   UNL     1      10.289   9.211  19.345  0.00  0.00    +0.000 HD
ATOM     12  H   UNL     1       8.985   7.498  19.668  0.00  0.00    +0.000 HD
BRANCH   9  13
ATOM     13  C   UNL     1       9.813  11.140  18.753  0.00  0.00    +0.000 A 
ATOM     14  C   UNL     1       9.264  12.181  19.509  0.00  0.00    +0.000 A 
ATOM     15  C   UNL     1       9.500  13.514  19.170  0.00  0.00    +0.000 A 
ATOM     16  C   UNL     1      10.304  13.819  18.081  0.00  0.00    +0.000 A 
ATOM     17 CL   UNL     1      10.554  15.460  17.635  0.00  0.00    +0.000 Cl
ATOM     18  C   UNL     1      10.899  12.796  17.345  0.00  0.00    +0.000 A 
ATOM     19  C   UNL     1      10.660  11.458  17.687  0.00  0.00    +0.000 A 
ENDBRANCH   9  13
ENDBRANCH   1  10
BRANCH   4  20
ATOM     20  C   UNL     1       4.876   3.891  16.557  0.00  0.00    +0.000 C 
BRANCH  20  21
ATOM     21  C   UNL     1       4.081   3.176  17.661  0.00  0.00    +0.000 C 
BRANCH  21  22
ATOM     22  C   UNL     1       2.562   3.179  17.418  0.00  0.00    +0.000 C 
ATOM     23  C   UNL     1       1.954   4.535  17.769  0.00  0.00    +0.000 C 
ATOM     24  C   UNL     1       1.607   4.389  19.236  0.00  0.00    +0.000 C 
ATOM     25  N   UNL     1       1.093   3.023  19.343  0.00  0.00    +0.000 NA
ATOM     26  C   UNL     1       1.809   2.216  18.343  0.00  0.00    +0.000 C 
ATOM     27  H   UNL     1       0.101   3.029  19.101  0.00  0.00    +0.000 HD
ENDBRANCH  21  22
ENDBRANCH  20  21
ENDBRANCH   4  20
TORSDOF 5
ENDMDL
MODEL 2
REMARK VINA RESULT:      -7.8      0.642      1.108
REMARK  Name = 
REMARK  5 active torsions:
REMARK  status: ('A' for Active; 'I' for Inactive)
REMARK    1  A    between atoms: N_3  and  C_4
REMARK    2  A    between atoms: N_11  and  C_12
REMARK    3  A    between atoms: C_15  and  C_16
REMARK    4  A    between atoms: C_16  and  C_17
REMARK    5  A    between atoms: C_17  and  C_18
REMARK                            x       y       z     vdW  Elec       q    Type
REMARK                         _______ _______ _______ _____ _____    ______ ____
ROOT
ATOM      1  C   UNL     1       7.592   6.782  18.235  0.00  0.00    +0.000 A 
ATOM      2  C   UNL     1       7.485   5.445  18.623  0.00  0.00    +0.000 A 
ATOM      3  C   UNL     1       6.590   4.586  17.989  0.00  0.00    +0.000 A 
ATOM      4  C   UNL     1       5.758   5.052  16.968  0.00  0.00    +0.000 A 
ATOM      5  C   UNL     1       5.884   6.383  16.553  0.00  0.00    +0.000 A 
ATOM      6  C   UNL     1       6.788   7.245  17.190  0.00  0.00    +0.000 A 
ENDROOT
BRANCH   1  10
ATOM      7  O   UNL     1       7.763   9.630  17.844  0.00  0.00    +0.000 OA
ATOM      8  C   UNL     1       8.547   9.043  18.582  0.00  0.00    +0.000 C 
ATOM      9  N   UNL     1       9.638   9.637  19.195  0.00  0.00    +0.000 N 
ATOM     10  N   UNL     1       8.456   7.694  18.885  0.00  0.00    +0.000 N 
ATOM     11  H   UNL     1      10.329   9.010  19.576  0.00  0.00    +0.000 HD
ATOM     12  H   UNL     1       8.895   7.381  19.737  0.00  0.00    +0.000 HD
BRANCH   9  13
ATOM     13  C   UNL     1      10.025  10.988  19.035  0.00  0.00    +0.000 A 
ATOM     14  C   UNL     1      10.367  11.549  17.799  0.00  0.00    +0.000 A 
ATOM     15  C   UNL     1      10.833  12.861  17.713  0.00  0.00    +0.000 A 
ATOM     16  C   UNL     1      10.945  13.633  18.860  0.00  0.00    +0.000 A 
ATOM     17 CL   UNL     1      11.566  15.232  18.759  0.00  0.00    +0.000 Cl
ATOM     18  C   UNL     1      10.563  13.108  20.093  0.00  0.00    +0.000 A 
ATOM     19  C   UNL     1      10.095  11.790  20.178  0.00  0.00    +0.000 A 
ENDBRANCH   9  13
ENDBRANCH   1  10
BRANCH   4  20
ATOM     20  C   UNL     1       4.748   4.119  16.346  0.00  0.00    +0.000 C 
BRANCH  20  21
ATOM     21  C   UNL     1       4.074   3.231  17.405  0.00  0.00    +0.000 C 
BRANCH  21  22
ATOM     22  C   UNL     1       2.538   3.256  17.332  0.00  0.00    +0.000 C 
ATOM     23  C   UNL     1       1.989   4.607  17.787  0.00  0.00    +0.000 C 
ATOM     24  C   UNL     1       1.805   4.420  19.279  0.00  0.00    +0.000 C 
ATOM     25  N   UNL     1       1.289   3.056  19.403  0.00  0.00    +0.000 NA
ATOM     26  C   UNL     1       1.879   2.273  18.307  0.00  0.00    +0.000 C 
ATOM     27  H   UNL     1       0.276   3.078  19.273  0.00  0.00    +0.000 HD
ENDBRANCH  21  22
ENDBRANCH  20  21
ENDBRANCH   4  20
TORSDOF 5
ENDMDL
MODEL 3
REMARK VINA RESULT:      -7.7      6.365      8.520
REMARK  Name = 
REMARK  5 active torsions:
REMARK  status: ('A' for Active; 'I' for Inactive)
REMARK    1  A    between atoms: N_3  and  C_4
REMARK    2  A    between atoms: N_11  and  C_12
REMARK    3  A    between atoms: C_15  and  C_16
REMARK    4  A    between atoms: C_16  and  C_17
REMARK    5  A    between atoms: C_17  and  C_18
REMARK                            x       y       z     vdW  Elec       q    Type
REMARK                         _______ _______ _______ _____ _____    ______ ____
ROOT
ATOM      1  C   UNL     1       1.854   7.353  20.309  0.00  0.00    +0.000 A 
ATOM      2  C   UNL     1       2.288   7.739  19.040  0.00  0.00    +0.000 A 
ATOM      3  C   UNL     1       2.679   6.788  18.099  0.00  0.00    +0.000 A 
ATOM      4  C   UNL     1       2.671   5.427  18.416  0.00  0.00    +0.000 A 
ATOM      5  C   UNL     1       2.206   5.034  19.677  0.00  0.00    +0.000 A 
ATOM      6  C   UNL     1       1.808   5.992  20.620  0.00  0.00    +0.000 A 
ENDROOT
BRANCH   1  10
ATOM      7  O   UNL     1      -0.375   9.177  20.284  0.00  0.00    +0.000 OA
ATOM      8  C   UNL     1       0.456   9.203  21.186  0.00  0.00    +0.000 C 
ATOM      9  N   UNL     1       0.486  10.153  22.193  0.00  0.00    +0.000 N 
ATOM     10  N   UNL     1       1.492   8.292  21.304  0.00  0.00    +0.000 N 
ATOM     11  H   UNL     1       1.340  10.209  22.726  0.00  0.00    +0.000 HD
ATOM     12  H   UNL     1       1.894   8.165  22.220  0.00  0.00    +0.000 HD
BRANCH   9  13
ATOM     13  C   UNL     1      -0.408  11.244  22.310  0.00  0.00    +0.000 A 
ATOM     14  C   UNL     1      -0.196  12.481  21.694  0.00  0.00    +0.000 A 
ATOM     15  C   UNL     1      -1.061  13.552  21.921  0.00  0.00    +0.000 A 
ATOM     16  C   UNL     1      -2.160  13.390  22.752  0.00  0.00    +0.000 A 
ATOM     17 CL   UNL     1      -3.196  14.723  23.070  0.00  0.00    +0.000 Cl
ATOM     18  C   UNL     1      -2.415  12.151  23.336  0.00  0.00    +0.000 A 
ATOM     19  C   UNL     1      -1.544  11.077  23.108  0.00  0.00    +0.000 A 
ENDBRANCH   9  13
ENDBRANCH   1  10
BRANCH   4  20
ATOM     20  C   UNL     1       3.166   4.423  17.405  0.00  0.00    +0.000 C 
BRANCH  20  21
ATOM     21  C   UNL     1       4.622   4.015  17.682  0.00  0.00    +0.000 C 
BRANCH  21  22
ATOM     22  C   UNL     1       5.636   5.131  17.383  0.00  0.00    +0.000 C 
ATOM     23  C   UNL     1       5.647   5.477  15.895  0.00  0.00    +0.000 C 
ATOM     24  C   UNL     1       6.687   4.533  15.328  0.00  0.00    +0.000 C 
ATOM     25  N   UNL     1       7.742   4.519  16.342  0.00  0.00    +0.000 NA
ATOM     26  C   UNL     1       7.086   4.706  17.646  0.00  0.00    +0.000 C 
ATOM     27  H   UNL     1       8.362   5.313  16.177  0.00  0.00    +0.000 HD
ENDBRANCH  21  22
ENDBRANCH  20  21
ENDBRANCH   4  20
TORSDOF 5
ENDMDL
MODEL 4
REMARK VINA RESULT:      -7.7      0.871      1.835
REMARK  Name = 
REMARK  5 active torsions:
REMARK  status: ('A' for Active; 'I' for Inactive)
REMARK    1  A    between atoms: N_3  and  C_4
REMARK    2  A    between atoms: N_11  and  C_12
REMARK    3  A    between atoms: C_15  and  C_16
REMARK    4  A    between atoms: C_16  and  C_17
REMARK    5  A    between atoms: C_17  and  C_18
REMARK                            x       y       z     vdW  Elec       q    Type
REMARK                         _______ _______ _______ _____ _____    ______ ____
ROOT
ATOM      1  C   UNL     1       7.953   7.184  18.432  0.00  0.00    +0.000 A 
ATOM      2  C   UNL     1       7.186   7.411  17.287  0.00  0.00    +0.000 A 
ATOM      3  C   UNL     1       6.493   6.370  16.674  0.00  0.00    +0.000 A 
ATOM      4  C   UNL     1       6.572   5.068  17.176  0.00  0.00    +0.000 A 
ATOM      5  C   UNL     1       7.313   4.842  18.342  0.00  0.00    +0.000 A 
ATOM      6  C   UNL     1       8.006   5.892  18.960  0.00  0.00    +0.000 A 
ENDROOT
BRANCH   1  10
ATOM      7  O   UNL     1       7.990   9.990  17.781  0.00  0.00    +0.000 OA
ATOM      8  C   UNL     1       8.744   9.525  18.631  0.00  0.00    +0.000 C 
ATOM      9  N   UNL     1       9.743  10.243  19.266  0.00  0.00    +0.000 N 
ATOM     10  N   UNL     1       8.706   8.207  19.055  0.00  0.00    +0.000 N 
ATOM     11  H   UNL     1      10.436   9.701  19.758  0.00  0.00    +0.000 HD
ATOM     12  H   UNL     1       9.089   8.003  19.964  0.00  0.00    +0.000 HD
BRANCH   9  13
ATOM     13  C   UNL     1      10.063  11.597  19.006  0.00  0.00    +0.000 A 
ATOM     14  C   UNL     1      10.764  12.017  17.870  0.00  0.00    +0.000 A 
ATOM     15  C   UNL     1      11.136  13.352  17.711  0.00  0.00    +0.000 A 
ATOM     16  C   UNL     1      10.794  14.286  18.679  0.00  0.00    +0.000 A 
ATOM     17 CL   UNL     1      11.296  15.920  18.506  0.00  0.00    +0.000 Cl
ATOM     18  C   UNL     1      10.054  13.896  19.793  0.00  0.00    +0.000 A 
ATOM     19  C   UNL     1       9.681  12.554  19.951  0.00  0.00    +0.000 A 
ENDBRANCH   9  13
ENDBRANCH   1  10
BRANCH   4  20
ATOM     20  C   UNL     1       5.869   3.947  16.452  0.00  0.00    +0.000 C 
BRANCH  20  21
ATOM     21  C   UNL     1       4.351   4.180  16.388  0.00  0.00    +0.000 C 
BRANCH  21  22
ATOM     22  C   UNL     1       3.672   4.155  17.768  0.00  0.00    +0.000 C 
ATOM     23  C   UNL     1       3.694   2.749  18.364  0.00  0.00    +0.000 C 
ATOM     24  C   UNL     1       2.410   2.134  17.844  0.00  0.00    +0.000 C 
ATOM     25  N   UNL     1       1.437   3.224  17.928  0.00  0.00    +0.000 NA
ATOM     26  C   UNL     1       2.174   4.476  17.700  0.00  0.00    +0.000 C 
ATOM     27  H   UNL     1       1.053   3.245  18.874  0.00  0.00    +0.000 HD
ENDBRANCH  21  22
ENDBRANCH  20  21
ENDBRANCH   4  20
TORSDOF 5
ENDMDL
MODEL 5
REMARK VINA RESULT:      -7.6      0.778      1.057
REMARK  Name = 
REMARK  5 active torsions:
REMARK  status: ('A' for Active; 'I' for Inactive)
REMARK    1  A    between atoms: N_3  and  C_4
REMARK    2  A    between atoms: N_11  and  C_12
REMARK    3  A    between atoms: C_15  and  C_16
REMARK    4  A    between atoms: C_16  and  C_17
REMARK    5  A    between atoms: C_17  and  C_18
REMARK                            x       y       z     vdW  Elec       q    Type
REMARK                         _______ _______ _______ _____ _____    ______ ____
ROOT
ATOM      1  C   UNL     1       7.847   7.009  18.297  0.00  0.00    +0.000 A 
ATOM      2  C   UNL     1       7.787   5.725  18.842  0.00  0.00    +0.000 A 
ATOM      3  C   UNL     1       6.975   4.745  18.273  0.00  0.00    +0.000 A 
ATOM      4  C   UNL     1       6.182   5.035  17.160  0.00  0.00    +0.000 A 
ATOM      5  C   UNL     1       6.263   6.312  16.591  0.00  0.00    +0.000 A 
ATOM      6  C   UNL     1       7.084   7.295  17.162  0.00  0.00    +0.000 A 
ENDROOT
BRANCH   1  10
ATOM      7  O   UNL     1       7.752   9.825  17.703  0.00  0.00    +0.000 OA
ATOM      8  C   UNL     1       8.589   9.367  18.474  0.00  0.00    +0.000 C 
ATOM      9  N   UNL     1       9.621  10.102  19.034  0.00  0.00    +0.000 N 
ATOM     10  N   UNL     1       8.624   8.041  18.873  0.00  0.00    +0.000 N 
ATOM     11  H   UNL     1      10.369   9.571  19.452  0.00  0.00    +0.000 HD
ATOM     12  H   UNL     1       9.092   7.832  19.741  0.00  0.00    +0.000 HD
BRANCH   9  13
ATOM     13  C   UNL     1       9.881  11.469  18.775  0.00  0.00    +0.000 A 
ATOM     14  C   UNL     1       9.311  12.513  19.511  0.00  0.00    +0.000 A 
ATOM     15  C   UNL     1       9.527  13.844  19.151  0.00  0.00    +0.000 A 
ATOM     16  C   UNL     1      10.332  14.144  18.062  0.00  0.00    +0.000 A 
ATOM     17 CL   UNL     1      10.557  15.781  17.589  0.00  0.00    +0.000 Cl
ATOM     18  C   UNL     1      10.947  13.120  17.346  0.00  0.00    +0.000 A 
ATOM     19  C   UNL     1      10.729  11.784  17.708  0.00  0.00    +0.000 A 
ENDBRANCH   9  13
ENDBRANCH   1  10
BRANCH   4  20
ATOM     20  C   UNL     1       5.259   3.978  16.607  0.00  0.00    +0.000 C 
BRANCH  20  21
ATOM     21  C   UNL     1       3.884   4.014  17.294  0.00  0.00    +0.000 C 
BRANCH  21  22
ATOM     22  C   UNL     1       3.801   3.116  18.540  0.00  0.00    +0.000 C 
ATOM     23  C   UNL     1       2.971   1.865  18.259  0.00  0.00    +0.000 C 
ATOM     24  C   UNL     1       1.563   2.298  18.615  0.00  0.00    +0.000 C 
ATOM     25  N   UNL     1       1.738   3.114  19.817  0.00  0.00    +0.000 NA
ATOM     26  C   UNL     1       3.047   3.775  19.701  0.00  0.00    +0.000 C 
ATOM     27  H   UNL     1       1.760   2.495  20.629  0.00  0.00    +0.000 HD
ENDBRANCH  21  22
ENDBRANCH  20  21
ENDBRANCH   4  20
TORSDOF 5
ENDMDL
MODEL 6
REMARK VINA RESULT:      -7.6      5.692      7.843
REMARK  Name = 
REMARK  5 active torsions:
REMARK  status: ('A' for Active; 'I' for Inactive)
REMARK    1  A    between atoms: N_3  and  C_4
REMARK    2  A    between atoms: N_11  and  C_12
REMARK    3  A    between atoms: C_15  and  C_16
REMARK    4  A    between atoms: C_16  and  C_17
REMARK    5  A    between atoms: C_17  and  C_18
REMARK                            x       y       z     vdW  Elec       q    Type
REMARK                         _______ _______ _______ _____ _____    ______ ____
ROOT
ATOM      1  C   UNL     1       3.904   5.952  17.979  0.00  0.00    +0.000 A 
ATOM      2  C   UNL     1       4.668   6.835  17.215  0.00  0.00    +0.000 A 
ATOM      3  C   UNL     1       5.359   6.393  16.088  0.00  0.00    +0.000 A 
ATOM      4  C   UNL     1       5.323   5.047  15.714  0.00  0.00    +0.000 A 
ATOM      5  C   UNL     1       4.533   4.164  16.458  0.00  0.00    +0.000 A 
ATOM      6  C   UNL     1       3.835   4.612  17.589  0.00  0.00    +0.000 A 
ENDROOT
BRANCH   1  10
ATOM      7  O   UNL     1       1.833   7.938  18.224  0.00  0.00    +0.000 OA
ATOM      8  C   UNL     1       2.302   7.384  19.214  0.00  0.00    +0.000 C 
ATOM      9  N   UNL     1       1.988   7.720  20.520  0.00  0.00    +0.000 N 
ATOM     10  N   UNL     1       3.227   6.355  19.154  0.00  0.00    +0.000 N 
ATOM     11  H   UNL     1       2.606   7.363  21.231  0.00  0.00    +0.000 HD
ATOM     12  H   UNL     1       3.287   5.740  19.950  0.00  0.00    +0.000 HD
BRANCH   9  13
ATOM     13  C   UNL     1       1.115   8.767  20.903  0.00  0.00    +0.000 A 
ATOM     14  C   UNL     1       0.709   9.786  20.036  0.00  0.00    +0.000 A 
ATOM     15  C   UNL     1      -0.075  10.845  20.493  0.00  0.00    +0.000 A 
ATOM     16  C   UNL     1      -0.479  10.885  21.820  0.00  0.00    +0.000 A 
ATOM     17 CL   UNL     1      -1.403  12.215  22.394  0.00  0.00    +0.000 Cl
ATOM     18  C   UNL     1      -0.125   9.854  22.688  0.00  0.00    +0.000 A 
ATOM     19  C   UNL     1       0.664   8.791  22.226  0.00  0.00    +0.000 A 
ENDBRANCH   9  13
ENDBRANCH   1  10
BRANCH   4  20
ATOM     20  C   UNL     1       6.136   4.581  14.531  0.00  0.00    +0.000 C 
BRANCH  20  21
ATOM     21  C   UNL     1       5.341   3.604  13.650  0.00  0.00    +0.000 C 
BRANCH  21  22
ATOM     22  C   UNL     1       5.731   3.668  12.164  0.00  0.00    +0.000 C 
ATOM     23  C   UNL     1       4.973   2.620  11.353  0.00  0.00    +0.000 C 
ATOM     24  C   UNL     1       5.878   1.407  11.424  0.00  0.00    +0.000 C 
ATOM     25  N   UNL     1       7.226   1.964  11.297  0.00  0.00    +0.000 NA
ATOM     26  C   UNL     1       7.198   3.298  11.917  0.00  0.00    +0.000 C 
ATOM     27  H   UNL     1       7.440   2.075  10.305  0.00  0.00    +0.000 HD
ENDBRANCH  21  22
ENDBRANCH  20  21
ENDBRANCH   4  20
TORSDOF 5
ENDMDL
MODEL 7
REMARK VINA RESULT:      -7.5      7.124      9.011
REMARK  Name = 
REMARK  5 active torsions:
REMARK  status: ('A' for Active; 'I' for Inactive)
REMARK    1  A    between atoms: N_3  and  C_4
REMARK    2  A    between atoms: N_11  and  C_12
REMARK    3  A    between atoms: C_15  and  C_16
REMARK    4  A    between atoms: C_16  and  C_17
REMARK    5  A    between atoms: C_17  and  C_18
REMARK                            x       y       z     vdW  Elec       q    Type
REMARK                         _______ _______ _______ _____ _____    ______ ____
ROOT
ATOM      1  C   UNL     1       1.597   8.984  19.583  0.00  0.00    +0.000 A 
ATOM      2  C   UNL     1       1.789   7.861  20.390  0.00  0.00    +0.000 A 
ATOM      3  C   UNL     1       2.258   6.665  19.850  0.00  0.00    +0.000 A 
ATOM      4  C   UNL     1       2.522   6.556  18.482  0.00  0.00    +0.000 A 
ATOM      5  C   UNL     1       2.362   7.688  17.675  0.00  0.00    +0.000 A 
ATOM      6  C   UNL     1       1.893   8.892  18.220  0.00  0.00    +0.000 A 
ENDROOT
BRANCH   1  10
ATOM      7  O   UNL     1      -0.716   9.352  21.260  0.00  0.00    +0.000 OA
ATOM      8  C   UNL     1      -0.094  10.313  20.816  0.00  0.00    +0.000 C 
ATOM      9  N   UNL     1      -0.485  11.633  20.965  0.00  0.00    +0.000 N 
ATOM     10  N   UNL     1       1.079  10.200  20.087  0.00  0.00    +0.000 N 
ATOM     11  H   UNL     1      -0.029  12.301  20.363  0.00  0.00    +0.000 HD
ATOM     12  H   UNL     1       1.691  11.000  20.070  0.00  0.00    +0.000 HD
BRANCH   9  13
ATOM     13  C   UNL     1      -1.666  12.064  21.613  0.00  0.00    +0.000 A 
ATOM     14  C   UNL     1      -1.836  12.034  23.001  0.00  0.00    +0.000 A 
ATOM     15  C   UNL     1      -3.057  12.381  23.581  0.00  0.00    +0.000 A 
ATOM     16  C   UNL     1      -4.116  12.781  22.778  0.00  0.00    +0.000 A 
ATOM     17 CL   UNL     1      -5.633  13.161  23.489  0.00  0.00    +0.000 Cl
ATOM     18  C   UNL     1      -3.951  12.864  21.397  0.00  0.00    +0.000 A 
ATOM     19  C   UNL     1      -2.724  12.514  20.817  0.00  0.00    +0.000 A 
ENDBRANCH   9  13
ENDBRANCH   1  10
BRANCH   4  20
ATOM     20  C   UNL     1       2.962   5.231  17.911  0.00  0.00    +0.000 C 
BRANCH  20  21
ATOM     21  C   UNL     1       1.763   4.311  17.631  0.00  0.00    +0.000 C 
BRANCH  21  22
ATOM     22  C   UNL     1       1.917   2.906  18.236  0.00  0.00    +0.000 C 
ATOM     23  C   UNL     1       0.754   2.581  19.171  0.00  0.00    +0.000 C 
ATOM     24  C   UNL     1       1.237   3.091  20.513  0.00  0.00    +0.000 C 
ATOM     25  N   UNL     1       2.654   2.726  20.541  0.00  0.00    +0.000 NA
ATOM     26  C   UNL     1       3.139   2.784  19.154  0.00  0.00    +0.000 C 
ATOM     27  H   UNL     1       2.735   1.763  20.870  0.00  0.00    +0.000 HD
ENDBRANCH  21  22
ENDBRANCH  20  21
ENDBRANCH   4  20
TORSDOF 5
ENDMDL
MODEL 8
REMARK VINA RESULT:      -7.5      6.255      8.379
REMARK  Name = 
REMARK  5 active torsions:
REMARK  status: ('A' for Active; 'I' for Inactive)
REMARK    1  A    between atoms: N_3  and  C_4
REMARK    2  A    between atoms: N_11  and  C_12
REMARK    3  A    between atoms: C_15  and  C_16
REMARK    4  A    between atoms: C_16  and  C_17
REMARK    5  A    between atoms: C_17  and  C_18
REMARK                            x       y       z     vdW  Elec       q    Type
REMARK                         _______ _______ _______ _____ _____    ______ ____
ROOT
ATOM      1  C   UNL     1       1.900   7.165  20.405  0.00  0.00    +0.000 A 
ATOM      2  C   UNL     1       1.828   5.795  20.662  0.00  0.00    +0.000 A 
ATOM      3  C   UNL     1       2.135   4.864  19.671  0.00  0.00    +0.000 A 
ATOM      4  C   UNL     1       2.495   5.284  18.388  0.00  0.00    +0.000 A 
ATOM      5  C   UNL     1       2.599   6.656  18.134  0.00  0.00    +0.000 A 
ATOM      6  C   UNL     1       2.295   7.591  19.134  0.00  0.00    +0.000 A 
ENDROOT
BRANCH   1  10
ATOM      7  O   UNL     1      -0.376   8.929  20.389  0.00  0.00    +0.000 OA
ATOM      8  C   UNL     1       0.488   9.017  21.255  0.00  0.00    +0.000 C 
ATOM      9  N   UNL     1       0.532  10.011  22.218  0.00  0.00    +0.000 N 
ATOM     10  N   UNL     1       1.553   8.137  21.372  0.00  0.00    +0.000 N 
ATOM     11  H   UNL     1       1.405  10.111  22.713  0.00  0.00    +0.000 HD
ATOM     12  H   UNL     1       1.993   8.062  22.275  0.00  0.00    +0.000 HD
BRANCH   9  13
ATOM     13  C   UNL     1      -0.385  11.083  22.323  0.00  0.00    +0.000 A 
ATOM     14  C   UNL     1      -1.506  11.057  23.160  0.00  0.00    +0.000 A 
ATOM     15  C   UNL     1      -2.429  12.103  23.153  0.00  0.00    +0.000 A 
ATOM     16  C   UNL     1      -2.230  13.196  22.322  0.00  0.00    +0.000 A 
ATOM     17 CL   UNL     1      -3.393  14.461  22.278  0.00  0.00    +0.000 Cl
ATOM     18  C   UNL     1      -1.095  13.263  21.517  0.00  0.00    +0.000 A 
ATOM     19  C   UNL     1      -0.169  12.211  21.525  0.00  0.00    +0.000 A 
ENDBRANCH   9  13
ENDBRANCH   1  10
BRANCH   4  20
ATOM     20  C   UNL     1       2.753   4.256  17.314  0.00  0.00    +0.000 C 
BRANCH  20  21
ATOM     21  C   UNL     1       4.232   3.837  17.277  0.00  0.00    +0.000 C 
BRANCH  21  22
ATOM     22  C   UNL     1       5.197   5.024  17.119  0.00  0.00    +0.000 C 
ATOM     23  C   UNL     1       5.460   5.323  15.644  0.00  0.00    +0.000 C 
ATOM     24  C   UNL     1       6.656   4.450  15.323  0.00  0.00    +0.000 C 
ATOM     25  N   UNL     1       7.500   4.554  16.514  0.00  0.00    +0.000 NA
ATOM     26  C   UNL     1       6.600   4.727  17.664  0.00  0.00    +0.000 C 
ATOM     27  H   UNL     1       8.079   5.391  16.430  0.00  0.00    +0.000 HD
ENDBRANCH  21  22
ENDBRANCH  20  21
ENDBRANCH   4  20
TORSDOF 5
ENDMDL
MODEL 9
REMARK VINA RESULT:      -7.5      6.263      8.451
REMARK  Name = 
REMARK  5 active torsions:
REMARK  status: ('A' for Active; 'I' for Inactive)
REMARK    1  A    between atoms: N_3  and  C_4
REMARK    2  A    between atoms: N_11  and  C_12
REMARK    3  A    between atoms: C_15  and  C_16
REMARK    4  A    between atoms: C_16  and  C_17
REMARK    5  A    between atoms: C_17  and  C_18
REMARK                            x       y       z     vdW  Elec       q    Type
REMARK                         _______ _______ _______ _____ _____    ______ ____
ROOT
ATOM      1  C   UNL     1       1.877   7.207  20.319  0.00  0.00    +0.000 A 
ATOM      2  C   UNL     1       2.350   7.582  19.060  0.00  0.00    +0.000 A 
ATOM      3  C   UNL     1       2.730   6.623  18.124  0.00  0.00    +0.000 A 
ATOM      4  C   UNL     1       2.670   5.262  18.435  0.00  0.00    +0.000 A 
ATOM      5  C   UNL     1       2.167   4.879  19.684  0.00  0.00    +0.000 A 
ATOM      6  C   UNL     1       1.781   5.847  20.623  0.00  0.00    +0.000 A 
ENDROOT
BRANCH   1  10
ATOM      7  O   UNL     1      -0.336   9.050  20.289  0.00  0.00    +0.000 OA
ATOM      8  C   UNL     1       0.498   9.074  21.189  0.00  0.00    +0.000 C 
ATOM      9  N   UNL     1       0.538  10.028  22.192  0.00  0.00    +0.000 N 
ATOM     10  N   UNL     1       1.526   8.153  21.310  0.00  0.00    +0.000 N 
ATOM     11  H   UNL     1       1.394  10.078  22.722  0.00  0.00    +0.000 HD
ATOM     12  H   UNL     1       1.929   8.028  22.225  0.00  0.00    +0.000 HD
BRANCH   9  13
ATOM     13  C   UNL     1      -0.346  11.127  22.305  0.00  0.00    +0.000 A 
ATOM     14  C   UNL     1      -1.486  11.116  23.116  0.00  0.00    +0.000 A 
ATOM     15  C   UNL     1      -2.374  12.192  23.117  0.00  0.00    +0.000 A 
ATOM     16  C   UNL     1      -2.120  13.300  22.321  0.00  0.00    +0.000 A 
ATOM     17 CL   UNL     1      -3.240  14.603  22.285  0.00  0.00    +0.000 Cl
ATOM     18  C   UNL     1      -0.965  13.350  21.544  0.00  0.00    +0.000 A 
ATOM     19  C   UNL     1      -0.074  12.267  21.544  0.00  0.00    +0.000 A 
ENDBRANCH   9  13
ENDBRANCH   1  10
BRANCH   4  20
ATOM     20  C   UNL     1       3.153   4.246  17.429  0.00  0.00    +0.000 C 
BRANCH  20  21
ATOM     21  C   UNL     1       4.680   4.302  17.260  0.00  0.00    +0.000 C 
BRANCH  21  22
ATOM     22  C   UNL     1       5.149   5.427  16.323  0.00  0.00    +0.000 C 
ATOM     23  C   UNL     1       5.359   4.905  14.903  0.00  0.00    +0.000 C 
ATOM     24  C   UNL     1       6.806   4.459  14.909  0.00  0.00    +0.000 C 
ATOM     25  N   UNL     1       7.491   5.491  15.690  0.00  0.00    +0.000 NA
ATOM     26  C   UNL     1       6.532   5.975  16.694  0.00  0.00    +0.000 C 
ATOM     27  H   UNL     1       7.725   6.267  15.068  0.00  0.00    +0.000 HD
ENDBRANCH  21  22
ENDBRANCH  20  21
ENDBRANCH   4  20
TORSDOF 5
ENDMDL
