MODEL 1
REMARK VINA RESULT:      -7.4      0.000      0.000
REMARK  Name = 
REMARK  3 active torsions:
REMARK  status: ('A' for Active; 'I' for Inactive)
REMARK    1  A    between atoms: C_2  and  C_14
REMARK    2  A    between atoms: N_3  and  C_4
REMARK    3  A    between atoms: N_8  and  C_9
REMARK                            x       y       z     vdW  Elec       q    Type
REMARK                         _______ _______ _______ _____ _____    ______ ____
ROOT
ATOM      1  C   UNL     1       6.756   4.745  17.561  0.00  0.00    +0.000 A 
ATOM      2  C   UNL     1       7.740   5.387  18.285  0.00  0.00    +0.000 A 
ATOM      3  C   UNL     1       7.225   5.521  19.582  0.00  0.00    +0.000 A 
ATOM      4  N   UNL     1       5.992   5.030  19.686  0.00  0.00    +0.000 NA
ATOM      5  N   UNL     1       5.716   4.562  18.450  0.00  0.00    +0.000 N 
ENDROOT
BRANCH   5   6
ATOM      6  C   UNL     1       4.483   3.826  18.243  0.00  0.00    +0.000 C 
ATOM      7  C   UNL     1       3.831   3.381  19.554  0.00  0.00    +0.000 C 
ATOM      8  C   UNL     1       2.376   3.125  19.195  0.00  0.00    +0.000 C 
ATOM      9  C   UNL     1       2.067   4.008  17.990  0.00  0.00    +0.000 C 
ATOM     10  C   UNL     1       3.387   4.628  17.538  0.00  0.00    +0.000 C 
ENDBRANCH   5   6
BRANCH   1  13
ATOM     11  O   UNL     1       5.745   6.237  15.359  0.00  0.00    +0.000 OA
ATOM     12  C   UNL     1       6.272   5.152  15.155  0.00  0.00    +0.000 C 
ATOM     13  N   UNL     1       6.804   4.358  16.229  0.00  0.00    +0.000 N 
ATOM     14  H   UNL     1       7.282   3.504  15.962  0.00  0.00    +0.000 HD
BRANCH  12  15
ATOM     15  C   UNL     1       6.486   4.571  13.855  0.00  0.00    +0.000 A 
ATOM     16  C   UNL     1       7.440   4.841  12.893  0.00  0.00    +0.000 A 
ATOM     17  C   UNL     1       7.182   3.970  11.811  0.00  0.00    +0.000 A 
ATOM     18  C   UNL     1       6.086   3.223  12.173  0.00  0.00    +0.000 A 
ATOM     19  O   UNL     1       5.661   3.568  13.419  0.00  0.00    +0.000 OA
ENDBRANCH  12  15
ENDBRANCH   1  13
TORSDOF 3
ENDMDL
MODEL 2
REMARK VINA RESULT:      -7.4      2.071      5.620
REMARK  Name = 
REMARK  3 active torsions:
REMARK  status: ('A' for Active; 'I' for Inactive)
REMARK    1  A    between atoms: C_2  and  C_14
REMARK    2  A    between atoms: N_3  and  C_4
REMARK    3  A    between atoms: N_8  and  C_9
REMARK                            x       y       z     vdW  Elec       q    Type
REMARK                         _______ _______ _______ _____ _____    ______ ____
ROOT
ATOM      1  C   UNL     1       5.416   4.289  15.966  0.00  0.00    +0.000 A 
ATOM      2  C   UNL     1       5.619   3.930  14.649  0.00  0.00    +0.000 A 
ATOM      3  C   UNL     1       6.710   4.697  14.215  0.00  0.00    +0.000 A 
ATOM      4  N   UNL     1       7.163   5.509  15.167  0.00  0.00    +0.000 NA
ATOM      5  N   UNL     1       6.367   5.255  16.228  0.00  0.00    +0.000 N 
ENDROOT
BRANCH   5   6
ATOM      6  C   UNL     1       6.679   5.881  17.499  0.00  0.00    +0.000 C 
ATOM      7  C   UNL     1       7.576   5.013  18.383  0.00  0.00    +0.000 C 
ATOM      8  C   UNL     1       8.206   5.986  19.368  0.00  0.00    +0.000 C 
ATOM      9  C   UNL     1       8.230   7.345  18.676  0.00  0.00    +0.000 C 
ATOM     10  C   UNL     1       7.445   7.199  17.374  0.00  0.00    +0.000 C 
ENDBRANCH   5   6
BRANCH   1  13
ATOM     11  O   UNL     1       3.417   5.804  17.309  0.00  0.00    +0.000 OA
ATOM     12  C   UNL     1       3.480   4.598  17.498  0.00  0.00    +0.000 C 
ATOM     13  N   UNL     1       4.466   3.782  16.844  0.00  0.00    +0.000 N 
ATOM     14  H   UNL     1       4.404   2.783  17.007  0.00  0.00    +0.000 HD
BRANCH  12  15
ATOM     15  C   UNL     1       2.569   3.842  18.319  0.00  0.00    +0.000 A 
ATOM     16  C   UNL     1       2.481   3.723  19.692  0.00  0.00    +0.000 A 
ATOM     17  C   UNL     1       1.400   2.853  19.955  0.00  0.00    +0.000 A 
ATOM     18  C   UNL     1       0.894   2.488  18.729  0.00  0.00    +0.000 A 
ATOM     19  O   UNL     1       1.587   3.094  17.726  0.00  0.00    +0.000 OA
ENDBRANCH  12  15
ENDBRANCH   1  13
TORSDOF 3
ENDMDL
MODEL 3
REMARK VINA RESULT:      -7.2      0.858      1.352
REMARK  Name = 
REMARK  3 active torsions:
REMARK  status: ('A' for Active; 'I' for Inactive)
REMARK    1  A    between atoms: C_2  and  C_14
REMARK    2  A    between atoms: N_3  and  C_4
REMARK    3  A    between atoms: N_8  and  C_9
REMARK                            x       y       z     vdW  Elec       q    Type
REMARK                         _______ _______ _______ _____ _____    ______ ____
ROOT
ATOM      1  C   UNL     1       6.559   4.684  17.615  0.00  0.00    +0.000 A 
ATOM      2  C   UNL     1       7.707   5.193  18.187  0.00  0.00    +0.000 A 
ATOM      3  C   UNL     1       7.362   5.493  19.514  0.00  0.00    +0.000 A 
ATOM      4  N   UNL     1       6.085   5.225  19.774  0.00  0.00    +0.000 NA
ATOM      5  N   UNL     1       5.605   4.734  18.611  0.00  0.00    +0.000 N 
ENDROOT
BRANCH   5   6
ATOM      6  C   UNL     1       4.255   4.205  18.582  0.00  0.00    +0.000 C 
ATOM      7  C   UNL     1       3.289   5.086  17.786  0.00  0.00    +0.000 C 
ATOM      8  C   UNL     1       2.135   4.165  17.423  0.00  0.00    +0.000 C 
ATOM      9  C   UNL     1       2.706   2.750  17.391  0.00  0.00    +0.000 C 
ATOM     10  C   UNL     1       4.136   2.831  17.918  0.00  0.00    +0.000 C 
ENDBRANCH   5   6
BRANCH   1  13
ATOM     11  O   UNL     1       5.871   6.256  15.346  0.00  0.00    +0.000 OA
ATOM     12  C   UNL     1       6.047   5.054  15.208  0.00  0.00    +0.000 C 
ATOM     13  N   UNL     1       6.400   4.211  16.318  0.00  0.00    +0.000 N 
ATOM     14  H   UNL     1       6.592   3.239  16.102  0.00  0.00    +0.000 HD
BRANCH  12  15
ATOM     15  C   UNL     1       5.993   4.350  13.953  0.00  0.00    +0.000 A 
ATOM     16  C   UNL     1       4.972   3.624  13.371  0.00  0.00    +0.000 A 
ATOM     17  C   UNL     1       5.466   3.151  12.134  0.00  0.00    +0.000 A 
ATOM     18  C   UNL     1       6.758   3.612  12.035  0.00  0.00    +0.000 A 
ATOM     19  O   UNL     1       7.087   4.355  13.128  0.00  0.00    +0.000 OA
ENDBRANCH  12  15
ENDBRANCH   1  13
TORSDOF 3
ENDMDL
MODEL 4
REMARK VINA RESULT:      -7.2      2.458      6.051
REMARK  Name = 
REMARK  3 active torsions:
REMARK  status: ('A' for Active; 'I' for Inactive)
REMARK    1  A    between atoms: C_2  and  C_14
REMARK    2  A    between atoms: N_3  and  C_4
REMARK    3  A    between atoms: N_8  and  C_9
REMARK                            x       y       z     vdW  Elec       q    Type
REMARK                         _______ _______ _______ _____ _____    ______ ____
ROOT
ATOM      1  C   UNL     1       5.210   4.681  16.381  0.00  0.00    +0.000 A 
ATOM      2  C   UNL     1       5.381   3.968  15.213  0.00  0.00    +0.000 A 
ATOM      3  C   UNL     1       6.594   4.422  14.672  0.00  0.00    +0.000 A 
ATOM      4  N   UNL     1       7.151   5.373  15.416  0.00  0.00    +0.000 NA
ATOM      5  N   UNL     1       6.299   5.525  16.454  0.00  0.00    +0.000 N 
ENDROOT
BRANCH   5   6
ATOM      6  C   UNL     1       6.679   6.403  17.545  0.00  0.00    +0.000 C 
ATOM      7  C   UNL     1       7.723   5.777  18.473  0.00  0.00    +0.000 C 
ATOM      8  C   UNL     1       8.364   6.958  19.184  0.00  0.00    +0.000 C 
ATOM      9  C   UNL     1       8.213   8.157  18.253  0.00  0.00    +0.000 C 
ATOM     10  C   UNL     1       7.323   7.716  17.095  0.00  0.00    +0.000 C 
ENDBRANCH   5   6
BRANCH   1  13
ATOM     11  O   UNL     1       5.346   3.365  18.900  0.00  0.00    +0.000 OA
ATOM     12  C   UNL     1       4.295   3.886  18.555  0.00  0.00    +0.000 C 
ATOM     13  N   UNL     1       4.169   4.568  17.295  0.00  0.00    +0.000 N 
ATOM     14  H   UNL     1       3.282   5.027  17.118  0.00  0.00    +0.000 HD
BRANCH  12  15
ATOM     15  C   UNL     1       3.100   3.945  19.356  0.00  0.00    +0.000 A 
ATOM     16  C   UNL     1       1.858   4.485  19.083  0.00  0.00    +0.000 A 
ATOM     17  C   UNL     1       1.060   4.261  20.227  0.00  0.00    +0.000 A 
ATOM     18  C   UNL     1       1.860   3.603  21.131  0.00  0.00    +0.000 A 
ATOM     19  O   UNL     1       3.099   3.392  20.609  0.00  0.00    +0.000 OA
ENDBRANCH  12  15
ENDBRANCH   1  13
TORSDOF 3
ENDMDL
MODEL 5
REMARK VINA RESULT:      -7.1      2.238      5.652
REMARK  Name = 
REMARK  3 active torsions:
REMARK  status: ('A' for Active; 'I' for Inactive)
REMARK    1  A    between atoms: C_2  and  C_14
REMARK    2  A    between atoms: N_3  and  C_4
REMARK    3  A    between atoms: N_8  and  C_9
REMARK                            x       y       z     vdW  Elec       q    Type
REMARK                         _______ _______ _______ _____ _____    ______ ____
ROOT
ATOM      1  C   UNL     1       5.234   4.690  15.738  0.00  0.00    +0.000 A 
ATOM      2  C   UNL     1       5.494   4.239  14.460  0.00  0.00    +0.000 A 
ATOM      3  C   UNL     1       6.772   4.724  14.145  0.00  0.00    +0.000 A 
ATOM      4  N   UNL     1       7.289   5.454  15.130  0.00  0.00    +0.000 NA
ATOM      5  N   UNL     1       6.344   5.428  16.094  0.00  0.00    +0.000 N 
ENDROOT
BRANCH   5   6
ATOM      6  C   UNL     1       6.647   6.022  17.383  0.00  0.00    +0.000 C 
ATOM      7  C   UNL     1       7.466   5.095  18.284  0.00  0.00    +0.000 C 
ATOM      8  C   UNL     1       8.115   6.021  19.301  0.00  0.00    +0.000 C 
ATOM      9  C   UNL     1       8.235   7.385  18.629  0.00  0.00    +0.000 C 
ATOM     10  C   UNL     1       7.488   7.298  17.301  0.00  0.00    +0.000 C 
ENDBRANCH   5   6
BRANCH   1  13
ATOM     11  O   UNL     1       4.887   2.514  17.538  0.00  0.00    +0.000 OA
ATOM     12  C   UNL     1       3.981   3.324  17.399  0.00  0.00    +0.000 C 
ATOM     13  N   UNL     1       4.103   4.445  16.506  0.00  0.00    +0.000 N 
ATOM     14  H   UNL     1       3.330   5.102  16.502  0.00  0.00    +0.000 HD
BRANCH  12  15
ATOM     15  C   UNL     1       2.740   3.308  18.128  0.00  0.00    +0.000 A 
ATOM     16  C   UNL     1       2.160   4.264  18.939  0.00  0.00    +0.000 A 
ATOM     17  C   UNL     1       0.939   3.719  19.397  0.00  0.00    +0.000 A 
ATOM     18  C   UNL     1       0.847   2.464  18.843  0.00  0.00    +0.000 A 
ATOM     19  O   UNL     1       1.929   2.206  18.058  0.00  0.00    +0.000 OA
ENDBRANCH  12  15
ENDBRANCH   1  13
TORSDOF 3
ENDMDL
MODEL 6
REMARK VINA RESULT:      -7.0      2.533      3.602
REMARK  Name = 
REMARK  3 active torsions:
REMARK  status: ('A' for Active; 'I' for Inactive)
REMARK    1  A    between atoms: C_2  and  C_14
REMARK    2  A    between atoms: N_3  and  C_4
REMARK    3  A    between atoms: N_8  and  C_9
REMARK                            x       y       z     vdW  Elec       q    Type
REMARK                         _______ _______ _______ _____ _____    ______ ____
ROOT
ATOM      1  C   UNL     1       2.958   6.600  18.415  0.00  0.00    +0.000 A 
ATOM      2  C   UNL     1       2.582   7.919  18.569  0.00  0.00    +0.000 A 
ATOM      3  C   UNL     1       1.870   7.967  19.777  0.00  0.00    +0.000 A 
ATOM      4  N   UNL     1       1.769   6.769  20.348  0.00  0.00    +0.000 NA
ATOM      5  N   UNL     1       2.432   5.944  19.510  0.00  0.00    +0.000 N 
ENDROOT
BRANCH   5   6
ATOM      6  C   UNL     1       2.636   4.564  19.907  0.00  0.00    +0.000 C 
ATOM      7  C   UNL     1       2.235   4.300  21.359  0.00  0.00    +0.000 C 
ATOM      8  C   UNL     1       2.011   2.797  21.431  0.00  0.00    +0.000 C 
ATOM      9  C   UNL     1       1.625   2.351  20.024  0.00  0.00    +0.000 C 
ATOM     10  C   UNL     1       1.811   3.555  19.105  0.00  0.00    +0.000 C 
ENDBRANCH   5   6
BRANCH   1  13
ATOM     11  O   UNL     1       5.747   6.048  18.509  0.00  0.00    +0.000 OA
ATOM     12  C   UNL     1       5.123   5.798  17.488  0.00  0.00    +0.000 C 
ATOM     13  N   UNL     1       3.711   6.052  17.385  0.00  0.00    +0.000 N 
ATOM     14  H   UNL     1       3.262   5.753  16.526  0.00  0.00    +0.000 HD
BRANCH  12  15
ATOM     15  C   UNL     1       5.676   5.176  16.313  0.00  0.00    +0.000 A 
ATOM     16  C   UNL     1       5.337   4.001  15.671  0.00  0.00    +0.000 A 
ATOM     17  C   UNL     1       6.210   3.876  14.566  0.00  0.00    +0.000 A 
ATOM     18  C   UNL     1       7.032   4.978  14.601  0.00  0.00    +0.000 A 
ATOM     19  O   UNL     1       6.709   5.784  15.649  0.00  0.00    +0.000 OA
ENDBRANCH  12  15
ENDBRANCH   1  13
TORSDOF 3
ENDMDL
MODEL 7
REMARK VINA RESULT:      -7.0      3.466      6.285
REMARK  Name = 
REMARK  3 active torsions:
REMARK  status: ('A' for Active; 'I' for Inactive)
REMARK    1  A    between atoms: C_2  and  C_14
REMARK    2  A    between atoms: N_3  and  C_4
REMARK    3  A    between atoms: N_8  and  C_9
REMARK                            x       y       z     vdW  Elec       q    Type
REMARK                         _______ _______ _______ _____ _____    ______ ____
ROOT
ATOM      1  C   UNL     1       2.540   4.319  17.864  0.00  0.00    +0.000 A 
ATOM      2  C   UNL     1       1.792   3.218  18.227  0.00  0.00    +0.000 A 
ATOM      3  C   UNL     1       2.621   2.110  17.995  0.00  0.00    +0.000 A 
ATOM      4  N   UNL     1       3.803   2.462  17.496  0.00  0.00    +0.000 NA
ATOM      5  N   UNL     1       3.743   3.809  17.418  0.00  0.00    +0.000 N 
ENDROOT
BRANCH   5   6
ATOM      6  C   UNL     1       4.937   4.540  17.037  0.00  0.00    +0.000 C 
ATOM      7  C   UNL     1       6.038   4.470  18.097  0.00  0.00    +0.000 C 
ATOM      8  C   UNL     1       7.319   4.800  17.346  0.00  0.00    +0.000 C 
ATOM      9  C   UNL     1       7.083   4.398  15.894  0.00  0.00    +0.000 C 
ATOM     10  C   UNL     1       5.611   4.015  15.767  0.00  0.00    +0.000 C 
ENDBRANCH   5   6
BRANCH   1  13
ATOM     11  O   UNL     1       3.271   6.133  19.931  0.00  0.00    +0.000 OA
ATOM     12  C   UNL     1       2.565   6.526  19.013  0.00  0.00    +0.000 C 
ATOM     13  N   UNL     1       2.168   5.655  17.940  0.00  0.00    +0.000 N 
ATOM     14  H   UNL     1       1.637   6.082  17.188  0.00  0.00    +0.000 HD
BRANCH  12  15
ATOM     15  C   UNL     1       2.103   7.880  18.849  0.00  0.00    +0.000 A 
ATOM     16  C   UNL     1       2.178   8.731  17.763  0.00  0.00    +0.000 A 
ATOM     17  C   UNL     1       1.563   9.942  18.156  0.00  0.00    +0.000 A 
ATOM     18  C   UNL     1       1.154   9.761  19.456  0.00  0.00    +0.000 A 
ATOM     19  O   UNL     1       1.463   8.507  19.885  0.00  0.00    +0.000 OA
ENDBRANCH  12  15
ENDBRANCH   1  13
TORSDOF 3
ENDMDL
MODEL 8
REMARK VINA RESULT:      -6.9      1.278      1.625
REMARK  Name = 
REMARK  3 active torsions:
REMARK  status: ('A' for Active; 'I' for Inactive)
REMARK    1  A    between atoms: C_2  and  C_14
REMARK    2  A    between atoms: N_3  and  C_4
REMARK    3  A    between atoms: N_8  and  C_9
REMARK                            x       y       z     vdW  Elec       q    Type
REMARK                         _______ _______ _______ _____ _____    ______ ____
ROOT
ATOM      1  C   UNL     1       6.343   4.556  16.679  0.00  0.00    +0.000 A 
ATOM      2  C   UNL     1       7.596   4.550  17.257  0.00  0.00    +0.000 A 
ATOM      3  C   UNL     1       7.434   5.162  18.509  0.00  0.00    +0.000 A 
ATOM      4  N   UNL     1       6.180   5.557  18.716  0.00  0.00    +0.000 NA
ATOM      5  N   UNL     1       5.525   5.185  17.596  0.00  0.00    +0.000 N 
ENDROOT
BRANCH   5   6
ATOM      6  C   UNL     1       4.083   5.345  17.546  0.00  0.00    +0.000 C 
ATOM      7  C   UNL     1       3.339   4.008  17.535  0.00  0.00    +0.000 C 
ATOM      8  C   UNL     1       1.933   4.345  18.006  0.00  0.00    +0.000 C 
ATOM      9  C   UNL     1       2.055   5.595  18.872  0.00  0.00    +0.000 C 
ATOM     10  C   UNL     1       3.495   6.087  18.747  0.00  0.00    +0.000 C 
ENDBRANCH   5   6
BRANCH   1  13
ATOM     11  O   UNL     1       7.487   5.261  14.172  0.00  0.00    +0.000 OA
ATOM     12  C   UNL     1       6.592   4.429  14.207  0.00  0.00    +0.000 C 
ATOM     13  N   UNL     1       5.979   4.031  15.446  0.00  0.00    +0.000 N 
ATOM     14  H   UNL     1       5.291   3.288  15.389  0.00  0.00    +0.000 HD
BRANCH  12  15
ATOM     15  C   UNL     1       6.088   3.709  13.066  0.00  0.00    +0.000 A 
ATOM     16  C   UNL     1       6.732   2.878  12.170  0.00  0.00    +0.000 A 
ATOM     17  C   UNL     1       5.754   2.442  11.248  0.00  0.00    +0.000 A 
ATOM     18  C   UNL     1       4.573   3.034  11.632  0.00  0.00    +0.000 A 
ATOM     19  O   UNL     1       4.759   3.796  12.745  0.00  0.00    +0.000 OA
ENDBRANCH  12  15
ENDBRANCH   1  13
TORSDOF 3
ENDMDL
MODEL 9
REMARK VINA RESULT:      -6.9      1.534      1.817
REMARK  Name = 
REMARK  3 active torsions:
REMARK  status: ('A' for Active; 'I' for Inactive)
REMARK    1  A    between atoms: C_2  and  C_14
REMARK    2  A    between atoms: N_3  and  C_4
REMARK    3  A    between atoms: N_8  and  C_9
REMARK                            x       y       z     vdW  Elec       q    Type
REMARK                         _______ _______ _______ _____ _____    ______ ____
ROOT
ATOM      1  C   UNL     1       6.553   4.653  16.992  0.00  0.00    +0.000 A 
ATOM      2  C   UNL     1       7.797   4.526  17.577  0.00  0.00    +0.000 A 
ATOM      3  C   UNL     1       7.688   5.151  18.828  0.00  0.00    +0.000 A 
ATOM      4  N   UNL     1       6.478   5.667  19.029  0.00  0.00    +0.000 NA
ATOM      5  N   UNL     1       5.796   5.360  17.904  0.00  0.00    +0.000 N 
ENDROOT
BRANCH   5   6
ATOM      6  C   UNL     1       4.378   5.660  17.846  0.00  0.00    +0.000 C 
ATOM      7  C   UNL     1       3.691   5.546  19.209  0.00  0.00    +0.000 C 
ATOM      8  C   UNL     1       2.421   6.372  19.072  0.00  0.00    +0.000 C 
ATOM      9  C   UNL     1       2.702   7.421  18.001  0.00  0.00    +0.000 C 
ATOM     10  C   UNL     1       4.059   7.085  17.388  0.00  0.00    +0.000 C 
ENDBRANCH   5   6
BRANCH   1  13
ATOM     11  O   UNL     1       7.605   5.441  14.469  0.00  0.00    +0.000 OA
ATOM     12  C   UNL     1       6.714   4.605  14.510  0.00  0.00    +0.000 C 
ATOM     13  N   UNL     1       6.147   4.167  15.757  0.00  0.00    +0.000 N 
ATOM     14  H   UNL     1       5.460   3.423  15.701  0.00  0.00    +0.000 HD
BRANCH  12  15
ATOM     15  C   UNL     1       6.172   3.920  13.365  0.00  0.00    +0.000 A 
ATOM     16  C   UNL     1       6.797   3.192  12.372  0.00  0.00    +0.000 A 
ATOM     17  C   UNL     1       5.781   2.742  11.499  0.00  0.00    +0.000 A 
ATOM     18  C   UNL     1       4.597   3.223  12.008  0.00  0.00    +0.000 A 
ATOM     19  O   UNL     1       4.819   3.929  13.151  0.00  0.00    +0.000 OA
ENDBRANCH  12  15
ENDBRANCH   1  13
TORSDOF 3
ENDMDL
