MODEL 1
REMARK VINA RESULT:      -8.1      0.000      0.000
REMARK  Name = 
REMARK  7 active torsions:
REMARK  status: ('A' for Active; 'I' for Inactive)
REMARK    1  A    between atoms: C_2  and  C_17
REMARK    2  A    between atoms: C_7  and  C_8
REMARK    3  A    between atoms: C_10  and  O_11
REMARK    4  A    between atoms: C_12  and  C_13
REMARK    5  A    between atoms: C_13  and  O_14
REMARK    6  A    between atoms: C_21  and  O_22
REMARK    7  A    between atoms: O_22  and  C_23
REMARK                            x       y       z     vdW  Elec       q    Type
REMARK                         _______ _______ _______ _____ _____    ______ ____
ROOT
ATOM      1  O   UNL     1       7.553   9.497  17.579  0.00  0.00    +0.000 OA
ATOM      2  C   UNL     1       8.424   9.202  18.391  0.00  0.00    +0.000 C 
ATOM      3  N   UNL     1       8.635   7.965  18.955  0.00  0.00    +0.000 N 
ATOM      4  C   UNL     1       7.927   6.822  18.663  0.00  0.00    +0.000 A 
ATOM      5  N   UNL     1       7.981   5.746  19.415  0.00  0.00    +0.000 NA
ATOM      6  N   UNL     1       7.188   4.729  18.926  0.00  0.00    +0.000 NA
ATOM      7  C   UNL     1       6.592   5.063  17.796  0.00  0.00    +0.000 A 
ATOM      8  S   UNL     1       6.962   6.654  17.268  0.00  0.00    +0.000 S 
ATOM      9  H   UNL     1       9.218   7.878  19.777  0.00  0.00    +0.000 HD
ENDROOT
BRANCH   2  10
ATOM     10  C   UNL     1       9.303  10.293  18.894  0.00  0.00    +0.000 A 
ATOM     11  C   UNL     1       9.496  10.521  20.262  0.00  0.00    +0.000 A 
ATOM     12  C   UNL     1      10.351  11.542  20.670  0.00  0.00    +0.000 A 
ATOM     13  C   UNL     1      10.984  12.347  19.718  0.00  0.00    +0.000 A 
ATOM     14  C   UNL     1      10.771  12.146  18.349  0.00  0.00    +0.000 A 
ATOM     15  C   UNL     1       9.968  11.083  17.947  0.00  0.00    +0.000 A 
BRANCH  14  16
ATOM     16  O   UNL     1      11.440  13.000  17.531  0.00  0.00    +0.000 OA
BRANCH  16  17
ATOM     17  C   UNL     1      11.030  14.360  17.443  0.00  0.00    +0.000 C 
ATOM     18  F   UNL     1      11.618  15.179  18.339  0.00  0.00    +0.000 F 
ATOM     19  F   UNL     1      11.339  14.818  16.209  0.00  0.00    +0.000 F 
ATOM     20  F   UNL     1       9.692  14.432  17.596  0.00  0.00    +0.000 F 
ENDBRANCH  16  17
ENDBRANCH  14  16
ENDBRANCH   2  10
BRANCH   7  21
ATOM     21  C   UNL     1       5.655   4.182  17.017  0.00  0.00    +0.000 C 
ATOM     22  C   UNL     1       4.473   4.935  16.428  0.00  0.00    +0.000 C 
ATOM     23  C   UNL     1       3.430   4.876  17.523  0.00  0.00    +0.000 C 
ATOM     24  C   UNL     1       3.735   3.558  18.235  0.00  0.00    +0.000 C 
ATOM     25  O   UNL     1       5.111   3.208  17.929  0.00  0.00    +0.000 OA
BRANCH  23  26
ATOM     26  O   UNL     1       3.557   5.999  18.391  0.00  0.00    +0.000 OA
ATOM     27  H   UNL     1       4.391   5.929  18.901  0.00  0.00    +0.000 HD
ENDBRANCH  23  26
BRANCH  24  28
ATOM     28  C   UNL     1       2.842   2.421  17.726  0.00  0.00    +0.000 C 
BRANCH  28  29
ATOM     29  O   UNL     1       2.312   1.670  18.816  0.00  0.00    +0.000 OA
ATOM     30  H   UNL     1       2.596   0.746  18.672  0.00  0.00    +0.000 HD
ENDBRANCH  28  29
ENDBRANCH  24  28
ENDBRANCH   7  21
TORSDOF 7
ENDMDL
MODEL 2
REMARK VINA RESULT:      -7.9      9.373     11.786
REMARK  Name = 
REMARK  7 active torsions:
REMARK  status: ('A' for Active; 'I' for Inactive)
REMARK    1  A    between atoms: C_2  and  C_17
REMARK    2  A    between atoms: C_7  and  C_8
REMARK    3  A    between atoms: C_10  and  O_11
REMARK    4  A    between atoms: C_12  and  C_13
REMARK    5  A    between atoms: C_13  and  O_14
REMARK    6  A    between atoms: C_21  and  O_22
REMARK    7  A    between atoms: O_22  and  C_23
REMARK                            x       y       z     vdW  Elec       q    Type
REMARK                         _______ _______ _______ _____ _____    ______ ____
ROOT
ATOM      1  O   UNL     1       1.339   9.572  19.018  0.00  0.00    +0.000 OA
ATOM      2  C   UNL     1       1.358   8.723  19.902  0.00  0.00    +0.000 C 
ATOM      3  N   UNL     1       0.880   8.862  21.186  0.00  0.00    +0.000 N 
ATOM      4  C   UNL     1       0.248   9.976  21.686  0.00  0.00    +0.000 A 
ATOM      5  N   UNL     1       0.059  10.164  22.972  0.00  0.00    +0.000 NA
ATOM      6  N   UNL     1      -0.594  11.350  23.235  0.00  0.00    +0.000 NA
ATOM      7  C   UNL     1      -0.912  11.998  22.130  0.00  0.00    +0.000 A 
ATOM      8  S   UNL     1      -0.417  11.195  20.696  0.00  0.00    +0.000 S 
ATOM      9  H   UNL     1       1.150   8.198  21.899  0.00  0.00    +0.000 HD
ENDROOT
BRANCH   2  10
ATOM     10  C   UNL     1       2.034   7.430  19.609  0.00  0.00    +0.000 A 
ATOM     11  C   UNL     1       2.798   7.234  18.453  0.00  0.00    +0.000 A 
ATOM     12  C   UNL     1       3.426   6.007  18.248  0.00  0.00    +0.000 A 
ATOM     13  C   UNL     1       3.267   4.976  19.178  0.00  0.00    +0.000 A 
ATOM     14  C   UNL     1       2.478   5.153  20.321  0.00  0.00    +0.000 A 
ATOM     15  C   UNL     1       1.907   6.400  20.553  0.00  0.00    +0.000 A 
BRANCH  14  16
ATOM     16  O   UNL     1       2.399   4.071  21.139  0.00  0.00    +0.000 OA
BRANCH  16  17
ATOM     17  C   UNL     1       1.447   3.048  20.868  0.00  0.00    +0.000 C 
ATOM     18  F   UNL     1       1.925   2.020  20.138  0.00  0.00    +0.000 F 
ATOM     19  F   UNL     1       1.018   2.544  22.048  0.00  0.00    +0.000 F 
ATOM     20  F   UNL     1       0.388   3.585  20.229  0.00  0.00    +0.000 F 
ENDBRANCH  16  17
ENDBRANCH  14  16
ENDBRANCH   2  10
BRANCH   7  21
ATOM     21  C   UNL     1      -1.618  13.324  22.075  0.00  0.00    +0.000 C 
ATOM     22  C   UNL     1      -2.234  13.734  23.403  0.00  0.00    +0.000 C 
ATOM     23  C   UNL     1      -3.619  13.126  23.358  0.00  0.00    +0.000 C 
ATOM     24  C   UNL     1      -3.958  13.125  21.867  0.00  0.00    +0.000 C 
ATOM     25  O   UNL     1      -2.706  13.202  21.137  0.00  0.00    +0.000 OA
BRANCH  23  26
ATOM     26  O   UNL     1      -3.604  11.812  23.908  0.00  0.00    +0.000 OA
ATOM     27  H   UNL     1      -2.737  11.643  24.334  0.00  0.00    +0.000 HD
ENDBRANCH  23  26
BRANCH  24  28
ATOM     28  C   UNL     1      -4.799  14.346  21.478  0.00  0.00    +0.000 C 
BRANCH  28  29
ATOM     29  O   UNL     1      -4.282  14.959  20.299  0.00  0.00    +0.000 OA
ATOM     30  H   UNL     1      -3.785  14.263  19.827  0.00  0.00    +0.000 HD
ENDBRANCH  28  29
ENDBRANCH  24  28
ENDBRANCH   7  21
TORSDOF 7
ENDMDL
MODEL 3
REMARK VINA RESULT:      -7.8      1.898      2.524
REMARK  Name = 
REMARK  7 active torsions:
REMARK  status: ('A' for Active; 'I' for Inactive)
REMARK    1  A    between atoms: C_2  and  C_17
REMARK    2  A    between atoms: C_7  and  C_8
REMARK    3  A    between atoms: C_10  and  O_11
REMARK    4  A    between atoms: C_12  and  C_13
REMARK    5  A    between atoms: C_13  and  O_14
REMARK    6  A    between atoms: C_21  and  O_22
REMARK    7  A    between atoms: O_22  and  C_23
REMARK                            x       y       z     vdW  Elec       q    Type
REMARK                         _______ _______ _______ _____ _____    ______ ____
ROOT
ATOM      1  O   UNL     1       7.499   9.485  17.529  0.00  0.00    +0.000 OA
ATOM      2  C   UNL     1       8.415   9.196  18.290  0.00  0.00    +0.000 C 
ATOM      3  N   UNL     1       8.641   7.971  18.876  0.00  0.00    +0.000 N 
ATOM      4  C   UNL     1       7.895   6.836  18.666  0.00  0.00    +0.000 A 
ATOM      5  N   UNL     1       7.979   5.781  19.444  0.00  0.00    +0.000 NA
ATOM      6  N   UNL     1       7.136   4.766  19.039  0.00  0.00    +0.000 NA
ATOM      7  C   UNL     1       6.473   5.079  17.942  0.00  0.00    +0.000 A 
ATOM      8  S   UNL     1       6.835   6.646  17.343  0.00  0.00    +0.000 S 
ATOM      9  H   UNL     1       9.276   7.897  19.660  0.00  0.00    +0.000 HD
ENDROOT
BRANCH   2  10
ATOM     10  C   UNL     1       9.346  10.283  18.702  0.00  0.00    +0.000 A 
ATOM     11  C   UNL     1      10.273  10.844  17.816  0.00  0.00    +0.000 A 
ATOM     12  C   UNL     1      11.099  11.876  18.256  0.00  0.00    +0.000 A 
ATOM     13  C   UNL     1      11.019  12.322  19.578  0.00  0.00    +0.000 A 
ATOM     14  C   UNL     1      10.118  11.743  20.479  0.00  0.00    +0.000 A 
ATOM     15  C   UNL     1       9.249  10.758  20.017  0.00  0.00    +0.000 A 
BRANCH  14  16
ATOM     16  O   UNL     1      10.145  12.262  21.735  0.00  0.00    +0.000 OA
BRANCH  16  17
ATOM     17  C   UNL     1       9.331  13.386  22.052  0.00  0.00    +0.000 C 
ATOM     18  F   UNL     1       8.364  13.647  21.149  0.00  0.00    +0.000 F 
ATOM     19  F   UNL     1       8.727  13.151  23.239  0.00  0.00    +0.000 F 
ATOM     20  F   UNL     1      10.112  14.478  22.186  0.00  0.00    +0.000 F 
ENDBRANCH  16  17
ENDBRANCH  14  16
ENDBRANCH   2  10
BRANCH   7  21
ATOM     21  C   UNL     1       5.470   4.196  17.253  0.00  0.00    +0.000 C 
ATOM     22  C   UNL     1       4.338   4.969  16.597  0.00  0.00    +0.000 C 
ATOM     23  C   UNL     1       3.304   5.089  17.694  0.00  0.00    +0.000 C 
ATOM     24  C   UNL     1       3.522   3.828  18.529  0.00  0.00    +0.000 C 
ATOM     25  O   UNL     1       4.867   3.354  18.256  0.00  0.00    +0.000 OA
BRANCH  23  26
ATOM     26  O   UNL     1       3.515   6.279  18.450  0.00  0.00    +0.000 OA
ATOM     27  H   UNL     1       3.242   6.131  19.380  0.00  0.00    +0.000 HD
ENDBRANCH  23  26
BRANCH  24  28
ATOM     28  C   UNL     1       2.547   2.713  18.134  0.00  0.00    +0.000 C 
BRANCH  28  29
ATOM     29  O   UNL     1       3.226   1.462  18.033  0.00  0.00    +0.000 OA
ATOM     30  H   UNL     1       3.939   1.593  17.379  0.00  0.00    +0.000 HD
ENDBRANCH  28  29
ENDBRANCH  24  28
ENDBRANCH   7  21
TORSDOF 7
ENDMDL
MODEL 4
REMARK VINA RESULT:      -7.7      7.137      9.652
REMARK  Name = 
REMARK  7 active torsions:
REMARK  status: ('A' for Active; 'I' for Inactive)
REMARK    1  A    between atoms: C_2  and  C_17
REMARK    2  A    between atoms: C_7  and  C_8
REMARK    3  A    between atoms: C_10  and  O_11
REMARK    4  A    between atoms: C_12  and  C_13
REMARK    5  A    between atoms: C_13  and  O_14
REMARK    6  A    between atoms: C_21  and  O_22
REMARK    7  A    between atoms: O_22  and  C_23
REMARK                            x       y       z     vdW  Elec       q    Type
REMARK                         _______ _______ _______ _____ _____    ______ ____
ROOT
ATOM      1  O   UNL     1       2.208   8.065  17.850  0.00  0.00    +0.000 OA
ATOM      2  C   UNL     1       2.351   7.285  18.785  0.00  0.00    +0.000 C 
ATOM      3  N   UNL     1       2.068   7.530  20.110  0.00  0.00    +0.000 N 
ATOM      4  C   UNL     1       1.523   8.690  20.608  0.00  0.00    +0.000 A 
ATOM      5  N   UNL     1       1.527   8.978  21.890  0.00  0.00    +0.000 NA
ATOM      6  N   UNL     1       0.927  10.192  22.153  0.00  0.00    +0.000 NA
ATOM      7  C   UNL     1       0.455  10.760  21.059  0.00  0.00    +0.000 A 
ATOM      8  S   UNL     1       0.729   9.842  19.635  0.00  0.00    +0.000 S 
ATOM      9  H   UNL     1       2.435   6.917  20.825  0.00  0.00    +0.000 HD
ENDROOT
BRANCH   2  10
ATOM     10  C   UNL     1       2.968   5.961  18.497  0.00  0.00    +0.000 A 
ATOM     11  C   UNL     1       2.226   4.889  17.989  0.00  0.00    +0.000 A 
ATOM     12  C   UNL     1       2.867   3.682  17.718  0.00  0.00    +0.000 A 
ATOM     13  C   UNL     1       4.232   3.540  17.980  0.00  0.00    +0.000 A 
ATOM     14  C   UNL     1       4.975   4.597  18.519  0.00  0.00    +0.000 A 
ATOM     15  C   UNL     1       4.344   5.820  18.726  0.00  0.00    +0.000 A 
BRANCH  14  16
ATOM     16  O   UNL     1       6.289   4.327  18.733  0.00  0.00    +0.000 OA
BRANCH  16  17
ATOM     17  C   UNL     1       7.281   4.980  17.948  0.00  0.00    +0.000 C 
ATOM     18  F   UNL     1       7.873   6.029  18.555  0.00  0.00    +0.000 F 
ATOM     19  F   UNL     1       8.249   4.081  17.654  0.00  0.00    +0.000 F 
ATOM     20  F   UNL     1       6.729   5.398  16.791  0.00  0.00    +0.000 F 
ENDBRANCH  16  17
ENDBRANCH  14  16
ENDBRANCH   2  10
BRANCH   7  21
ATOM     21  C   UNL     1      -0.243  12.091  21.005  0.00  0.00    +0.000 C 
ATOM     22  C   UNL     1      -0.489  12.697  22.376  0.00  0.00    +0.000 C 
ATOM     23  C   UNL     1      -1.836  12.139  22.778  0.00  0.00    +0.000 C 
ATOM     24  C   UNL     1      -2.555  11.948  21.442  0.00  0.00    +0.000 C 
ATOM     25  O   UNL     1      -1.538  11.881  20.408  0.00  0.00    +0.000 OA
BRANCH  23  26
ATOM     26  O   UNL     1      -1.676  10.911  23.483  0.00  0.00    +0.000 OA
ATOM     27  H   UNL     1      -2.209  10.933  24.306  0.00  0.00    +0.000 HD
ENDBRANCH  23  26
BRANCH  24  28
ATOM     28  C   UNL     1      -3.470  13.134  21.118  0.00  0.00    +0.000 C 
BRANCH  28  29
ATOM     29  O   UNL     1      -3.293  13.553  19.767  0.00  0.00    +0.000 OA
ATOM     30  H   UNL     1      -4.139  13.375  19.314  0.00  0.00    +0.000 HD
ENDBRANCH  28  29
ENDBRANCH  24  28
ENDBRANCH   7  21
TORSDOF 7
ENDMDL
MODEL 5
REMARK VINA RESULT:      -7.6      6.941      9.639
REMARK  Name = 
REMARK  7 active torsions:
REMARK  status: ('A' for Active; 'I' for Inactive)
REMARK    1  A    between atoms: C_2  and  C_17
REMARK    2  A    between atoms: C_7  and  C_8
REMARK    3  A    between atoms: C_10  and  O_11
REMARK    4  A    between atoms: C_12  and  C_13
REMARK    5  A    between atoms: C_13  and  O_14
REMARK    6  A    between atoms: C_21  and  O_22
REMARK    7  A    between atoms: O_22  and  C_23
REMARK                            x       y       z     vdW  Elec       q    Type
REMARK                         _______ _______ _______ _____ _____    ______ ____
ROOT
ATOM      1  O   UNL     1       2.054   8.045  17.969  0.00  0.00    +0.000 OA
ATOM      2  C   UNL     1       2.289   7.263  18.883  0.00  0.00    +0.000 C 
ATOM      3  N   UNL     1       2.039   7.464  20.222  0.00  0.00    +0.000 N 
ATOM      4  C   UNL     1       1.430   8.572  20.763  0.00  0.00    +0.000 A 
ATOM      5  N   UNL     1       1.461   8.838  22.049  0.00  0.00    +0.000 NA
ATOM      6  N   UNL     1       0.784  10.000  22.357  0.00  0.00    +0.000 NA
ATOM      7  C   UNL     1       0.231  10.550  21.292  0.00  0.00    +0.000 A 
ATOM      8  S   UNL     1       0.517   9.678  19.841  0.00  0.00    +0.000 S 
ATOM      9  H   UNL     1       2.477   6.868  20.912  0.00  0.00    +0.000 HD
ENDROOT
BRANCH   2  10
ATOM     10  C   UNL     1       2.990   5.993  18.548  0.00  0.00    +0.000 A 
ATOM     11  C   UNL     1       2.346   4.939  17.890  0.00  0.00    +0.000 A 
ATOM     12  C   UNL     1       3.064   3.785  17.582  0.00  0.00    +0.000 A 
ATOM     13  C   UNL     1       4.406   3.676  17.956  0.00  0.00    +0.000 A 
ATOM     14  C   UNL     1       5.048   4.712  18.644  0.00  0.00    +0.000 A 
ATOM     15  C   UNL     1       4.345   5.887  18.890  0.00  0.00    +0.000 A 
BRANCH  14  16
ATOM     16  O   UNL     1       6.350   4.476  18.955  0.00  0.00    +0.000 OA
BRANCH  16  17
ATOM     17  C   UNL     1       7.381   5.049  18.158  0.00  0.00    +0.000 C 
ATOM     18  F   UNL     1       8.230   4.153  17.615  0.00  0.00    +0.000 F 
ATOM     19  F   UNL     1       6.803   5.730  17.142  0.00  0.00    +0.000 F 
ATOM     20  F   UNL     1       8.086   5.925  18.904  0.00  0.00    +0.000 F 
ENDBRANCH  16  17
ENDBRANCH  14  16
ENDBRANCH   2  10
BRANCH   7  21
ATOM     21  C   UNL     1      -0.564  11.826  21.289  0.00  0.00    +0.000 C 
ATOM     22  C   UNL     1      -0.449  12.604  19.988  0.00  0.00    +0.000 C 
ATOM     23  C   UNL     1       0.756  13.492  20.208  0.00  0.00    +0.000 C 
ATOM     24  C   UNL     1       0.745  13.740  21.716  0.00  0.00    +0.000 C 
ATOM     25  O   UNL     1      -0.032  12.676  22.325  0.00  0.00    +0.000 OA
BRANCH  23  26
ATOM     26  O   UNL     1       1.944  12.835  19.778  0.00  0.00    +0.000 OA
ATOM     27  H   UNL     1       1.842  12.544  18.847  0.00  0.00    +0.000 HD
ENDBRANCH  23  26
BRANCH  24  28
ATOM     28  C   UNL     1       0.066  15.069  22.066  0.00  0.00    +0.000 C 
BRANCH  28  29
ATOM     29  O   UNL     1      -0.338  15.085  23.433  0.00  0.00    +0.000 OA
ATOM     30  H   UNL     1      -0.975  14.352  23.536  0.00  0.00    +0.000 HD
ENDBRANCH  28  29
ENDBRANCH  24  28
ENDBRANCH   7  21
TORSDOF 7
ENDMDL
MODEL 6
REMARK VINA RESULT:      -7.6      8.397     11.045
REMARK  Name = 
REMARK  7 active torsions:
REMARK  status: ('A' for Active; 'I' for Inactive)
REMARK    1  A    between atoms: C_2  and  C_17
REMARK    2  A    between atoms: C_7  and  C_8
REMARK    3  A    between atoms: C_10  and  O_11
REMARK    4  A    between atoms: C_12  and  C_13
REMARK    5  A    between atoms: C_13  and  O_14
REMARK    6  A    between atoms: C_21  and  O_22
REMARK    7  A    between atoms: O_22  and  C_23
REMARK                            x       y       z     vdW  Elec       q    Type
REMARK                         _______ _______ _______ _____ _____    ______ ____
ROOT
ATOM      1  O   UNL     1       2.249   8.927  17.564  0.00  0.00    +0.000 OA
ATOM      2  C   UNL     1       2.263   8.021  18.390  0.00  0.00    +0.000 C 
ATOM      3  N   UNL     1       1.856   8.099  19.703  0.00  0.00    +0.000 N 
ATOM      4  C   UNL     1       1.311   9.209  20.305  0.00  0.00    +0.000 A 
ATOM      5  N   UNL     1       1.194   9.320  21.609  0.00  0.00    +0.000 NA
ATOM      6  N   UNL     1       0.621  10.518  21.980  0.00  0.00    +0.000 NA
ATOM      7  C   UNL     1       0.287  11.254  20.937  0.00  0.00    +0.000 A 
ATOM      8  S   UNL     1       0.667  10.524  19.431  0.00  0.00    +0.000 S 
ATOM      9  H   UNL     1       2.123   7.376  20.357  0.00  0.00    +0.000 HD
ENDROOT
BRANCH   2  10
ATOM     10  C   UNL     1       2.852   6.717  17.980  0.00  0.00    +0.000 A 
ATOM     11  C   UNL     1       4.193   6.591  17.601  0.00  0.00    +0.000 A 
ATOM     12  C   UNL     1       4.690   5.338  17.252  0.00  0.00    +0.000 A 
ATOM     13  C   UNL     1       3.845   4.224  17.255  0.00  0.00    +0.000 A 
ATOM     14  C   UNL     1       2.495   4.347  17.601  0.00  0.00    +0.000 A 
ATOM     15  C   UNL     1       2.020   5.589  18.012  0.00  0.00    +0.000 A 
BRANCH  14  16
ATOM     16  O   UNL     1       1.781   3.191  17.556  0.00  0.00    +0.000 OA
BRANCH  16  17
ATOM     17  C   UNL     1       1.442   2.523  18.766  0.00  0.00    +0.000 C 
ATOM     18  F   UNL     1       1.487   3.303  19.865  0.00  0.00    +0.000 F 
ATOM     19  F   UNL     1       0.179   2.054  18.652  0.00  0.00    +0.000 F 
ATOM     20  F   UNL     1       2.268   1.471  18.941  0.00  0.00    +0.000 F 
ENDBRANCH  16  17
ENDBRANCH  14  16
ENDBRANCH   2  10
BRANCH   7  21
ATOM     21  C   UNL     1      -0.347  12.616  21.003  0.00  0.00    +0.000 C 
ATOM     22  C   UNL     1      -0.627  13.080  22.423  0.00  0.00    +0.000 C 
ATOM     23  C   UNL     1      -2.016  12.549  22.704  0.00  0.00    +0.000 C 
ATOM     24  C   UNL     1      -2.680  12.542  21.328  0.00  0.00    +0.000 C 
ATOM     25  O   UNL     1      -1.622  12.538  20.335  0.00  0.00    +0.000 OA
BRANCH  23  26
ATOM     26  O   UNL     1      -1.943  11.245  23.275  0.00  0.00    +0.000 OA
ATOM     27  H   UNL     1      -2.586  10.654  22.828  0.00  0.00    +0.000 HD
ENDBRANCH  23  26
BRANCH  24  28
ATOM     28  C   UNL     1      -3.526  13.800  21.102  0.00  0.00    +0.000 C 
BRANCH  28  29
ATOM     29  O   UNL     1      -4.413  14.015  22.196  0.00  0.00    +0.000 OA
ATOM     30  H   UNL     1      -5.133  13.364  22.094  0.00  0.00    +0.000 HD
ENDBRANCH  28  29
ENDBRANCH  24  28
ENDBRANCH   7  21
TORSDOF 7
ENDMDL
MODEL 7
REMARK VINA RESULT:      -7.5      8.201     10.645
REMARK  Name = 
REMARK  7 active torsions:
REMARK  status: ('A' for Active; 'I' for Inactive)
REMARK    1  A    between atoms: C_2  and  C_17
REMARK    2  A    between atoms: C_7  and  C_8
REMARK    3  A    between atoms: C_10  and  O_11
REMARK    4  A    between atoms: C_12  and  C_13
REMARK    5  A    between atoms: C_13  and  O_14
REMARK    6  A    between atoms: C_21  and  O_22
REMARK    7  A    between atoms: O_22  and  C_23
REMARK                            x       y       z     vdW  Elec       q    Type
REMARK                         _______ _______ _______ _____ _____    ______ ____
ROOT
ATOM      1  O   UNL     1       1.956   8.347  19.142  0.00  0.00    +0.000 OA
ATOM      2  C   UNL     1       1.845   7.595  20.103  0.00  0.00    +0.000 C 
ATOM      3  N   UNL     1       1.313   7.908  21.334  0.00  0.00    +0.000 N 
ATOM      4  C   UNL     1       0.763   9.120  21.682  0.00  0.00    +0.000 A 
ATOM      5  N   UNL     1       0.523   9.454  22.929  0.00  0.00    +0.000 NA
ATOM      6  N   UNL     1      -0.028  10.715  23.032  0.00  0.00    +0.000 NA
ATOM      7  C   UNL     1      -0.220  11.272  21.852  0.00  0.00    +0.000 A 
ATOM      8  S   UNL     1       0.274  10.285  20.537  0.00  0.00    +0.000 S 
ATOM      9  H   UNL     1       1.478   7.299  22.124  0.00  0.00    +0.000 HD
ENDROOT
BRANCH   2  10
ATOM     10  C   UNL     1       2.409   6.223  19.982  0.00  0.00    +0.000 A 
ATOM     11  C   UNL     1       1.937   5.153  20.750  0.00  0.00    +0.000 A 
ATOM     12  C   UNL     1       2.489   3.887  20.572  0.00  0.00    +0.000 A 
ATOM     13  C   UNL     1       3.526   3.699  19.653  0.00  0.00    +0.000 A 
ATOM     14  C   UNL     1       4.026   4.770  18.904  0.00  0.00    +0.000 A 
ATOM     15  C   UNL     1       3.426   6.018  19.039  0.00  0.00    +0.000 A 
BRANCH  14  16
ATOM     16  O   UNL     1       5.038   4.455  18.053  0.00  0.00    +0.000 OA
BRANCH  16  17
ATOM     17  C   UNL     1       4.765   4.278  16.667  0.00  0.00    +0.000 C 
ATOM     18  F   UNL     1       3.571   3.711  16.401  0.00  0.00    +0.000 F 
ATOM     19  F   UNL     1       4.779   5.494  16.074  0.00  0.00    +0.000 F 
ATOM     20  F   UNL     1       5.739   3.527  16.114  0.00  0.00    +0.000 F 
ENDBRANCH  16  17
ENDBRANCH  14  16
ENDBRANCH   2  10
BRANCH   7  21
ATOM     21  C   UNL     1      -0.792  12.644  21.623  0.00  0.00    +0.000 C 
ATOM     22  C   UNL     1      -1.369  13.273  22.880  0.00  0.00    +0.000 C 
ATOM     23  C   UNL     1      -2.807  12.802  22.888  0.00  0.00    +0.000 C 
ATOM     24  C   UNL     1      -3.139  12.648  21.404  0.00  0.00    +0.000 C 
ATOM     25  O   UNL     1      -1.883  12.512  20.689  0.00  0.00    +0.000 OA
BRANCH  23  26
ATOM     26  O   UNL     1      -2.924  11.571  23.596  0.00  0.00    +0.000 OA
ATOM     27  H   UNL     1      -3.654  11.039  23.214  0.00  0.00    +0.000 HD
ENDBRANCH  23  26
BRANCH  24  28
ATOM     28  C   UNL     1      -3.855  13.888  20.854  0.00  0.00    +0.000 C 
BRANCH  28  29
ATOM     29  O   UNL     1      -4.899  14.299  21.733  0.00  0.00    +0.000 OA
ATOM     30  H   UNL     1      -4.678  15.208  22.011  0.00  0.00    +0.000 HD
ENDBRANCH  28  29
ENDBRANCH  24  28
ENDBRANCH   7  21
TORSDOF 7
ENDMDL
MODEL 8
REMARK VINA RESULT:      -7.5      7.426      9.014
REMARK  Name = 
REMARK  7 active torsions:
REMARK  status: ('A' for Active; 'I' for Inactive)
REMARK    1  A    between atoms: C_2  and  C_17
REMARK    2  A    between atoms: C_7  and  C_8
REMARK    3  A    between atoms: C_10  and  O_11
REMARK    4  A    between atoms: C_12  and  C_13
REMARK    5  A    between atoms: C_13  and  O_14
REMARK    6  A    between atoms: C_21  and  O_22
REMARK    7  A    between atoms: O_22  and  C_23
REMARK                            x       y       z     vdW  Elec       q    Type
REMARK                         _______ _______ _______ _____ _____    ______ ____
ROOT
ATOM      1  O   UNL     1       1.113   8.415  20.804  0.00  0.00    +0.000 OA
ATOM      2  C   UNL     1       0.884   9.048  19.780  0.00  0.00    +0.000 C 
ATOM      3  N   UNL     1       1.507   8.893  18.561  0.00  0.00    +0.000 N 
ATOM      4  C   UNL     1       2.470   7.955  18.271  0.00  0.00    +0.000 A 
ATOM      5  N   UNL     1       3.220   8.023  17.194  0.00  0.00    +0.000 NA
ATOM      6  N   UNL     1       4.114   6.976  17.116  0.00  0.00    +0.000 NA
ATOM      7  C   UNL     1       3.979   6.131  18.120  0.00  0.00    +0.000 A 
ATOM      8  S   UNL     1       2.750   6.575  19.232  0.00  0.00    +0.000 S 
ATOM      9  H   UNL     1       1.415   9.609  17.854  0.00  0.00    +0.000 HD
ENDROOT
BRANCH   2  10
ATOM     10  C   UNL     1      -0.106  10.157  19.854  0.00  0.00    +0.000 A 
ATOM     11  C   UNL     1      -0.334  10.873  21.034  0.00  0.00    +0.000 A 
ATOM     12  C   UNL     1      -1.256  11.917  21.033  0.00  0.00    +0.000 A 
ATOM     13  C   UNL     1      -1.965  12.223  19.868  0.00  0.00    +0.000 A 
ATOM     14  C   UNL     1      -1.768  11.490  18.692  0.00  0.00    +0.000 A 
ATOM     15  C   UNL     1      -0.798  10.492  18.682  0.00  0.00    +0.000 A 
BRANCH  14  16
ATOM     16  O   UNL     1      -2.525  11.883  17.634  0.00  0.00    +0.000 OA
BRANCH  16  17
ATOM     17  C   UNL     1      -3.471  10.982  17.071  0.00  0.00    +0.000 C 
ATOM     18  F   UNL     1      -4.499  11.578  16.433  0.00  0.00    +0.000 F 
ATOM     19  F   UNL     1      -2.831  10.202  16.170  0.00  0.00    +0.000 F 
ATOM     20  F   UNL     1      -3.962  10.186  18.043  0.00  0.00    +0.000 F 
ENDBRANCH  16  17
ENDBRANCH  14  16
ENDBRANCH   2  10
BRANCH   7  21
ATOM     21  C   UNL     1       4.809   4.895  18.331  0.00  0.00    +0.000 C 
ATOM     22  C   UNL     1       4.726   3.910  17.176  0.00  0.00    +0.000 C 
ATOM     23  C   UNL     1       3.544   3.037  17.535  0.00  0.00    +0.000 C 
ATOM     24  C   UNL     1       3.549   3.041  19.063  0.00  0.00    +0.000 C 
ATOM     25  O   UNL     1       4.292   4.213  19.491  0.00  0.00    +0.000 OA
BRANCH  23  26
ATOM     26  O   UNL     1       2.342   3.581  16.998  0.00  0.00    +0.000 OA
ATOM     27  H   UNL     1       2.415   4.557  16.951  0.00  0.00    +0.000 HD
ENDBRANCH  23  26
BRANCH  24  28
ATOM     28  C   UNL     1       4.261   1.808  19.630  0.00  0.00    +0.000 C 
BRANCH  28  29
ATOM     29  O   UNL     1       4.324   0.770  18.655  0.00  0.00    +0.000 OA
ATOM     30  H   UNL     1       5.221   0.812  18.271  0.00  0.00    +0.000 HD
ENDBRANCH  28  29
ENDBRANCH  24  28
ENDBRANCH   7  21
TORSDOF 7
ENDMDL
MODEL 9
REMARK VINA RESULT:      -7.5      7.345      9.795
REMARK  Name = 
REMARK  7 active torsions:
REMARK  status: ('A' for Active; 'I' for Inactive)
REMARK    1  A    between atoms: C_2  and  C_17
REMARK    2  A    between atoms: C_7  and  C_8
REMARK    3  A    between atoms: C_10  and  O_11
REMARK    4  A    between atoms: C_12  and  C_13
REMARK    5  A    between atoms: C_13  and  O_14
REMARK    6  A    between atoms: C_21  and  O_22
REMARK    7  A    between atoms: O_22  and  C_23
REMARK                            x       y       z     vdW  Elec       q    Type
REMARK                         _______ _______ _______ _____ _____    ______ ____
ROOT
ATOM      1  O   UNL     1       2.146   8.568  17.698  0.00  0.00    +0.000 OA
ATOM      2  C   UNL     1       2.194   7.703  18.565  0.00  0.00    +0.000 C 
ATOM      3  N   UNL     1       1.851   7.848  19.891  0.00  0.00    +0.000 N 
ATOM      4  C   UNL     1       1.344   8.990  20.464  0.00  0.00    +0.000 A 
ATOM      5  N   UNL     1       1.291   9.164  21.765  0.00  0.00    +0.000 NA
ATOM      6  N   UNL     1       0.746  10.385  22.105  0.00  0.00    +0.000 NA
ATOM      7  C   UNL     1       0.369  11.074  21.044  0.00  0.00    +0.000 A 
ATOM      8  S   UNL     1       0.670  10.268  19.559  0.00  0.00    +0.000 S 
ATOM      9  H   UNL     1       2.143   7.154  20.566  0.00  0.00    +0.000 HD
ENDROOT
BRANCH   2  10
ATOM     10  C   UNL     1       2.751   6.374  18.191  0.00  0.00    +0.000 A 
ATOM     11  C   UNL     1       1.940   5.244  18.033  0.00  0.00    +0.000 A 
ATOM     12  C   UNL     1       2.520   4.034  17.657  0.00  0.00    +0.000 A 
ATOM     13  C   UNL     1       3.902   3.949  17.471  0.00  0.00    +0.000 A 
ATOM     14  C   UNL     1       4.724   5.066  17.659  0.00  0.00    +0.000 A 
ATOM     15  C   UNL     1       4.132   6.287  17.969  0.00  0.00    +0.000 A 
BRANCH  14  16
ATOM     16  O   UNL     1       6.050   4.847  17.453  0.00  0.00    +0.000 OA
BRANCH  16  17
ATOM     17  C   UNL     1       6.669   5.333  16.267  0.00  0.00    +0.000 C 
ATOM     18  F   UNL     1       5.807   5.753  15.319  0.00  0.00    +0.000 F 
ATOM     19  F   UNL     1       7.453   6.384  16.599  0.00  0.00    +0.000 F 
ATOM     20  F   UNL     1       7.456   4.368  15.748  0.00  0.00    +0.000 F 
ENDBRANCH  16  17
ENDBRANCH  14  16
ENDBRANCH   2  10
BRANCH   7  21
ATOM     21  C   UNL     1      -0.251  12.444  21.075  0.00  0.00    +0.000 C 
ATOM     22  C   UNL     1      -0.571  12.928  22.480  0.00  0.00    +0.000 C 
ATOM     23  C   UNL     1      -1.974  12.416  22.723  0.00  0.00    +0.000 C 
ATOM     24  C   UNL     1      -2.594  12.401  21.326  0.00  0.00    +0.000 C 
ATOM     25  O   UNL     1      -1.505  12.373  20.367  0.00  0.00    +0.000 OA
BRANCH  23  26
ATOM     26  O   UNL     1      -1.935  11.118  23.310  0.00  0.00    +0.000 OA
ATOM     27  H   UNL     1      -2.109  11.187  24.273  0.00  0.00    +0.000 HD
ENDBRANCH  23  26
BRANCH  24  28
ATOM     28  C   UNL     1      -3.416  13.667  21.059  0.00  0.00    +0.000 C 
BRANCH  28  29
ATOM     29  O   UNL     1      -4.166  13.536  19.853  0.00  0.00    +0.000 OA
ATOM     30  H   UNL     1      -5.105  13.613  20.109  0.00  0.00    +0.000 HD
ENDBRANCH  28  29
ENDBRANCH  24  28
ENDBRANCH   7  21
TORSDOF 7
ENDMDL
