MODEL 1
REMARK VINA RESULT:      -8.5      0.000      0.000
REMARK  Name = 
REMARK  2 active torsions:
REMARK  status: ('A' for Active; 'I' for Inactive)
REMARK    1  A    between atoms: C_1  and  C_2
REMARK    2  A    between atoms: C_2  and  C_3
REMARK                            x       y       z     vdW  Elec       q    Type
REMARK                         _______ _______ _______ _____ _____    ______ ____
ROOT
ATOM      1  C   UNL     1       5.831   3.484  12.499  0.00  0.00    +0.000 A 
ATOM      2  C   UNL     1       6.974   4.221  12.172  0.00  0.00    +0.000 A 
ATOM      3  C   UNL     1       7.644   4.993  13.125  0.00  0.00    +0.000 A 
ATOM      4  C   UNL     1       7.125   5.015  14.423  0.00  0.00    +0.000 A 
ATOM      5  N   UNL     1       7.584   5.665  15.544  0.00  0.00    +0.000 N 
ATOM      6  C   UNL     1       6.764   5.422  16.617  0.00  0.00    +0.000 A 
ATOM      7  C   UNL     1       6.847   5.877  17.935  0.00  0.00    +0.000 A 
ATOM      8  F   UNL     1       7.846   6.678  18.321  0.00  0.00    +0.000 F 
ATOM      9  C   UNL     1       5.873   5.485  18.848  0.00  0.00    +0.000 A 
ATOM     10  C   UNL     1       4.843   4.652  18.434  0.00  0.00    +0.000 A 
ATOM     11  F   UNL     1       3.911   4.285  19.325  0.00  0.00    +0.000 F 
ATOM     12  C   UNL     1       4.761   4.192  17.116  0.00  0.00    +0.000 A 
ATOM     13  F   UNL     1       3.750   3.388  16.752  0.00  0.00    +0.000 F 
ATOM     14  C   UNL     1       5.738   4.581  16.179  0.00  0.00    +0.000 A 
ATOM     15  C   UNL     1       5.975   4.316  14.790  0.00  0.00    +0.000 A 
ATOM     16  C   UNL     1       5.317   3.543  13.808  0.00  0.00    +0.000 A 
ATOM     17  H   UNL     1       8.412   6.242  15.577  0.00  0.00    +0.000 HD
ENDROOT
BRANCH   1  19
ATOM     18  C   UNL     1       3.802   3.186  11.034  0.00  0.00    +0.000 C 
ATOM     19  C   UNL     1       5.157   2.634  11.450  0.00  0.00    +0.000 C 
ENDBRANCH   1  19
TORSDOF 1
ENDMDL
MODEL 2
REMARK VINA RESULT:      -8.3      2.580      4.341
REMARK  Name = 
REMARK  2 active torsions:
REMARK  status: ('A' for Active; 'I' for Inactive)
REMARK    1  A    between atoms: C_1  and  C_2
REMARK    2  A    between atoms: C_2  and  C_3
REMARK                            x       y       z     vdW  Elec       q    Type
REMARK                         _______ _______ _______ _____ _____    ______ ____
ROOT
ATOM      1  C   UNL     1       6.225   4.887  15.960  0.00  0.00    +0.000 A 
ATOM      2  C   UNL     1       6.789   5.855  16.800  0.00  0.00    +0.000 A 
ATOM      3  C   UNL     1       6.215   6.180  18.031  0.00  0.00    +0.000 A 
ATOM      4  C   UNL     1       5.043   5.511  18.397  0.00  0.00    +0.000 A 
ATOM      5  N   UNL     1       4.288   5.620  19.540  0.00  0.00    +0.000 N 
ATOM      6  C   UNL     1       3.203   4.780  19.489  0.00  0.00    +0.000 A 
ATOM      7  C   UNL     1       2.183   4.570  20.418  0.00  0.00    +0.000 A 
ATOM      8  F   UNL     1       2.164   5.237  21.577  0.00  0.00    +0.000 F 
ATOM      9  C   UNL     1       1.179   3.653  20.123  0.00  0.00    +0.000 A 
ATOM     10  C   UNL     1       1.211   2.967  18.917  0.00  0.00    +0.000 A 
ATOM     11  F   UNL     1       0.235   2.088  18.646  0.00  0.00    +0.000 F 
ATOM     12  C   UNL     1       2.235   3.174  17.987  0.00  0.00    +0.000 A 
ATOM     13  F   UNL     1       2.233   2.492  16.831  0.00  0.00    +0.000 F 
ATOM     14  C   UNL     1       3.258   4.099  18.270  0.00  0.00    +0.000 A 
ATOM     15  C   UNL     1       4.431   4.557  17.584  0.00  0.00    +0.000 A 
ATOM     16  C   UNL     1       5.032   4.246  16.344  0.00  0.00    +0.000 A 
ATOM     17  H   UNL     1       4.500   6.231  20.316  0.00  0.00    +0.000 HD
ENDROOT
BRANCH   1  19
ATOM     18  C   UNL     1       5.947   3.872  13.672  0.00  0.00    +0.000 C 
ATOM     19  C   UNL     1       6.895   4.539  14.654  0.00  0.00    +0.000 C 
ENDBRANCH   1  19
TORSDOF 1
ENDMDL
MODEL 3
REMARK VINA RESULT:      -8.2      2.744      4.193
REMARK  Name = 
REMARK  2 active torsions:
REMARK  status: ('A' for Active; 'I' for Inactive)
REMARK    1  A    between atoms: C_1  and  C_2
REMARK    2  A    between atoms: C_2  and  C_3
REMARK                            x       y       z     vdW  Elec       q    Type
REMARK                         _______ _______ _______ _____ _____    ______ ____
ROOT
ATOM      1  C   UNL     1       5.510   4.599  15.553  0.00  0.00    +0.000 A 
ATOM      2  C   UNL     1       5.520   5.998  15.550  0.00  0.00    +0.000 A 
ATOM      3  C   UNL     1       4.815   6.737  16.505  0.00  0.00    +0.000 A 
ATOM      4  C   UNL     1       4.084   6.028  17.463  0.00  0.00    +0.000 A 
ATOM      5  N   UNL     1       3.325   6.491  18.511  0.00  0.00    +0.000 N 
ATOM      6  C   UNL     1       2.767   5.448  19.207  0.00  0.00    +0.000 A 
ATOM      7  C   UNL     1       1.933   5.456  20.326  0.00  0.00    +0.000 A 
ATOM      8  F   UNL     1       1.559   6.609  20.893  0.00  0.00    +0.000 F 
ATOM      9  C   UNL     1       1.491   4.245  20.849  0.00  0.00    +0.000 A 
ATOM     10  C   UNL     1       1.887   3.057  20.251  0.00  0.00    +0.000 A 
ATOM     11  F   UNL     1       1.452   1.897  20.765  0.00  0.00    +0.000 F 
ATOM     12  C   UNL     1       2.727   3.047  19.132  0.00  0.00    +0.000 A 
ATOM     13  F   UNL     1       3.089   1.878  18.581  0.00  0.00    +0.000 F 
ATOM     14  C   UNL     1       3.182   4.264  18.590  0.00  0.00    +0.000 A 
ATOM     15  C   UNL     1       4.024   4.634  17.491  0.00  0.00    +0.000 A 
ATOM     16  C   UNL     1       4.747   3.911  16.515  0.00  0.00    +0.000 A 
ATOM     17  H   UNL     1       3.195   7.466  18.742  0.00  0.00    +0.000 HD
ENDROOT
BRANCH   1  19
ATOM     18  C   UNL     1       5.632   3.794  13.168  0.00  0.00    +0.000 C 
ATOM     19  C   UNL     1       6.312   3.837  14.527  0.00  0.00    +0.000 C 
ENDBRANCH   1  19
TORSDOF 1
ENDMDL
MODEL 4
REMARK VINA RESULT:      -7.8      2.524      4.135
REMARK  Name = 
REMARK  2 active torsions:
REMARK  status: ('A' for Active; 'I' for Inactive)
REMARK    1  A    between atoms: C_1  and  C_2
REMARK    2  A    between atoms: C_2  and  C_3
REMARK                            x       y       z     vdW  Elec       q    Type
REMARK                         _______ _______ _______ _____ _____    ______ ____
ROOT
ATOM      1  C   UNL     1       6.292   4.689  15.545  0.00  0.00    +0.000 A 
ATOM      2  C   UNL     1       7.304   4.851  16.498  0.00  0.00    +0.000 A 
ATOM      3  C   UNL     1       7.103   4.522  17.842  0.00  0.00    +0.000 A 
ATOM      4  C   UNL     1       5.847   4.030  18.208  0.00  0.00    +0.000 A 
ATOM      5  N   UNL     1       5.387   3.619  19.436  0.00  0.00    +0.000 N 
ATOM      6  C   UNL     1       4.078   3.215  19.355  0.00  0.00    +0.000 A 
ATOM      7  C   UNL     1       3.222   2.730  20.346  0.00  0.00    +0.000 A 
ATOM      8  F   UNL     1       3.644   2.595  21.609  0.00  0.00    +0.000 F 
ATOM      9  C   UNL     1       1.918   2.388  20.005  0.00  0.00    +0.000 A 
ATOM     10  C   UNL     1       1.494   2.533  18.692  0.00  0.00    +0.000 A 
ATOM     11  F   UNL     1       0.233   2.200  18.378  0.00  0.00    +0.000 F 
ATOM     12  C   UNL     1       2.351   3.014  17.697  0.00  0.00    +0.000 A 
ATOM     13  F   UNL     1       1.906   3.140  16.437  0.00  0.00    +0.000 F 
ATOM     14  C   UNL     1       3.674   3.366  18.026  0.00  0.00    +0.000 A 
ATOM     15  C   UNL     1       4.800   3.874  17.299  0.00  0.00    +0.000 A 
ATOM     16  C   UNL     1       5.029   4.214  15.947  0.00  0.00    +0.000 A 
ATOM     17  H   UNL     1       5.936   3.611  20.285  0.00  0.00    +0.000 HD
ENDROOT
BRANCH   1  19
ATOM     18  C   UNL     1       6.277   3.854  13.168  0.00  0.00    +0.000 C 
ATOM     19  C   UNL     1       6.559   5.023  14.098  0.00  0.00    +0.000 C 
ENDBRANCH   1  19
TORSDOF 1
ENDMDL
MODEL 5
REMARK VINA RESULT:      -7.5      3.227      5.245
REMARK  Name = 
REMARK  2 active torsions:
REMARK  status: ('A' for Active; 'I' for Inactive)
REMARK    1  A    between atoms: C_1  and  C_2
REMARK    2  A    between atoms: C_2  and  C_3
REMARK                            x       y       z     vdW  Elec       q    Type
REMARK                         _______ _______ _______ _____ _____    ______ ____
ROOT
ATOM      1  C   UNL     1       6.758   6.657  17.236  0.00  0.00    +0.000 A 
ATOM      2  C   UNL     1       7.241   5.636  16.410  0.00  0.00    +0.000 A 
ATOM      3  C   UNL     1       6.559   4.424  16.270  0.00  0.00    +0.000 A 
ATOM      4  C   UNL     1       5.376   4.257  16.996  0.00  0.00    +0.000 A 
ATOM      5  N   UNL     1       4.510   3.191  17.035  0.00  0.00    +0.000 N 
ATOM      6  C   UNL     1       3.468   3.442  17.893  0.00  0.00    +0.000 A 
ATOM      7  C   UNL     1       2.374   2.645  18.237  0.00  0.00    +0.000 A 
ATOM      8  F   UNL     1       2.217   1.429  17.701  0.00  0.00    +0.000 F 
ATOM      9  C   UNL     1       1.444   3.133  19.149  0.00  0.00    +0.000 A 
ATOM     10  C   UNL     1       1.619   4.396  19.696  0.00  0.00    +0.000 A 
ATOM     11  F   UNL     1       0.714   4.851  20.575  0.00  0.00    +0.000 F 
ATOM     12  C   UNL     1       2.712   5.197  19.349  0.00  0.00    +0.000 A 
ATOM     13  F   UNL     1       2.848   6.413  19.898  0.00  0.00    +0.000 F 
ATOM     14  C   UNL     1       3.663   4.717  18.428  0.00  0.00    +0.000 A 
ATOM     15  C   UNL     1       4.868   5.237  17.851  0.00  0.00    +0.000 A 
ATOM     16  C   UNL     1       5.576   6.453  17.974  0.00  0.00    +0.000 A 
ATOM     17  H   UNL     1       4.620   2.339  16.504  0.00  0.00    +0.000 HD
ENDROOT
BRANCH   1  19
ATOM     18  C   UNL     1       8.441   8.015  18.528  0.00  0.00    +0.000 C 
ATOM     19  C   UNL     1       7.504   7.965  17.332  0.00  0.00    +0.000 C 
ENDBRANCH   1  19
TORSDOF 1
ENDMDL
MODEL 6
REMARK VINA RESULT:      -7.5      4.299      5.537
REMARK  Name = 
REMARK  2 active torsions:
REMARK  status: ('A' for Active; 'I' for Inactive)
REMARK    1  A    between atoms: C_1  and  C_2
REMARK    2  A    between atoms: C_2  and  C_3
REMARK                            x       y       z     vdW  Elec       q    Type
REMARK                         _______ _______ _______ _____ _____    ______ ____
ROOT
ATOM      1  C   UNL     1       7.326   7.479  17.980  0.00  0.00    +0.000 A 
ATOM      2  C   UNL     1       8.228   6.585  18.568  0.00  0.00    +0.000 A 
ATOM      3  C   UNL     1       7.841   5.294  18.940  0.00  0.00    +0.000 A 
ATOM      4  C   UNL     1       6.513   4.924  18.713  0.00  0.00    +0.000 A 
ATOM      5  N   UNL     1       5.876   3.732  18.962  0.00  0.00    +0.000 N 
ATOM      6  C   UNL     1       4.555   3.799  18.593  0.00  0.00    +0.000 A 
ATOM      7  C   UNL     1       3.549   2.834  18.670  0.00  0.00    +0.000 A 
ATOM      8  F   UNL     1       3.805   1.616  19.160  0.00  0.00    +0.000 F 
ATOM      9  C   UNL     1       2.270   3.155  18.228  0.00  0.00    +0.000 A 
ATOM     10  C   UNL     1       2.019   4.422  17.722  0.00  0.00    +0.000 A 
ATOM     11  F   UNL     1       0.780   4.718  17.302  0.00  0.00    +0.000 F 
ATOM     12  C   UNL     1       3.027   5.389  17.641  0.00  0.00    +0.000 A 
ATOM     13  F   UNL     1       2.747   6.604  17.144  0.00  0.00    +0.000 F 
ATOM     14  C   UNL     1       4.327   5.080  18.084  0.00  0.00    +0.000 A 
ATOM     15  C   UNL     1       5.571   5.788  18.152  0.00  0.00    +0.000 A 
ATOM     16  C   UNL     1       5.988   7.088  17.785  0.00  0.00    +0.000 A 
ATOM     17  H   UNL     1       6.317   2.914  19.359  0.00  0.00    +0.000 HD
ENDROOT
BRANCH   1  19
ATOM     18  C   UNL     1       8.719   9.490  18.581  0.00  0.00    +0.000 C 
ATOM     19  C   UNL     1       7.791   8.851  17.561  0.00  0.00    +0.000 C 
ENDBRANCH   1  19
TORSDOF 1
ENDMDL
MODEL 7
REMARK VINA RESULT:      -7.3      2.877      5.853
REMARK  Name = 
REMARK  2 active torsions:
REMARK  status: ('A' for Active; 'I' for Inactive)
REMARK    1  A    between atoms: C_1  and  C_2
REMARK    2  A    between atoms: C_2  and  C_3
REMARK                            x       y       z     vdW  Elec       q    Type
REMARK                         _______ _______ _______ _____ _____    ______ ____
ROOT
ATOM      1  C   UNL     1       1.957   3.487  19.645  0.00  0.00    +0.000 A 
ATOM      2  C   UNL     1       1.456   2.841  18.509  0.00  0.00    +0.000 A 
ATOM      3  C   UNL     1       2.175   2.804  17.311  0.00  0.00    +0.000 A 
ATOM      4  C   UNL     1       3.416   3.447  17.279  0.00  0.00    +0.000 A 
ATOM      5  N   UNL     1       4.326   3.553  16.256  0.00  0.00    +0.000 N 
ATOM      6  C   UNL     1       5.419   4.284  16.650  0.00  0.00    +0.000 A 
ATOM      7  C   UNL     1       6.569   4.639  15.941  0.00  0.00    +0.000 A 
ATOM      8  F   UNL     1       6.735   4.254  14.671  0.00  0.00    +0.000 F 
ATOM      9  C   UNL     1       7.544   5.402  16.574  0.00  0.00    +0.000 A 
ATOM     10  C   UNL     1       7.358   5.794  17.892  0.00  0.00    +0.000 A 
ATOM     11  F   UNL     1       8.307   6.531  18.488  0.00  0.00    +0.000 F 
ATOM     12  C   UNL     1       6.209   5.436  18.605  0.00  0.00    +0.000 A 
ATOM     13  F   UNL     1       6.064   5.833  19.878  0.00  0.00    +0.000 F 
ATOM     14  C   UNL     1       5.212   4.665  17.978  0.00  0.00    +0.000 A 
ATOM     15  C   UNL     1       3.946   4.125  18.378  0.00  0.00    +0.000 A 
ATOM     16  C   UNL     1       3.198   4.146  19.578  0.00  0.00    +0.000 A 
ATOM     17  H   UNL     1       4.212   3.147  15.338  0.00  0.00    +0.000 HD
ENDROOT
BRANCH   1  19
ATOM     18  C   UNL     1       1.681   2.444  21.922  0.00  0.00    +0.000 C 
ATOM     19  C   UNL     1       1.166   3.474  20.930  0.00  0.00    +0.000 C 
ENDBRANCH   1  19
TORSDOF 1
ENDMDL
MODEL 8
REMARK VINA RESULT:      -7.3      4.506      6.116
REMARK  Name = 
REMARK  2 active torsions:
REMARK  status: ('A' for Active; 'I' for Inactive)
REMARK    1  A    between atoms: C_1  and  C_2
REMARK    2  A    between atoms: C_2  and  C_3
REMARK                            x       y       z     vdW  Elec       q    Type
REMARK                         _______ _______ _______ _____ _____    ______ ____
ROOT
ATOM      1  C   UNL     1       2.787   8.003  17.872  0.00  0.00    +0.000 A 
ATOM      2  C   UNL     1       4.008   7.770  17.229  0.00  0.00    +0.000 A 
ATOM      3  C   UNL     1       4.726   6.588  17.427  0.00  0.00    +0.000 A 
ATOM      4  C   UNL     1       4.187   5.641  18.303  0.00  0.00    +0.000 A 
ATOM      5  N   UNL     1       4.666   4.404  18.664  0.00  0.00    +0.000 N 
ATOM      6  C   UNL     1       3.823   3.801  19.565  0.00  0.00    +0.000 A 
ATOM      7  C   UNL     1       3.918   2.558  20.194  0.00  0.00    +0.000 A 
ATOM      8  F   UNL     1       4.951   1.744  19.947  0.00  0.00    +0.000 F 
ATOM      9  C   UNL     1       2.921   2.173  21.084  0.00  0.00    +0.000 A 
ATOM     10  C   UNL     1       1.856   3.027  21.329  0.00  0.00    +0.000 A 
ATOM     11  F   UNL     1       0.903   2.643  22.192  0.00  0.00    +0.000 F 
ATOM     12  C   UNL     1       1.757   4.272  20.698  0.00  0.00    +0.000 A 
ATOM     13  F   UNL     1       0.712   5.071  20.960  0.00  0.00    +0.000 F 
ATOM     14  C   UNL     1       2.759   4.677  19.795  0.00  0.00    +0.000 A 
ATOM     15  C   UNL     1       2.986   5.838  18.986  0.00  0.00    +0.000 A 
ATOM     16  C   UNL     1       2.280   7.042  18.768  0.00  0.00    +0.000 A 
ATOM     17  H   UNL     1       5.519   3.991  18.315  0.00  0.00    +0.000 HD
ENDROOT
BRANCH   1  19
ATOM     18  C   UNL     1       1.146   9.688  18.776  0.00  0.00    +0.000 C 
ATOM     19  C   UNL     1       2.024   9.277  17.605  0.00  0.00    +0.000 C 
ENDBRANCH   1  19
TORSDOF 1
ENDMDL
MODEL 9
REMARK VINA RESULT:      -7.1      4.945      7.128
REMARK  Name = 
REMARK  2 active torsions:
REMARK  status: ('A' for Active; 'I' for Inactive)
REMARK    1  A    between atoms: C_1  and  C_2
REMARK    2  A    between atoms: C_2  and  C_3
REMARK                            x       y       z     vdW  Elec       q    Type
REMARK                         _______ _______ _______ _____ _____    ______ ____
ROOT
ATOM      1  C   UNL     1       1.868   8.713  18.770  0.00  0.00    +0.000 A 
ATOM      2  C   UNL     1       1.370   8.829  20.073  0.00  0.00    +0.000 A 
ATOM      3  C   UNL     1       1.389   7.750  20.961  0.00  0.00    +0.000 A 
ATOM      4  C   UNL     1       1.915   6.539  20.501  0.00  0.00    +0.000 A 
ATOM      5  N   UNL     1       2.069   5.341  21.156  0.00  0.00    +0.000 N 
ATOM      6  C   UNL     1       2.624   4.400  20.325  0.00  0.00    +0.000 A 
ATOM      7  C   UNL     1       2.950   3.064  20.568  0.00  0.00    +0.000 A 
ATOM      8  F   UNL     1       2.731   2.514  21.767  0.00  0.00    +0.000 F 
ATOM      9  C   UNL     1       3.507   2.307  19.542  0.00  0.00    +0.000 A 
ATOM     10  C   UNL     1       3.729   2.892  18.304  0.00  0.00    +0.000 A 
ATOM     11  F   UNL     1       4.266   2.149  17.325  0.00  0.00    +0.000 F 
ATOM     12  C   UNL     1       3.408   4.231  18.060  0.00  0.00    +0.000 A 
ATOM     13  F   UNL     1       3.638   4.762  16.849  0.00  0.00    +0.000 F 
ATOM     14  C   UNL     1       2.842   5.011  19.087  0.00  0.00    +0.000 A 
ATOM     15  C   UNL     1       2.401   6.369  19.204  0.00  0.00    +0.000 A 
ATOM     16  C   UNL     1       2.371   7.476  18.325  0.00  0.00    +0.000 A 
ATOM     17  H   UNL     1       1.812   5.172  22.118  0.00  0.00    +0.000 HD
ENDROOT
BRANCH   1  19
ATOM     18  C   UNL     1       1.537  11.204  18.582  0.00  0.00    +0.000 C 
ATOM     19  C   UNL     1       1.863   9.911  17.852  0.00  0.00    +0.000 C 
ENDBRANCH   1  19
TORSDOF 1
ENDMDL
