MODEL 1
REMARK VINA RESULT:      -8.3      0.000      0.000
REMARK  Name = 
REMARK  8 active torsions:
REMARK  status: ('A' for Active; 'I' for Inactive)
REMARK    1  A    between atoms: C_1  and  C_2
REMARK    2  A    between atoms: N_4  and  C_5
REMARK    3  A    between atoms: C_5  and  C_6
REMARK    4  A    between atoms: C_6  and  C_7
REMARK    5  A    between atoms: C_8  and  C_9
REMARK    6  A    between atoms: C_13  and  C_14
REMARK    7  A    between atoms: C_14  and  C_15
REMARK    8  A    between atoms: C_14  and  C_16
REMARK                            x       y       z     vdW  Elec       q    Type
REMARK                         _______ _______ _______ _____ _____    ______ ____
ROOT
ATOM      1  C   UNL     1       9.779  11.597  18.322  0.00  0.00    +0.000 C 
ATOM      2  C   UNL     1      10.791  11.625  19.236  0.00  0.00    +0.000 C 
ATOM      3  C   UNL     1      12.059  12.129  18.572  0.00  0.00    +0.000 C 
ATOM      4  C   UNL     1      11.493  13.228  17.748  0.00  0.00    +0.000 A 
ATOM      5  C   UNL     1      12.327  14.275  17.400  0.00  0.00    +0.000 A 
ATOM      6  C   UNL     1      11.706  15.476  17.276  0.00  0.00    +0.000 A 
ATOM      7  C   UNL     1      10.341  15.461  17.474  0.00  0.00    +0.000 A 
ATOM      8  C   UNL     1       9.422  14.368  17.623  0.00  0.00    +0.000 A 
ATOM      9  C   UNL     1      10.059  13.067  17.694  0.00  0.00    +0.000 A 
ATOM     10  C   UNL     1       8.092  14.962  17.926  0.00  0.00    +0.000 C 
ATOM     11  C   UNL     1       8.457  16.435  18.217  0.00  0.00    +0.000 C 
ATOM     12  O   UNL     1       9.745  16.705  17.645  0.00  0.00    +0.000 OA
ENDROOT
BRANCH   2  13
ATOM     13  C   UNL     1      10.177  12.300  20.478  0.00  0.00    +0.000 A 
ATOM     14  C   UNL     1      10.504  13.656  20.812  0.00  0.00    +0.000 A 
ATOM     15  C   UNL     1      10.000  14.368  21.888  0.00  0.00    +0.000 A 
ATOM     16  C   UNL     1       9.028  13.763  22.636  0.00  0.00    +0.000 A 
ATOM     17  C   UNL     1       8.633  12.448  22.319  0.00  0.00    +0.000 A 
ATOM     18  C   UNL     1       9.255  11.687  21.294  0.00  0.00    +0.000 A 
BRANCH  17  19
ATOM     19  C   UNL     1       7.392  11.939  22.993  0.00  0.00    +0.000 C 
ATOM     20  C   UNL     1       7.728  11.586  24.457  0.00  0.00    +0.000 C 
ATOM     21  C   UNL     1       6.255  12.929  22.847  0.00  0.00    +0.000 C 
ENDBRANCH  17  19
ENDBRANCH   2  13
BRANCH   1  22
ATOM     22  C   UNL     1       8.932  10.347  18.677  0.00  0.00    +0.000 C 
BRANCH  22  23
ATOM     23  C   UNL     1       8.218   9.247  17.854  0.00  0.00    +0.000 C 
BRANCH  23  27
ATOM     24  C   UNL     1       7.727   5.513  18.816  0.00  0.00    +0.000 C 
ATOM     25  C   UNL     1       7.801   6.730  17.909  0.00  0.00    +0.000 C 
ATOM     26  O   UNL     1       7.493   6.668  16.724  0.00  0.00    +0.000 OA
ATOM     27  N   UNL     1       8.208   7.904  18.519  0.00  0.00    +0.000 N 
ATOM     28  H   UNL     1       8.515   7.850  19.481  0.00  0.00    +0.000 HD
ENDBRANCH  23  27
ENDBRANCH  22  23
ENDBRANCH   1  22
TORSDOF 5
ENDMDL
MODEL 2
REMARK VINA RESULT:      -8.0      5.240     10.679
REMARK  Name = 
REMARK  8 active torsions:
REMARK  status: ('A' for Active; 'I' for Inactive)
REMARK    1  A    between atoms: C_1  and  C_2
REMARK    2  A    between atoms: N_4  and  C_5
REMARK    3  A    between atoms: C_5  and  C_6
REMARK    4  A    between atoms: C_6  and  C_7
REMARK    5  A    between atoms: C_8  and  C_9
REMARK    6  A    between atoms: C_13  and  C_14
REMARK    7  A    between atoms: C_14  and  C_15
REMARK    8  A    between atoms: C_14  and  C_16
REMARK                            x       y       z     vdW  Elec       q    Type
REMARK                         _______ _______ _______ _____ _____    ______ ____
ROOT
ATOM      1  C   UNL     1       5.114   4.691  18.766  0.00  0.00    +0.000 C 
ATOM      2  C   UNL     1       4.458   5.261  17.716  0.00  0.00    +0.000 C 
ATOM      3  C   UNL     1       4.038   4.182  16.735  0.00  0.00    +0.000 C 
ATOM      4  C   UNL     1       3.580   3.139  17.688  0.00  0.00    +0.000 A 
ATOM      5  C   UNL     1       2.645   2.222  17.246  0.00  0.00    +0.000 A 
ATOM      6  C   UNL     1       1.797   1.770  18.206  0.00  0.00    +0.000 A 
ATOM      7  C   UNL     1       2.022   2.262  19.475  0.00  0.00    +0.000 A 
ATOM      8  C   UNL     1       3.105   3.041  20.005  0.00  0.00    +0.000 A 
ATOM      9  C   UNL     1       4.060   3.481  19.006  0.00  0.00    +0.000 A 
ATOM     10  C   UNL     1       2.748   3.374  21.411  0.00  0.00    +0.000 C 
ATOM     11  C   UNL     1       1.261   2.959  21.471  0.00  0.00    +0.000 C 
ATOM     12  O   UNL     1       0.999   2.050  20.392  0.00  0.00    +0.000 OA
ENDROOT
BRANCH   2  13
ATOM     13  C   UNL     1       3.452   6.233  18.365  0.00  0.00    +0.000 A 
ATOM     14  C   UNL     1       3.191   6.183  19.774  0.00  0.00    +0.000 A 
ATOM     15  C   UNL     1       2.326   7.016  20.466  0.00  0.00    +0.000 A 
ATOM     16  C   UNL     1       1.753   8.041  19.766  0.00  0.00    +0.000 A 
ATOM     17  C   UNL     1       2.016   8.165  18.386  0.00  0.00    +0.000 A 
ATOM     18  C   UNL     1       2.801   7.224  17.669  0.00  0.00    +0.000 A 
BRANCH  17  19
ATOM     19  C   UNL     1       1.582   9.444  17.733  0.00  0.00    +0.000 C 
ATOM     20  C   UNL     1       0.066   9.628  17.952  0.00  0.00    +0.000 C 
ATOM     21  C   UNL     1       2.417  10.609  18.222  0.00  0.00    +0.000 C 
ENDBRANCH  17  19
ENDBRANCH   2  13
BRANCH   1  22
ATOM     22  C   UNL     1       6.226   5.699  19.159  0.00  0.00    +0.000 C 
BRANCH  22  23
ATOM     23  C   UNL     1       7.719   5.872  18.789  0.00  0.00    +0.000 C 
BRANCH  23  27
ATOM     24  C   UNL     1       8.742   9.577  18.210  0.00  0.00    +0.000 C 
ATOM     25  C   UNL     1       8.024   8.264  17.951  0.00  0.00    +0.000 C 
ATOM     26  O   UNL     1       7.348   8.088  16.944  0.00  0.00    +0.000 OA
ATOM     27  N   UNL     1       8.213   7.282  18.909  0.00  0.00    +0.000 N 
ATOM     28  H   UNL     1       8.724   7.535  19.744  0.00  0.00    +0.000 HD
ENDBRANCH  23  27
ENDBRANCH  22  23
ENDBRANCH   1  22
TORSDOF 5
ENDMDL
MODEL 3
REMARK VINA RESULT:      -7.9      0.899      1.853
REMARK  Name = 
REMARK  8 active torsions:
REMARK  status: ('A' for Active; 'I' for Inactive)
REMARK    1  A    between atoms: C_1  and  C_2
REMARK    2  A    between atoms: N_4  and  C_5
REMARK    3  A    between atoms: C_5  and  C_6
REMARK    4  A    between atoms: C_6  and  C_7
REMARK    5  A    between atoms: C_8  and  C_9
REMARK    6  A    between atoms: C_13  and  C_14
REMARK    7  A    between atoms: C_14  and  C_15
REMARK    8  A    between atoms: C_14  and  C_16
REMARK                            x       y       z     vdW  Elec       q    Type
REMARK                         _______ _______ _______ _____ _____    ______ ____
ROOT
ATOM      1  C   UNL     1       9.951  11.440  18.775  0.00  0.00    +0.000 C 
ATOM      2  C   UNL     1      10.754  11.565  19.870  0.00  0.00    +0.000 C 
ATOM      3  C   UNL     1      12.067  12.207  19.464  0.00  0.00    +0.000 C 
ATOM      4  C   UNL     1      11.562  13.248  18.533  0.00  0.00    +0.000 A 
ATOM      5  C   UNL     1      12.333  14.381  18.344  0.00  0.00    +0.000 A 
ATOM      6  C   UNL     1      11.625  15.511  18.087  0.00  0.00    +0.000 A 
ATOM      7  C   UNL     1      10.257  15.350  18.012  0.00  0.00    +0.000 A 
ATOM      8  C   UNL     1       9.448  14.164  17.989  0.00  0.00    +0.000 A 
ATOM      9  C   UNL     1      10.193  12.937  18.198  0.00  0.00    +0.000 A 
ATOM     10  C   UNL     1       8.029  14.611  18.018  0.00  0.00    +0.000 C 
ATOM     11  C   UNL     1       8.172  16.111  18.359  0.00  0.00    +0.000 C 
ATOM     12  O   UNL     1       9.511  16.522  18.048  0.00  0.00    +0.000 OA
ENDROOT
BRANCH   2  13
ATOM     13  C   UNL     1       9.839  12.159  20.960  0.00  0.00    +0.000 A 
ATOM     14  C   UNL     1       9.011  11.308  21.764  0.00  0.00    +0.000 A 
ATOM     15  C   UNL     1       8.168  11.726  22.781  0.00  0.00    +0.000 A 
ATOM     16  C   UNL     1       8.207  13.051  23.118  0.00  0.00    +0.000 A 
ATOM     17  C   UNL     1       9.043  13.923  22.391  0.00  0.00    +0.000 A 
ATOM     18  C   UNL     1       9.800  13.498  21.267  0.00  0.00    +0.000 A 
BRANCH  17  19
ATOM     19  C   UNL     1       9.246  15.293  22.967  0.00  0.00    +0.000 C 
ATOM     20  C   UNL     1      10.575  15.867  22.434  0.00  0.00    +0.000 C 
ATOM     21  C   UNL     1       8.045  16.175  22.697  0.00  0.00    +0.000 C 
ENDBRANCH  17  19
ENDBRANCH   2  13
BRANCH   1  22
ATOM     22  C   UNL     1       9.188  10.104  18.970  0.00  0.00    +0.000 C 
BRANCH  22  23
ATOM     23  C   UNL     1       8.226   9.262  18.097  0.00  0.00    +0.000 C 
BRANCH  23  27
ATOM     24  C   UNL     1       7.568   5.438  18.311  0.00  0.00    +0.000 C 
ATOM     25  C   UNL     1       7.544   6.833  17.712  0.00  0.00    +0.000 C 
ATOM     26  O   UNL     1       6.929   7.079  16.680  0.00  0.00    +0.000 OA
ATOM     27  N   UNL     1       8.233   7.800  18.424  0.00  0.00    +0.000 N 
ATOM     28  H   UNL     1       8.774   7.496  19.222  0.00  0.00    +0.000 HD
ENDBRANCH  23  27
ENDBRANCH  22  23
ENDBRANCH   1  22
TORSDOF 5
ENDMDL
MODEL 4
REMARK VINA RESULT:      -7.8      1.042      2.077
REMARK  Name = 
REMARK  8 active torsions:
REMARK  status: ('A' for Active; 'I' for Inactive)
REMARK    1  A    between atoms: C_1  and  C_2
REMARK    2  A    between atoms: N_4  and  C_5
REMARK    3  A    between atoms: C_5  and  C_6
REMARK    4  A    between atoms: C_6  and  C_7
REMARK    5  A    between atoms: C_8  and  C_9
REMARK    6  A    between atoms: C_13  and  C_14
REMARK    7  A    between atoms: C_14  and  C_15
REMARK    8  A    between atoms: C_14  and  C_16
REMARK                            x       y       z     vdW  Elec       q    Type
REMARK                         _______ _______ _______ _____ _____    ______ ____
ROOT
ATOM      1  C   UNL     1       9.521  11.202  18.296  0.00  0.00    +0.000 C 
ATOM      2  C   UNL     1      10.463  11.156  19.281  0.00  0.00    +0.000 C 
ATOM      3  C   UNL     1      11.812  11.554  18.711  0.00  0.00    +0.000 C 
ATOM      4  C   UNL     1      11.396  12.688  17.847  0.00  0.00    +0.000 A 
ATOM      5  C   UNL     1      12.333  13.664  17.559  0.00  0.00    +0.000 A 
ATOM      6  C   UNL     1      11.819  14.909  17.388  0.00  0.00    +0.000 A 
ATOM      7  C   UNL     1      10.447  15.003  17.486  0.00  0.00    +0.000 A 
ATOM      8  C   UNL     1       9.436  13.987  17.570  0.00  0.00    +0.000 A 
ATOM      9  C   UNL     1       9.962  12.640  17.688  0.00  0.00    +0.000 A 
ATOM     10  C   UNL     1       8.139  14.686  17.775  0.00  0.00    +0.000 C 
ATOM     11  C   UNL     1       8.597  16.127  18.090  0.00  0.00    +0.000 C 
ATOM     12  O   UNL     1       9.940  16.292  17.612  0.00  0.00    +0.000 OA
ENDROOT
BRANCH   2  13
ATOM     13  C   UNL     1       9.816  11.886  20.475  0.00  0.00    +0.000 A 
ATOM     14  C   UNL     1       9.031  11.165  21.435  0.00  0.00    +0.000 A 
ATOM     15  C   UNL     1       8.421  11.711  22.553  0.00  0.00    +0.000 A 
ATOM     16  C   UNL     1       8.675  13.027  22.823  0.00  0.00    +0.000 A 
ATOM     17  C   UNL     1       9.483  13.769  21.936  0.00  0.00    +0.000 A 
ATOM     18  C   UNL     1       9.990  13.226  20.727  0.00  0.00    +0.000 A 
BRANCH  17  19
ATOM     19  C   UNL     1       9.942  15.114  22.415  0.00  0.00    +0.000 C 
ATOM     20  C   UNL     1      10.800  15.770  21.313  0.00  0.00    +0.000 C 
ATOM     21  C   UNL     1       8.766  15.959  22.859  0.00  0.00    +0.000 C 
ENDBRANCH  17  19
ENDBRANCH   2  13
BRANCH   1  22
ATOM     22  C   UNL     1       8.555  10.024  18.589  0.00  0.00    +0.000 C 
BRANCH  22  23
ATOM     23  C   UNL     1       8.530   8.520  18.225  0.00  0.00    +0.000 C 
BRANCH  23  27
ATOM     24  C   UNL     1       5.673   6.633  16.385  0.00  0.00    +0.000 C 
ATOM     25  C   UNL     1       6.755   6.869  17.424  0.00  0.00    +0.000 C 
ATOM     26  O   UNL     1       7.090   5.994  18.214  0.00  0.00    +0.000 OA
ATOM     27  N   UNL     1       7.350   8.119  17.391  0.00  0.00    +0.000 N 
ATOM     28  H   UNL     1       6.963   8.805  16.758  0.00  0.00    +0.000 HD
ENDBRANCH  23  27
ENDBRANCH  22  23
ENDBRANCH   1  22
TORSDOF 5
ENDMDL
MODEL 5
REMARK VINA RESULT:      -7.8      5.055     10.465
REMARK  Name = 
REMARK  8 active torsions:
REMARK  status: ('A' for Active; 'I' for Inactive)
REMARK    1  A    between atoms: C_1  and  C_2
REMARK    2  A    between atoms: N_4  and  C_5
REMARK    3  A    between atoms: C_5  and  C_6
REMARK    4  A    between atoms: C_6  and  C_7
REMARK    5  A    between atoms: C_8  and  C_9
REMARK    6  A    between atoms: C_13  and  C_14
REMARK    7  A    between atoms: C_14  and  C_15
REMARK    8  A    between atoms: C_14  and  C_16
REMARK                            x       y       z     vdW  Elec       q    Type
REMARK                         _______ _______ _______ _____ _____    ______ ____
ROOT
ATOM      1  C   UNL     1       5.411   4.593  18.879  0.00  0.00    +0.000 C 
ATOM      2  C   UNL     1       4.946   5.148  17.723  0.00  0.00    +0.000 C 
ATOM      3  C   UNL     1       4.543   4.047  16.759  0.00  0.00    +0.000 C 
ATOM      4  C   UNL     1       3.872   3.118  17.705  0.00  0.00    +0.000 A 
ATOM      5  C   UNL     1       2.911   2.261  17.200  0.00  0.00    +0.000 A 
ATOM      6  C   UNL     1       1.912   1.957  18.069  0.00  0.00    +0.000 A 
ATOM      7  C   UNL     1       2.030   2.511  19.326  0.00  0.00    +0.000 A 
ATOM      8  C   UNL     1       3.113   3.223  19.944  0.00  0.00    +0.000 A 
ATOM      9  C   UNL     1       4.221   3.504  19.051  0.00  0.00    +0.000 A 
ATOM     10  C   UNL     1       2.623   3.683  21.272  0.00  0.00    +0.000 C 
ATOM     11  C   UNL     1       1.107   3.411  21.166  0.00  0.00    +0.000 C 
ATOM     12  O   UNL     1       0.888   2.458  20.117  0.00  0.00    +0.000 OA
ENDROOT
BRANCH   2  13
ATOM     13  C   UNL     1       3.971   6.250  18.183  0.00  0.00    +0.000 A 
ATOM     14  C   UNL     1       3.509   7.249  17.263  0.00  0.00    +0.000 A 
ATOM     15  C   UNL     1       2.621   8.271  17.558  0.00  0.00    +0.000 A 
ATOM     16  C   UNL     1       2.054   8.264  18.802  0.00  0.00    +0.000 A 
ATOM     17  C   UNL     1       2.436   7.272  19.729  0.00  0.00    +0.000 A 
ATOM     18  C   UNL     1       3.446   6.313  19.451  0.00  0.00    +0.000 A 
BRANCH  17  19
ATOM     19  C   UNL     1       1.598   7.153  20.967  0.00  0.00    +0.000 C 
ATOM     20  C   UNL     1       1.520   8.534  21.653  0.00  0.00    +0.000 C 
ATOM     21  C   UNL     1       0.245   6.552  20.647  0.00  0.00    +0.000 C 
ENDBRANCH  17  19
ENDBRANCH   2  13
BRANCH   1  22
ATOM     22  C   UNL     1       6.561   5.520  19.351  0.00  0.00    +0.000 C 
BRANCH  22  23
ATOM     23  C   UNL     1       7.992   5.825  18.845  0.00  0.00    +0.000 C 
BRANCH  23  27
ATOM     24  C   UNL     1       8.598   9.599  18.138  0.00  0.00    +0.000 C 
ATOM     25  C   UNL     1       7.986   8.220  17.961  0.00  0.00    +0.000 C 
ATOM     26  O   UNL     1       7.236   7.964  17.026  0.00  0.00    +0.000 OA
ATOM     27  N   UNL     1       8.359   7.277  18.904  0.00  0.00    +0.000 N 
ATOM     28  H   UNL     1       8.921   7.591  19.683  0.00  0.00    +0.000 HD
ENDBRANCH  23  27
ENDBRANCH  22  23
ENDBRANCH   1  22
TORSDOF 5
ENDMDL
MODEL 6
REMARK VINA RESULT:      -7.7      8.356     11.395
REMARK  Name = 
REMARK  8 active torsions:
REMARK  status: ('A' for Active; 'I' for Inactive)
REMARK    1  A    between atoms: C_1  and  C_2
REMARK    2  A    between atoms: N_4  and  C_5
REMARK    3  A    between atoms: C_5  and  C_6
REMARK    4  A    between atoms: C_6  and  C_7
REMARK    5  A    between atoms: C_8  and  C_9
REMARK    6  A    between atoms: C_13  and  C_14
REMARK    7  A    between atoms: C_14  and  C_15
REMARK    8  A    between atoms: C_14  and  C_16
REMARK                            x       y       z     vdW  Elec       q    Type
REMARK                         _______ _______ _______ _____ _____    ______ ____
ROOT
ATOM      1  C   UNL     1       2.085   6.544  18.434  0.00  0.00    +0.000 C 
ATOM      2  C   UNL     1       3.047   6.782  19.371  0.00  0.00    +0.000 C 
ATOM      3  C   UNL     1       2.569   6.290  20.724  0.00  0.00    +0.000 C 
ATOM      4  C   UNL     1       1.934   5.010  20.318  0.00  0.00    +0.000 A 
ATOM      5  C   UNL     1       1.842   4.003  21.262  0.00  0.00    +0.000 A 
ATOM      6  C   UNL     1       1.909   2.745  20.755  0.00  0.00    +0.000 A 
ATOM      7  C   UNL     1       2.017   2.663  19.382  0.00  0.00    +0.000 A 
ATOM      8  C   UNL     1       1.901   3.671  18.366  0.00  0.00    +0.000 A 
ATOM      9  C   UNL     1       1.764   5.018  18.885  0.00  0.00    +0.000 A 
ATOM     10  C   UNL     1       2.230   3.016  17.072  0.00  0.00    +0.000 C 
ATOM     11  C   UNL     1       2.815   1.664  17.535  0.00  0.00    +0.000 C 
ATOM     12  O   UNL     1       2.383   1.419  18.881  0.00  0.00    +0.000 OA
ENDROOT
BRANCH   2  13
ATOM     13  C   UNL     1       4.355   6.289  18.721  0.00  0.00    +0.000 A 
ATOM     14  C   UNL     1       5.379   5.671  19.513  0.00  0.00    +0.000 A 
ATOM     15  C   UNL     1       6.581   5.175  19.036  0.00  0.00    +0.000 A 
ATOM     16  C   UNL     1       6.763   5.177  17.681  0.00  0.00    +0.000 A 
ATOM     17  C   UNL     1       5.764   5.727  16.852  0.00  0.00    +0.000 A 
ATOM     18  C   UNL     1       4.598   6.350  17.369  0.00  0.00    +0.000 A 
BRANCH  17  19
ATOM     19  C   UNL     1       5.894   5.465  15.381  0.00  0.00    +0.000 C 
ATOM     20  C   UNL     1       7.356   5.082  15.068  0.00  0.00    +0.000 C 
ATOM     21  C   UNL     1       4.881   4.435  14.925  0.00  0.00    +0.000 C 
ENDBRANCH  17  19
ENDBRANCH   2  13
BRANCH   1  22
ATOM     22  C   UNL     1       2.145   7.750  17.461  0.00  0.00    +0.000 C 
BRANCH  22  23
ATOM     23  C   UNL     1       2.190   9.287  17.634  0.00  0.00    +0.000 C 
BRANCH  23  27
ATOM     24  C   UNL     1      -1.230  10.533  18.998  0.00  0.00    +0.000 C 
ATOM     25  C   UNL     1       0.189   9.997  19.052  0.00  0.00    +0.000 C 
ATOM     26  O   UNL     1       0.701   9.638  20.107  0.00  0.00    +0.000 OA
ATOM     27  N   UNL     1       0.843   9.914  17.835  0.00  0.00    +0.000 N 
ATOM     28  H   UNL     1       0.376  10.301  17.026  0.00  0.00    +0.000 HD
ENDBRANCH  23  27
ENDBRANCH  22  23
ENDBRANCH   1  22
TORSDOF 5
ENDMDL
MODEL 7
REMARK VINA RESULT:      -7.6      7.304     10.700
REMARK  Name = 
REMARK  8 active torsions:
REMARK  status: ('A' for Active; 'I' for Inactive)
REMARK    1  A    between atoms: C_1  and  C_2
REMARK    2  A    between atoms: N_4  and  C_5
REMARK    3  A    between atoms: C_5  and  C_6
REMARK    4  A    between atoms: C_6  and  C_7
REMARK    5  A    between atoms: C_8  and  C_9
REMARK    6  A    between atoms: C_13  and  C_14
REMARK    7  A    between atoms: C_14  and  C_15
REMARK    8  A    between atoms: C_14  and  C_16
REMARK                            x       y       z     vdW  Elec       q    Type
REMARK                         _______ _______ _______ _____ _____    ______ ____
ROOT
ATOM      1  C   UNL     1       4.931   4.878  18.599  0.00  0.00    +0.000 C 
ATOM      2  C   UNL     1       4.158   5.376  17.593  0.00  0.00    +0.000 C 
ATOM      3  C   UNL     1       3.676   4.238  16.713  0.00  0.00    +0.000 C 
ATOM      4  C   UNL     1       3.345   3.235  17.757  0.00  0.00    +0.000 A 
ATOM      5  C   UNL     1       2.398   2.273  17.455  0.00  0.00    +0.000 A 
ATOM      6  C   UNL     1       1.662   1.852  18.516  0.00  0.00    +0.000 A 
ATOM      7  C   UNL     1       1.996   2.413  19.730  0.00  0.00    +0.000 A 
ATOM      8  C   UNL     1       3.103   3.245  20.111  0.00  0.00    +0.000 A 
ATOM      9  C   UNL     1       3.941   3.656  19.002  0.00  0.00    +0.000 A 
ATOM     10  C   UNL     1       2.875   3.641  21.527  0.00  0.00    +0.000 C 
ATOM     11  C   UNL     1       1.415   3.194  21.756  0.00  0.00    +0.000 C 
ATOM     12  O   UNL     1       1.075   2.224  20.754  0.00  0.00    +0.000 OA
ENDROOT
BRANCH   2  13
ATOM     13  C   UNL     1       3.193   6.356  18.290  0.00  0.00    +0.000 A 
ATOM     14  C   UNL     1       2.965   6.276  19.704  0.00  0.00    +0.000 A 
ATOM     15  C   UNL     1       2.138   7.112  20.438  0.00  0.00    +0.000 A 
ATOM     16  C   UNL     1       1.573   8.168  19.777  0.00  0.00    +0.000 A 
ATOM     17  C   UNL     1       1.806   8.320  18.395  0.00  0.00    +0.000 A 
ATOM     18  C   UNL     1       2.550   7.379  17.635  0.00  0.00    +0.000 A 
BRANCH  17  19
ATOM     19  C   UNL     1       1.389   9.625  17.784  0.00  0.00    +0.000 C 
ATOM     20  C   UNL     1      -0.077   9.912  18.172  0.00  0.00    +0.000 C 
ATOM     21  C   UNL     1       2.350  10.732  18.166  0.00  0.00    +0.000 C 
ENDBRANCH  17  19
ENDBRANCH   2  13
BRANCH   1  22
ATOM     22  C   UNL     1       6.045   5.931  18.830  0.00  0.00    +0.000 C 
BRANCH  22  23
ATOM     23  C   UNL     1       7.135   6.576  17.939  0.00  0.00    +0.000 C 
BRANCH  23  27
ATOM     24  C   UNL     1       7.245   5.068  14.358  0.00  0.00    +0.000 C 
ATOM     25  C   UNL     1       7.354   5.093  15.873  0.00  0.00    +0.000 C 
ATOM     26  O   UNL     1       7.777   4.130  16.503  0.00  0.00    +0.000 OA
ATOM     27  N   UNL     1       6.976   6.279  16.478  0.00  0.00    +0.000 N 
ATOM     28  H   UNL     1       6.569   6.995  15.892  0.00  0.00    +0.000 HD
ENDBRANCH  23  27
ENDBRANCH  22  23
ENDBRANCH   1  22
TORSDOF 5
ENDMDL
MODEL 8
REMARK VINA RESULT:      -7.1      8.670     10.989
REMARK  Name = 
REMARK  8 active torsions:
REMARK  status: ('A' for Active; 'I' for Inactive)
REMARK    1  A    between atoms: C_1  and  C_2
REMARK    2  A    between atoms: N_4  and  C_5
REMARK    3  A    between atoms: C_5  and  C_6
REMARK    4  A    between atoms: C_6  and  C_7
REMARK    5  A    between atoms: C_8  and  C_9
REMARK    6  A    between atoms: C_13  and  C_14
REMARK    7  A    between atoms: C_14  and  C_15
REMARK    8  A    between atoms: C_14  and  C_16
REMARK                            x       y       z     vdW  Elec       q    Type
REMARK                         _______ _______ _______ _____ _____    ______ ____
ROOT
ATOM      1  C   UNL     1       0.739  10.420  19.195  0.00  0.00    +0.000 C 
ATOM      2  C   UNL     1      -0.423   9.838  19.608  0.00  0.00    +0.000 C 
ATOM      3  C   UNL     1      -0.557   9.987  21.113  0.00  0.00    +0.000 C 
ATOM      4  C   UNL     1      -0.088  11.387  21.271  0.00  0.00    +0.000 A 
ATOM      5  C   UNL     1      -0.533  12.101  22.368  0.00  0.00    +0.000 A 
ATOM      6  C   UNL     1      -0.665  13.436  22.158  0.00  0.00    +0.000 A 
ATOM      7  C   UNL     1      -0.300  13.879  20.905  0.00  0.00    +0.000 A 
ATOM      8  C   UNL     1       0.362  13.205  19.823  0.00  0.00    +0.000 A 
ATOM      9  C   UNL     1       0.573  11.789  20.052  0.00  0.00    +0.000 A 
ATOM     10  C   UNL     1       0.385  14.152  18.676  0.00  0.00    +0.000 C 
ATOM     11  C   UNL     1      -0.581  15.259  19.154  0.00  0.00    +0.000 C 
ATOM     12  O   UNL     1      -0.706  15.169  20.580  0.00  0.00    +0.000 OA
ENDROOT
BRANCH   2  13
ATOM     13  C   UNL     1      -1.491  10.355  18.622  0.00  0.00    +0.000 A 
ATOM     14  C   UNL     1      -1.495   9.921  17.255  0.00  0.00    +0.000 A 
ATOM     15  C   UNL     1      -2.413  10.301  16.290  0.00  0.00    +0.000 A 
ATOM     16  C   UNL     1      -3.465  11.072  16.699  0.00  0.00    +0.000 A 
ATOM     17  C   UNL     1      -3.535  11.485  18.045  0.00  0.00    +0.000 A 
ATOM     18  C   UNL     1      -2.516  11.194  18.989  0.00  0.00    +0.000 A 
BRANCH  17  19
ATOM     19  C   UNL     1      -4.831  12.094  18.493  0.00  0.00    +0.000 C 
ATOM     20  C   UNL     1      -5.980  11.112  18.182  0.00  0.00    +0.000 C 
ATOM     21  C   UNL     1      -4.758  12.509  19.948  0.00  0.00    +0.000 C 
ENDBRANCH  17  19
ENDBRANCH   2  13
BRANCH   1  22
ATOM     22  C   UNL     1       1.264   9.527  18.041  0.00  0.00    +0.000 C 
BRANCH  22  23
ATOM     23  C   UNL     1       2.330   8.411  17.927  0.00  0.00    +0.000 C 
BRANCH  23  27
ATOM     24  C   UNL     1       2.272   5.362  20.336  0.00  0.00    +0.000 C 
ATOM     25  C   UNL     1       2.393   6.104  19.017  0.00  0.00    +0.000 C 
ATOM     26  O   UNL     1       2.478   5.508  17.949  0.00  0.00    +0.000 OA
ATOM     27  N   UNL     1       2.367   7.485  19.105  0.00  0.00    +0.000 N 
ATOM     28  H   UNL     1       2.370   7.896  20.029  0.00  0.00    +0.000 HD
ENDBRANCH  23  27
ENDBRANCH  22  23
ENDBRANCH   1  22
TORSDOF 5
ENDMDL
MODEL 9
REMARK VINA RESULT:      -7.0      8.592     11.213
REMARK  Name = 
REMARK  8 active torsions:
REMARK  status: ('A' for Active; 'I' for Inactive)
REMARK    1  A    between atoms: C_1  and  C_2
REMARK    2  A    between atoms: N_4  and  C_5
REMARK    3  A    between atoms: C_5  and  C_6
REMARK    4  A    between atoms: C_6  and  C_7
REMARK    5  A    between atoms: C_8  and  C_9
REMARK    6  A    between atoms: C_13  and  C_14
REMARK    7  A    between atoms: C_14  and  C_15
REMARK    8  A    between atoms: C_14  and  C_16
REMARK                            x       y       z     vdW  Elec       q    Type
REMARK                         _______ _______ _______ _____ _____    ______ ____
ROOT
ATOM      1  C   UNL     1      -1.269  12.708  21.719  0.00  0.00    +0.000 C 
ATOM      2  C   UNL     1      -2.320  12.887  20.869  0.00  0.00    +0.000 C 
ATOM      3  C   UNL     1      -2.596  14.371  20.711  0.00  0.00    +0.000 C 
ATOM      4  C   UNL     1      -1.203  14.879  20.620  0.00  0.00    +0.000 A 
ATOM      5  C   UNL     1      -0.989  16.072  19.955  0.00  0.00    +0.000 A 
ATOM      6  C   UNL     1       0.210  16.162  19.325  0.00  0.00    +0.000 A 
ATOM      7  C   UNL     1       1.043  15.073  19.477  0.00  0.00    +0.000 A 
ATOM      8  C   UNL     1       0.941  13.921  20.328  0.00  0.00    +0.000 A 
ATOM      9  C   UNL     1      -0.307  13.837  21.061  0.00  0.00    +0.000 A 
ATOM     10  C   UNL     1       2.075  13.024  19.974  0.00  0.00    +0.000 C 
ATOM     11  C   UNL     1       2.597  13.665  18.669  0.00  0.00    +0.000 C 
ATOM     12  O   UNL     1       2.128  15.020  18.610  0.00  0.00    +0.000 OA
ENDROOT
BRANCH   2  13
ATOM     13  C   UNL     1      -2.016  11.966  19.671  0.00  0.00    +0.000 A 
ATOM     14  C   UNL     1      -0.873  11.099  19.685  0.00  0.00    +0.000 A 
ATOM     15  C   UNL     1      -0.514  10.218  18.678  0.00  0.00    +0.000 A 
ATOM     16  C   UNL     1      -1.378  10.085  17.628  0.00  0.00    +0.000 A 
ATOM     17  C   UNL     1      -2.543  10.879  17.589  0.00  0.00    +0.000 A 
ATOM     18  C   UNL     1      -2.827  11.870  18.565  0.00  0.00    +0.000 A 
BRANCH  17  19
ATOM     19  C   UNL     1      -3.575  10.506  16.566  0.00  0.00    +0.000 C 
ATOM     20  C   UNL     1      -4.784  11.454  16.706  0.00  0.00    +0.000 C 
ATOM     21  C   UNL     1      -2.973  10.484  15.176  0.00  0.00    +0.000 C 
ENDBRANCH  17  19
ENDBRANCH   2  13
BRANCH   1  22
ATOM     22  C   UNL     1      -1.600  11.424  22.524  0.00  0.00    +0.000 C 
BRANCH  22  23
ATOM     23  C   UNL     1      -0.759  10.347  23.250  0.00  0.00    +0.000 C 
BRANCH  23  27
ATOM     24  C   UNL     1       1.324   7.910  21.051  0.00  0.00    +0.000 C 
ATOM     25  C   UNL     1       1.060   8.961  22.115  0.00  0.00    +0.000 C 
ATOM     26  O   UNL     1       1.977   9.528  22.700  0.00  0.00    +0.000 OA
ATOM     27  N   UNL     1      -0.273   9.250  22.351  0.00  0.00    +0.000 N 
ATOM     28  H   UNL     1      -0.965   8.684  21.880  0.00  0.00    +0.000 HD
ENDBRANCH  23  27
ENDBRANCH  22  23
ENDBRANCH   1  22
TORSDOF 5
ENDMDL
