MODEL 1
REMARK VINA RESULT:      -8.3      0.000      0.000
REMARK  Name = 
REMARK  5 active torsions:
REMARK  status: ('A' for Active; 'I' for Inactive)
REMARK    1  A    between atoms: C_2  and  C_3
REMARK    2  A    between atoms: C_3  and  C_4
REMARK    3  A    between atoms: C_11  and  O_12
REMARK    4  A    between atoms: O_12  and  C_13
REMARK    5  A    between atoms: C_16  and  N_17
REMARK                            x       y       z     vdW  Elec       q    Type
REMARK                         _______ _______ _______ _____ _____    ______ ____
ROOT
ATOM      1  C   UNL     1       2.047   7.439  19.909  0.00  0.00    +0.000 A 
ATOM      2  C   UNL     1       2.140   8.087  18.674  0.00  0.00    +0.000 A 
ATOM      3  C   UNL     1       1.637   9.389  18.500  0.00  0.00    +0.000 A 
ATOM      4  C   UNL     1       1.019  10.056  19.557  0.00  0.00    +0.000 A 
ATOM      5  C   UNL     1       0.917   9.400  20.790  0.00  0.00    +0.000 A 
ATOM      6  C   UNL     1       1.405   8.095  20.957  0.00  0.00    +0.000 A 
ENDROOT
BRANCH   4   7
ATOM      7  N   UNL     1       0.506  11.372  19.467  0.00  0.00    +0.000 N 
ATOM      8  C   UNL     1       1.204  12.509  19.117  0.00  0.00    +0.000 C 
ATOM      9  O   UNL     1       2.369  12.533  18.726  0.00  0.00    +0.000 OA
ATOM     10  N   UNL     1       0.464  13.674  19.193  0.00  0.00    +0.000 N 
ATOM     11  C   UNL     1       1.037  14.937  18.717  0.00  0.00    +0.000 C 
ATOM     12  C   UNL     1       0.001  15.953  19.091  0.00  0.00    +0.000 A 
ATOM     13  C   UNL     1      -0.055  17.302  18.810  0.00  0.00    +0.000 A 
ATOM     14  C   UNL     1      -1.150  17.992  19.319  0.00  0.00    +0.000 A 
ATOM     15  N   UNL     1      -2.137  17.429  20.064  0.00  0.00    +0.000 NA
ATOM     16  C   UNL     1      -2.045  16.105  20.319  0.00  0.00    +0.000 A 
ATOM     17  C   UNL     1      -1.000  15.344  19.846  0.00  0.00    +0.000 A 
ATOM     18  C   UNL     1      -0.725  13.893  20.019  0.00  0.00    +0.000 C 
ATOM     19  H   UNL     1      -0.495  11.443  19.385  0.00  0.00    +0.000 HD
ENDBRANCH   4   7
BRANCH   1  20
ATOM     20  O   UNL     1       2.618   6.195  19.977  0.00  0.00    +0.000 OA
BRANCH  20  27
ATOM     21  O   UNL     1       6.468   5.532  17.021  0.00  0.00    +0.000 OA
ATOM     22  C   UNL     1       5.769   4.543  16.804  0.00  0.00    +0.000 C 
ATOM     23  N   UNL     1       4.748   4.164  17.673  0.00  0.00    +0.000 N 
ATOM     24  C   UNL     1       3.879   3.004  17.494  0.00  0.00    +0.000 C 
ATOM     25  C   UNL     1       2.440   3.467  17.322  0.00  0.00    +0.000 C 
ATOM     26  C   UNL     1       2.002   4.342  18.492  0.00  0.00    +0.000 C 
ATOM     27  C   UNL     1       2.953   5.531  18.742  0.00  0.00    +0.000 C 
ATOM     28  C   UNL     1       4.410   5.009  18.829  0.00  0.00    +0.000 C 
BRANCH  22  29
ATOM     29  C   UNL     1       5.982   3.670  15.564  0.00  0.00    +0.000 C 
BRANCH  29  30
ATOM     30  C   UNL     1       5.798   4.390  14.252  0.00  0.00    +0.000 C 
ATOM     31  C   UNL     1       6.815   4.224  13.149  0.00  0.00    +0.000 C 
ATOM     32  C   UNL     1       5.444   3.627  13.000  0.00  0.00    +0.000 C 
ENDBRANCH  29  30
ENDBRANCH  22  29
ENDBRANCH  20  27
ENDBRANCH   1  20
TORSDOF 5
ENDMDL
MODEL 2
REMARK VINA RESULT:      -8.2      0.938      1.371
REMARK  Name = 
REMARK  5 active torsions:
REMARK  status: ('A' for Active; 'I' for Inactive)
REMARK    1  A    between atoms: C_2  and  C_3
REMARK    2  A    between atoms: C_3  and  C_4
REMARK    3  A    between atoms: C_11  and  O_12
REMARK    4  A    between atoms: O_12  and  C_13
REMARK    5  A    between atoms: C_16  and  N_17
REMARK                            x       y       z     vdW  Elec       q    Type
REMARK                         _______ _______ _______ _____ _____    ______ ____
ROOT
ATOM      1  C   UNL     1       1.812   7.820  19.520  0.00  0.00    +0.000 A 
ATOM      2  C   UNL     1       1.299   8.501  20.627  0.00  0.00    +0.000 A 
ATOM      3  C   UNL     1       0.918   9.852  20.533  0.00  0.00    +0.000 A 
ATOM      4  C   UNL     1       1.059  10.545  19.332  0.00  0.00    +0.000 A 
ATOM      5  C   UNL     1       1.586   9.863  18.228  0.00  0.00    +0.000 A 
ATOM      6  C   UNL     1       1.980   8.521  18.328  0.00  0.00    +0.000 A 
ENDROOT
BRANCH   4   7
ATOM      7  N   UNL     1       0.682  11.897  19.153  0.00  0.00    +0.000 N 
ATOM      8  C   UNL     1       1.526  12.976  18.991  0.00  0.00    +0.000 C 
ATOM      9  O   UNL     1       2.748  12.908  18.872  0.00  0.00    +0.000 OA
ATOM     10  N   UNL     1       0.879  14.195  18.921  0.00  0.00    +0.000 N 
ATOM     11  C   UNL     1       1.639  15.411  18.610  0.00  0.00    +0.000 C 
ATOM     12  C   UNL     1       0.627  16.504  18.761  0.00  0.00    +0.000 A 
ATOM     13  C   UNL     1       0.739  17.854  18.500  0.00  0.00    +0.000 A 
ATOM     14  C   UNL     1      -0.386  18.628  18.763  0.00  0.00    +0.000 A 
ATOM     15  N   UNL     1      -1.556  18.143  19.257  0.00  0.00    +0.000 NA
ATOM     16  C   UNL     1      -1.625  16.816  19.501  0.00  0.00    +0.000 A 
ATOM     17  C   UNL     1      -0.563  15.976  19.260  0.00  0.00    +0.000 A 
ATOM     18  C   UNL     1      -0.445  14.507  19.462  0.00  0.00    +0.000 C 
ATOM     19  H   UNL     1      -0.266  12.048  18.851  0.00  0.00    +0.000 HD
ENDBRANCH   4   7
BRANCH   1  20
ATOM     20  O   UNL     1       2.100   6.493  19.713  0.00  0.00    +0.000 OA
BRANCH  20  27
ATOM     21  O   UNL     1       6.749   6.267  18.186  0.00  0.00    +0.000 OA
ATOM     22  C   UNL     1       6.291   5.169  17.869  0.00  0.00    +0.000 C 
ATOM     23  N   UNL     1       5.103   4.688  18.412  0.00  0.00    +0.000 N 
ATOM     24  C   UNL     1       4.496   3.398  18.096  0.00  0.00    +0.000 C 
ATOM     25  C   UNL     1       3.142   3.619  17.437  0.00  0.00    +0.000 C 
ATOM     26  C   UNL     1       2.241   4.483  18.314  0.00  0.00    +0.000 C 
ATOM     27  C   UNL     1       2.898   5.818  18.720  0.00  0.00    +0.000 C 
ATOM     28  C   UNL     1       4.303   5.536  19.310  0.00  0.00    +0.000 C 
BRANCH  22  29
ATOM     29  C   UNL     1       7.005   4.269  16.856  0.00  0.00    +0.000 C 
BRANCH  29  30
ATOM     30  C   UNL     1       6.321   4.171  15.515  0.00  0.00    +0.000 C 
ATOM     31  C   UNL     1       5.620   5.374  14.934  0.00  0.00    +0.000 C 
ATOM     32  C   UNL     1       6.892   4.875  14.309  0.00  0.00    +0.000 C 
ENDBRANCH  29  30
ENDBRANCH  22  29
ENDBRANCH  20  27
ENDBRANCH   1  20
TORSDOF 5
ENDMDL
MODEL 3
REMARK VINA RESULT:      -8.1      1.362      1.765
REMARK  Name = 
REMARK  5 active torsions:
REMARK  status: ('A' for Active; 'I' for Inactive)
REMARK    1  A    between atoms: C_2  and  C_3
REMARK    2  A    between atoms: C_3  and  C_4
REMARK    3  A    between atoms: C_11  and  O_12
REMARK    4  A    between atoms: O_12  and  C_13
REMARK    5  A    between atoms: C_16  and  N_17
REMARK                            x       y       z     vdW  Elec       q    Type
REMARK                         _______ _______ _______ _____ _____    ______ ____
ROOT
ATOM      1  C   UNL     1       1.789   7.635  19.630  0.00  0.00    +0.000 A 
ATOM      2  C   UNL     1       2.085   8.281  18.426  0.00  0.00    +0.000 A 
ATOM      3  C   UNL     1       1.963   9.677  18.304  0.00  0.00    +0.000 A 
ATOM      4  C   UNL     1       1.527  10.446  19.382  0.00  0.00    +0.000 A 
ATOM      5  C   UNL     1       1.218   9.795  20.582  0.00  0.00    +0.000 A 
ATOM      6  C   UNL     1       1.326   8.401  20.697  0.00  0.00    +0.000 A 
ENDROOT
BRANCH   4   7
ATOM      7  N   UNL     1       1.397  11.855  19.343  0.00  0.00    +0.000 N 
ATOM      8  C   UNL     1       0.266  12.571  19.011  0.00  0.00    +0.000 C 
ATOM      9  O   UNL     1      -0.843  12.085  18.796  0.00  0.00    +0.000 OA
ATOM     10  N   UNL     1       0.452  13.940  18.977  0.00  0.00    +0.000 N 
ATOM     11  C   UNL     1      -0.696  14.830  18.774  0.00  0.00    +0.000 C 
ATOM     12  C   UNL     1      -0.071  16.187  18.665  0.00  0.00    +0.000 A 
ATOM     13  C   UNL     1      -0.664  17.428  18.568  0.00  0.00    +0.000 A 
ATOM     14  C   UNL     1       0.196  18.516  18.459  0.00  0.00    +0.000 A 
ATOM     15  N   UNL     1       1.552  18.426  18.437  0.00  0.00    +0.000 NA
ATOM     16  C   UNL     1       2.095  17.192  18.534  0.00  0.00    +0.000 A 
ATOM     17  C   UNL     1       1.318  16.063  18.654  0.00  0.00    +0.000 A 
ATOM     18  C   UNL     1       1.724  14.637  18.770  0.00  0.00    +0.000 C 
ATOM     19  H   UNL     1       2.093  12.370  19.855  0.00  0.00    +0.000 HD
ENDBRANCH   4   7
BRANCH   1  20
ATOM     20  O   UNL     1       1.994   6.280  19.649  0.00  0.00    +0.000 OA
BRANCH  20  27
ATOM     21  O   UNL     1       6.722   6.221  18.368  0.00  0.00    +0.000 OA
ATOM     22  C   UNL     1       6.293   5.157  17.922  0.00  0.00    +0.000 C 
ATOM     23  N   UNL     1       5.081   4.621  18.350  0.00  0.00    +0.000 N 
ATOM     24  C   UNL     1       4.505   3.364  17.878  0.00  0.00    +0.000 C 
ATOM     25  C   UNL     1       3.187   3.643  17.170  0.00  0.00    +0.000 C 
ATOM     26  C   UNL     1       2.231   4.414  18.074  0.00  0.00    +0.000 C 
ATOM     27  C   UNL     1       2.852   5.707  18.642  0.00  0.00    +0.000 C 
ATOM     28  C   UNL     1       4.226   5.376  19.279  0.00  0.00    +0.000 C 
BRANCH  22  29
ATOM     29  C   UNL     1       7.069   4.362  16.869  0.00  0.00    +0.000 C 
BRANCH  29  30
ATOM     30  C   UNL     1       6.962   4.907  15.467  0.00  0.00    +0.000 C 
ATOM     31  C   UNL     1       6.375   4.057  14.368  0.00  0.00    +0.000 C 
ATOM     32  C   UNL     1       5.616   5.250  14.878  0.00  0.00    +0.000 C 
ENDBRANCH  29  30
ENDBRANCH  22  29
ENDBRANCH  20  27
ENDBRANCH   1  20
TORSDOF 5
ENDMDL
MODEL 4
REMARK VINA RESULT:      -8.1      1.845      2.255
REMARK  Name = 
REMARK  5 active torsions:
REMARK  status: ('A' for Active; 'I' for Inactive)
REMARK    1  A    between atoms: C_2  and  C_3
REMARK    2  A    between atoms: C_3  and  C_4
REMARK    3  A    between atoms: C_11  and  O_12
REMARK    4  A    between atoms: O_12  and  C_13
REMARK    5  A    between atoms: C_16  and  N_17
REMARK                            x       y       z     vdW  Elec       q    Type
REMARK                         _______ _______ _______ _____ _____    ______ ____
ROOT
ATOM      1  C   UNL     1       2.116   7.482  20.018  0.00  0.00    +0.000 A 
ATOM      2  C   UNL     1       1.399   7.730  21.192  0.00  0.00    +0.000 A 
ATOM      3  C   UNL     1       0.511   8.818  21.281  0.00  0.00    +0.000 A 
ATOM      4  C   UNL     1       0.341   9.682  20.201  0.00  0.00    +0.000 A 
ATOM      5  C   UNL     1       1.071   9.438  19.032  0.00  0.00    +0.000 A 
ATOM      6  C   UNL     1       1.967   8.362  18.950  0.00  0.00    +0.000 A 
ENDROOT
BRANCH   4   7
ATOM      7  N   UNL     1      -0.546  10.786  20.207  0.00  0.00    +0.000 N 
ATOM      8  C   UNL     1      -0.381  11.975  20.886  0.00  0.00    +0.000 C 
ATOM      9  O   UNL     1       0.626  12.299  21.513  0.00  0.00    +0.000 OA
ATOM     10  N   UNL     1      -1.449  12.844  20.775  0.00  0.00    +0.000 N 
ATOM     11  C   UNL     1      -1.353  14.198  21.330  0.00  0.00    +0.000 C 
ATOM     12  C   UNL     1      -2.728  14.756  21.131  0.00  0.00    +0.000 A 
ATOM     13  C   UNL     1      -3.209  16.027  21.369  0.00  0.00    +0.000 A 
ATOM     14  C   UNL     1      -4.558  16.236  21.100  0.00  0.00    +0.000 A 
ATOM     15  N   UNL     1      -5.407  15.282  20.635  0.00  0.00    +0.000 NA
ATOM     16  C   UNL     1      -4.898  14.049  20.417  0.00  0.00    +0.000 A 
ATOM     17  C   UNL     1      -3.573  13.758  20.647  0.00  0.00    +0.000 A 
ATOM     18  C   UNL     1      -2.835  12.479  20.470  0.00  0.00    +0.000 C 
ATOM     19  H   UNL     1      -1.209  10.815  19.450  0.00  0.00    +0.000 HD
ENDBRANCH   4   7
BRANCH   1  20
ATOM     20  O   UNL     1       2.911   6.364  20.027  0.00  0.00    +0.000 OA
BRANCH  20  27
ATOM     21  O   UNL     1       6.639   5.381  17.006  0.00  0.00    +0.000 OA
ATOM     22  C   UNL     1       5.841   4.473  16.777  0.00  0.00    +0.000 C 
ATOM     23  N   UNL     1       4.796   4.180  17.651  0.00  0.00    +0.000 N 
ATOM     24  C   UNL     1       3.811   3.119  17.459  0.00  0.00    +0.000 C 
ATOM     25  C   UNL     1       2.425   3.730  17.316  0.00  0.00    +0.000 C 
ATOM     26  C   UNL     1       2.092   4.618  18.510  0.00  0.00    +0.000 C 
ATOM     27  C   UNL     1       3.162   5.698  18.773  0.00  0.00    +0.000 C 
ATOM     28  C   UNL     1       4.559   5.029  18.829  0.00  0.00    +0.000 C 
BRANCH  22  29
ATOM     29  C   UNL     1       5.950   3.611  15.516  0.00  0.00    +0.000 C 
BRANCH  29  30
ATOM     30  C   UNL     1       5.781   4.369  14.224  0.00  0.00    +0.000 C 
ATOM     31  C   UNL     1       6.915   4.432  13.230  0.00  0.00    +0.000 C 
ATOM     32  C   UNL     1       5.683   3.634  12.909  0.00  0.00    +0.000 C 
ENDBRANCH  29  30
ENDBRANCH  22  29
ENDBRANCH  20  27
ENDBRANCH   1  20
TORSDOF 5
ENDMDL
MODEL 5
REMARK VINA RESULT:      -8.0      1.123      1.704
REMARK  Name = 
REMARK  5 active torsions:
REMARK  status: ('A' for Active; 'I' for Inactive)
REMARK    1  A    between atoms: C_2  and  C_3
REMARK    2  A    between atoms: C_3  and  C_4
REMARK    3  A    between atoms: C_11  and  O_12
REMARK    4  A    between atoms: O_12  and  C_13
REMARK    5  A    between atoms: C_16  and  N_17
REMARK                            x       y       z     vdW  Elec       q    Type
REMARK                         _______ _______ _______ _____ _____    ______ ____
ROOT
ATOM      1  C   UNL     1       1.798   7.531  19.891  0.00  0.00    +0.000 A 
ATOM      2  C   UNL     1       1.402   8.144  21.083  0.00  0.00    +0.000 A 
ATOM      3  C   UNL     1       1.039   9.503  21.112  0.00  0.00    +0.000 A 
ATOM      4  C   UNL     1       1.081  10.271  19.949  0.00  0.00    +0.000 A 
ATOM      5  C   UNL     1       1.489   9.657  18.760  0.00  0.00    +0.000 A 
ATOM      6  C   UNL     1       1.866   8.306  18.736  0.00  0.00    +0.000 A 
ENDROOT
BRANCH   4   7
ATOM      7  N   UNL     1       0.713  11.637  19.894  0.00  0.00    +0.000 N 
ATOM      8  C   UNL     1      -0.464  12.195  20.348  0.00  0.00    +0.000 C 
ATOM      9  O   UNL     1      -1.338  11.596  20.972  0.00  0.00    +0.000 OA
ATOM     10  N   UNL     1      -0.588  13.546  20.087  0.00  0.00    +0.000 N 
ATOM     11  C   UNL     1      -1.723  14.297  20.634  0.00  0.00    +0.000 C 
ATOM     12  C   UNL     1      -1.570  15.656  20.025  0.00  0.00    +0.000 A 
ATOM     13  C   UNL     1      -2.289  16.811  20.249  0.00  0.00    +0.000 A 
ATOM     14  C   UNL     1      -1.915  17.925  19.505  0.00  0.00    +0.000 A 
ATOM     15  N   UNL     1      -0.912  17.936  18.587  0.00  0.00    +0.000 NA
ATOM     16  C   UNL     1      -0.233  16.784  18.395  0.00  0.00    +0.000 A 
ATOM     17  C   UNL     1      -0.530  15.638  19.096  0.00  0.00    +0.000 A 
ATOM     18  C   UNL     1       0.094  14.290  19.026  0.00  0.00    +0.000 C 
ATOM     19  H   UNL     1       1.471  12.286  19.763  0.00  0.00    +0.000 HD
ENDBRANCH   4   7
BRANCH   1  20
ATOM     20  O   UNL     1       2.078   6.191  19.971  0.00  0.00    +0.000 OA
BRANCH  20  27
ATOM     21  O   UNL     1       6.169   5.777  17.309  0.00  0.00    +0.000 OA
ATOM     22  C   UNL     1       5.573   4.725  17.079  0.00  0.00    +0.000 C 
ATOM     23  N   UNL     1       4.528   4.285  17.889  0.00  0.00    +0.000 N 
ATOM     24  C   UNL     1       3.774   3.050  17.692  0.00  0.00    +0.000 C 
ATOM     25  C   UNL     1       2.317   3.382  17.406  0.00  0.00    +0.000 C 
ATOM     26  C   UNL     1       1.726   4.250  18.512  0.00  0.00    +0.000 C 
ATOM     27  C   UNL     1       2.554   5.523  18.785  0.00  0.00    +0.000 C 
ATOM     28  C   UNL     1       4.039   5.131  18.989  0.00  0.00    +0.000 C 
BRANCH  22  29
ATOM     29  C   UNL     1       5.946   3.838  15.887  0.00  0.00    +0.000 C 
BRANCH  29  30
ATOM     30  C   UNL     1       5.862   4.523  14.547  0.00  0.00    +0.000 C 
ATOM     31  C   UNL     1       7.122   4.852  13.785  0.00  0.00    +0.000 C 
ATOM     32  C   UNL     1       6.202   3.776  13.281  0.00  0.00    +0.000 C 
ENDBRANCH  29  30
ENDBRANCH  22  29
ENDBRANCH  20  27
ENDBRANCH   1  20
TORSDOF 5
ENDMDL
MODEL 6
REMARK VINA RESULT:      -8.0      2.158      2.367
REMARK  Name = 
REMARK  5 active torsions:
REMARK  status: ('A' for Active; 'I' for Inactive)
REMARK    1  A    between atoms: C_2  and  C_3
REMARK    2  A    between atoms: C_3  and  C_4
REMARK    3  A    between atoms: C_11  and  O_12
REMARK    4  A    between atoms: O_12  and  C_13
REMARK    5  A    between atoms: C_16  and  N_17
REMARK                            x       y       z     vdW  Elec       q    Type
REMARK                         _______ _______ _______ _____ _____    ______ ____
ROOT
ATOM      1  C   UNL     1       2.050   7.648  19.836  0.00  0.00    +0.000 A 
ATOM      2  C   UNL     1       1.915   8.518  18.750  0.00  0.00    +0.000 A 
ATOM      3  C   UNL     1       1.043   9.619  18.809  0.00  0.00    +0.000 A 
ATOM      4  C   UNL     1       0.280   9.857  19.951  0.00  0.00    +0.000 A 
ATOM      5  C   UNL     1       0.407   8.977  21.032  0.00  0.00    +0.000 A 
ATOM      6  C   UNL     1       1.267   7.871  20.966  0.00  0.00    +0.000 A 
ENDROOT
BRANCH   4   7
ATOM      7  N   UNL     1      -0.605  10.953  20.093  0.00  0.00    +0.000 N 
ATOM      8  C   UNL     1      -0.508  11.981  21.008  0.00  0.00    +0.000 C 
ATOM      9  O   UNL     1       0.434  12.156  21.779  0.00  0.00    +0.000 OA
ATOM     10  N   UNL     1      -1.563  12.872  20.973  0.00  0.00    +0.000 N 
ATOM     11  C   UNL     1      -1.522  14.088  21.793  0.00  0.00    +0.000 C 
ATOM     12  C   UNL     1      -2.873  14.698  21.581  0.00  0.00    +0.000 A 
ATOM     13  C   UNL     1      -3.377  15.904  22.021  0.00  0.00    +0.000 A 
ATOM     14  C   UNL     1      -4.693  16.186  21.673  0.00  0.00    +0.000 A 
ATOM     15  N   UNL     1      -5.493  15.358  20.950  0.00  0.00    +0.000 NA
ATOM     16  C   UNL     1      -4.963  14.185  20.539  0.00  0.00    +0.000 A 
ATOM     17  C   UNL     1      -3.666  13.831  20.830  0.00  0.00    +0.000 A 
ATOM     18  C   UNL     1      -2.912  12.600  20.472  0.00  0.00    +0.000 C 
ATOM     19  H   UNL     1      -1.193  11.143  19.298  0.00  0.00    +0.000 HD
ENDBRANCH   4   7
BRANCH   1  20
ATOM     20  O   UNL     1       2.968   6.641  19.687  0.00  0.00    +0.000 OA
BRANCH  20  27
ATOM     21  O   UNL     1       5.714   6.484  15.633  0.00  0.00    +0.000 OA
ATOM     22  C   UNL     1       5.208   5.363  15.678  0.00  0.00    +0.000 C 
ATOM     23  N   UNL     1       4.625   4.870  16.843  0.00  0.00    +0.000 N 
ATOM     24  C   UNL     1       4.010   3.552  16.983  0.00  0.00    +0.000 C 
ATOM     25  C   UNL     1       2.528   3.711  17.290  0.00  0.00    +0.000 C 
ATOM     26  C   UNL     1       2.315   4.582  18.523  0.00  0.00    +0.000 C 
ATOM     27  C   UNL     1       3.021   5.950  18.422  0.00  0.00    +0.000 C 
ATOM     28  C   UNL     1       4.504   5.730  18.030  0.00  0.00    +0.000 C 
BRANCH  22  29
ATOM     29  C   UNL     1       5.192   4.444  14.453  0.00  0.00    +0.000 C 
BRANCH  29  30
ATOM     30  C   UNL     1       6.556   4.048  13.949  0.00  0.00    +0.000 C 
ATOM     31  C   UNL     1       6.746   3.666  12.502  0.00  0.00    +0.000 C 
ATOM     32  C   UNL     1       7.324   4.954  13.017  0.00  0.00    +0.000 C 
ENDBRANCH  29  30
ENDBRANCH  22  29
ENDBRANCH  20  27
ENDBRANCH   1  20
TORSDOF 5
ENDMDL
MODEL 7
REMARK VINA RESULT:      -8.0      3.856     11.908
REMARK  Name = 
REMARK  5 active torsions:
REMARK  status: ('A' for Active; 'I' for Inactive)
REMARK    1  A    between atoms: C_2  and  C_3
REMARK    2  A    between atoms: C_3  and  C_4
REMARK    3  A    between atoms: C_11  and  O_12
REMARK    4  A    between atoms: O_12  and  C_13
REMARK    5  A    between atoms: C_16  and  N_17
REMARK                            x       y       z     vdW  Elec       q    Type
REMARK                         _______ _______ _______ _____ _____    ______ ____
ROOT
ATOM      1  C   UNL     1      -0.286  10.892  22.346  0.00  0.00    +0.000 A 
ATOM      2  C   UNL     1       0.098   9.598  22.710  0.00  0.00    +0.000 A 
ATOM      3  C   UNL     1       0.776   8.763  21.803  0.00  0.00    +0.000 A 
ATOM      4  C   UNL     1       1.064   9.205  20.513  0.00  0.00    +0.000 A 
ATOM      5  C   UNL     1       0.666  10.497  20.148  0.00  0.00    +0.000 A 
ATOM      6  C   UNL     1      -0.023  11.323  21.048  0.00  0.00    +0.000 A 
ENDROOT
BRANCH   4   7
ATOM      7  N   UNL     1       1.758   8.432  19.551  0.00  0.00    +0.000 N 
ATOM      8  C   UNL     1       2.115   7.104  19.660  0.00  0.00    +0.000 C 
ATOM      9  O   UNL     1       1.787   6.355  20.579  0.00  0.00    +0.000 OA
ATOM     10  N   UNL     1       2.861   6.629  18.599  0.00  0.00    +0.000 N 
ATOM     11  C   UNL     1       3.190   5.202  18.515  0.00  0.00    +0.000 C 
ATOM     12  C   UNL     1       4.100   5.122  17.328  0.00  0.00    +0.000 A 
ATOM     13  C   UNL     1       4.648   4.020  16.707  0.00  0.00    +0.000 A 
ATOM     14  C   UNL     1       5.482   4.273  15.624  0.00  0.00    +0.000 A 
ATOM     15  N   UNL     1       5.785   5.514  15.158  0.00  0.00    +0.000 NA
ATOM     16  C   UNL     1       5.228   6.569  15.794  0.00  0.00    +0.000 A 
ATOM     17  C   UNL     1       4.385   6.408  16.869  0.00  0.00    +0.000 A 
ATOM     18  C   UNL     1       3.684   7.431  17.691  0.00  0.00    +0.000 C 
ATOM     19  H   UNL     1       1.751   8.797  18.613  0.00  0.00    +0.000 HD
ENDBRANCH   4   7
BRANCH   1  20
ATOM     20  O   UNL     1      -0.892  11.635  23.326  0.00  0.00    +0.000 OA
BRANCH  20  27
ATOM     21  O   UNL     1      -5.451  12.044  21.579  0.00  0.00    +0.000 OA
ATOM     22  C   UNL     1      -5.273  13.112  22.165  0.00  0.00    +0.000 C 
ATOM     23  N   UNL     1      -4.240  13.279  23.084  0.00  0.00    +0.000 N 
ATOM     24  C   UNL     1      -3.965  14.507  23.825  0.00  0.00    +0.000 C 
ATOM     25  C   UNL     1      -2.595  15.043  23.434  0.00  0.00    +0.000 C 
ATOM     26  C   UNL     1      -1.514  13.987  23.641  0.00  0.00    +0.000 C 
ATOM     27  C   UNL     1      -1.827  12.657  22.925  0.00  0.00    +0.000 C 
ATOM     28  C   UNL     1      -3.261  12.202  23.299  0.00  0.00    +0.000 C 
BRANCH  22  29
ATOM     29  C   UNL     1      -6.181  14.320  21.916  0.00  0.00    +0.000 C 
BRANCH  29  30
ATOM     30  C   UNL     1      -7.531  14.238  22.581  0.00  0.00    +0.000 C 
ATOM     31  C   UNL     1      -7.829  13.119  23.549  0.00  0.00    +0.000 C 
ATOM     32  C   UNL     1      -7.679  14.526  24.055  0.00  0.00    +0.000 C 
ENDBRANCH  29  30
ENDBRANCH  22  29
ENDBRANCH  20  27
ENDBRANCH   1  20
TORSDOF 5
ENDMDL
MODEL 8
REMARK VINA RESULT:      -8.0      3.378     11.664
REMARK  Name = 
REMARK  5 active torsions:
REMARK  status: ('A' for Active; 'I' for Inactive)
REMARK    1  A    between atoms: C_2  and  C_3
REMARK    2  A    between atoms: C_3  and  C_4
REMARK    3  A    between atoms: C_11  and  O_12
REMARK    4  A    between atoms: O_12  and  C_13
REMARK    5  A    between atoms: C_16  and  N_17
REMARK                            x       y       z     vdW  Elec       q    Type
REMARK                         _______ _______ _______ _____ _____    ______ ____
ROOT
ATOM      1  C   UNL     1      -0.288  10.383  22.485  0.00  0.00    +0.000 A 
ATOM      2  C   UNL     1      -0.539  10.620  21.131  0.00  0.00    +0.000 A 
ATOM      3  C   UNL     1       0.141   9.899  20.132  0.00  0.00    +0.000 A 
ATOM      4  C   UNL     1       1.094   8.942  20.475  0.00  0.00    +0.000 A 
ATOM      5  C   UNL     1       1.352   8.716  21.832  0.00  0.00    +0.000 A 
ATOM      6  C   UNL     1       0.685   9.446  22.827  0.00  0.00    +0.000 A 
ENDROOT
BRANCH   4   7
ATOM      7  N   UNL     1       1.806   8.164  19.530  0.00  0.00    +0.000 N 
ATOM      8  C   UNL     1       2.172   6.840  19.657  0.00  0.00    +0.000 C 
ATOM      9  O   UNL     1       1.839   6.099  20.580  0.00  0.00    +0.000 OA
ATOM     10  N   UNL     1       2.935   6.360  18.610  0.00  0.00    +0.000 N 
ATOM     11  C   UNL     1       3.277   4.936  18.546  0.00  0.00    +0.000 C 
ATOM     12  C   UNL     1       4.201   4.851  17.370  0.00  0.00    +0.000 A 
ATOM     13  C   UNL     1       4.766   3.746  16.768  0.00  0.00    +0.000 A 
ATOM     14  C   UNL     1       5.611   3.995  15.692  0.00  0.00    +0.000 A 
ATOM     15  N   UNL     1       5.909   5.233  15.217  0.00  0.00    +0.000 NA
ATOM     16  C   UNL     1       5.337   6.289  15.835  0.00  0.00    +0.000 A 
ATOM     17  C   UNL     1       4.481   6.133  16.901  0.00  0.00    +0.000 A 
ATOM     18  C   UNL     1       3.762   7.159  17.704  0.00  0.00    +0.000 C 
ATOM     19  H   UNL     1       1.807   8.519  18.588  0.00  0.00    +0.000 HD
ENDBRANCH   4   7
BRANCH   1  20
ATOM     20  O   UNL     1      -1.046  11.105  23.370  0.00  0.00    +0.000 OA
BRANCH  20  27
ATOM     21  O   UNL     1      -5.640  12.203  22.072  0.00  0.00    +0.000 OA
ATOM     22  C   UNL     1      -5.168  13.292  22.394  0.00  0.00    +0.000 C 
ATOM     23  N   UNL     1      -3.996  13.389  23.141  0.00  0.00    +0.000 N 
ATOM     24  C   UNL     1      -3.373  14.638  23.570  0.00  0.00    +0.000 C 
ATOM     25  C   UNL     1      -1.999  14.769  22.930  0.00  0.00    +0.000 C 
ATOM     26  C   UNL     1      -1.131  13.553  23.241  0.00  0.00    +0.000 C 
ATOM     27  C   UNL     1      -1.808  12.219  22.863  0.00  0.00    +0.000 C 
ATOM     28  C   UNL     1      -3.231  12.177  23.475  0.00  0.00    +0.000 C 
BRANCH  22  29
ATOM     29  C   UNL     1      -5.842  14.607  21.991  0.00  0.00    +0.000 C 
BRANCH  29  30
ATOM     30  C   UNL     1      -5.499  15.087  20.604  0.00  0.00    +0.000 C 
ATOM     31  C   UNL     1      -6.394  16.080  19.904  0.00  0.00    +0.000 C 
ATOM     32  C   UNL     1      -5.031  16.504  20.376  0.00  0.00    +0.000 C 
ENDBRANCH  29  30
ENDBRANCH  22  29
ENDBRANCH  20  27
ENDBRANCH   1  20
TORSDOF 5
ENDMDL
MODEL 9
REMARK VINA RESULT:      -7.9      2.467      3.056
REMARK  Name = 
REMARK  5 active torsions:
REMARK  status: ('A' for Active; 'I' for Inactive)
REMARK    1  A    between atoms: C_2  and  C_3
REMARK    2  A    between atoms: C_3  and  C_4
REMARK    3  A    between atoms: C_11  and  O_12
REMARK    4  A    between atoms: O_12  and  C_13
REMARK    5  A    between atoms: C_16  and  N_17
REMARK                            x       y       z     vdW  Elec       q    Type
REMARK                         _______ _______ _______ _____ _____    ______ ____
ROOT
ATOM      1  C   UNL     1       2.165   8.100  19.207  0.00  0.00    +0.000 A 
ATOM      2  C   UNL     1       1.523   8.314  20.431  0.00  0.00    +0.000 A 
ATOM      3  C   UNL     1       0.441   9.206  20.534  0.00  0.00    +0.000 A 
ATOM      4  C   UNL     1      -0.006   9.909  19.416  0.00  0.00    +0.000 A 
ATOM      5  C   UNL     1       0.647   9.702  18.195  0.00  0.00    +0.000 A 
ATOM      6  C   UNL     1       1.736   8.824  18.097  0.00  0.00    +0.000 A 
ENDROOT
BRANCH   4   7
ATOM      7  N   UNL     1      -1.099  10.809  19.436  0.00  0.00    +0.000 N 
ATOM      8  C   UNL     1      -1.371  11.757  20.399  0.00  0.00    +0.000 C 
ATOM      9  O   UNL     1      -0.638  12.037  21.346  0.00  0.00    +0.000 OA
ATOM     10  N   UNL     1      -2.556  12.441  20.202  0.00  0.00    +0.000 N 
ATOM     11  C   UNL     1      -2.902  13.571  21.071  0.00  0.00    +0.000 C 
ATOM     12  C   UNL     1      -4.286  13.939  20.630  0.00  0.00    +0.000 A 
ATOM     13  C   UNL     1      -5.086  14.992  21.020  0.00  0.00    +0.000 A 
ATOM     14  C   UNL     1      -6.347  15.056  20.438  0.00  0.00    +0.000 A 
ATOM     15  N   UNL     1      -6.825  14.159  19.535  0.00  0.00    +0.000 NA
ATOM     16  C   UNL     1      -6.010  13.141  19.179  0.00  0.00    +0.000 A 
ATOM     17  C   UNL     1      -4.744  13.007  19.700  0.00  0.00    +0.000 A 
ATOM     18  C   UNL     1      -3.712  11.969  19.437  0.00  0.00    +0.000 C 
ATOM     19  H   UNL     1      -1.558  10.954  18.552  0.00  0.00    +0.000 HD
ENDBRANCH   4   7
BRANCH   1  20
ATOM     20  O   UNL     1       3.172   7.170  19.214  0.00  0.00    +0.000 OA
BRANCH  20  27
ATOM     21  O   UNL     1       6.347   5.834  15.731  0.00  0.00    +0.000 OA
ATOM     22  C   UNL     1       5.644   4.834  15.873  0.00  0.00    +0.000 C 
ATOM     23  N   UNL     1       4.833   4.664  16.993  0.00  0.00    +0.000 N 
ATOM     24  C   UNL     1       3.976   3.508  17.242  0.00  0.00    +0.000 C 
ATOM     25  C   UNL     1       2.520   3.952  17.278  0.00  0.00    +0.000 C 
ATOM     26  C   UNL     1       2.311   5.060  18.306  0.00  0.00    +0.000 C 
ATOM     27  C   UNL     1       3.262   6.257  18.101  0.00  0.00    +0.000 C 
ATOM     28  C   UNL     1       4.718   5.738  17.992  0.00  0.00    +0.000 C 
BRANCH  22  29
ATOM     29  C   UNL     1       5.620   3.718  14.825  0.00  0.00    +0.000 C 
BRANCH  29  30
ATOM     30  C   UNL     1       5.554   4.201  13.398  0.00  0.00    +0.000 C 
ATOM     31  C   UNL     1       6.666   3.865  12.435  0.00  0.00    +0.000 C 
ATOM     32  C   UNL     1       5.315   3.229  12.269  0.00  0.00    +0.000 C 
ENDBRANCH  29  30
ENDBRANCH  22  29
ENDBRANCH  20  27
ENDBRANCH   1  20
TORSDOF 5
ENDMDL
