MODEL 1
REMARK VINA RESULT:      -8.0      0.000      0.000
REMARK  Name = 
REMARK  10 active torsions:
REMARK  status: ('A' for Active; 'I' for Inactive)
REMARK    1  A    between atoms: C_1  and  O_2
REMARK    2  A    between atoms: O_2  and  C_3
REMARK    3  A    between atoms: C_6  and  C_7
REMARK    4  A    between atoms: C_10  and  C_11
REMARK    5  A    between atoms: C_11  and  S_12
REMARK    6  A    between atoms: S_12  and  C_13
REMARK    7  A    between atoms: C_16  and  C_17
REMARK    8  A    between atoms: N_23  and  C_24
REMARK    9  A    between atoms: C_33  and  O_34
REMARK   10  A    between atoms: O_34  and  C_35
REMARK                            x       y       z     vdW  Elec       q    Type
REMARK                         _______ _______ _______ _____ _____    ______ ____
ROOT
ATOM      1  C   UNL     1       0.145  11.761  20.611  0.00  0.00    +0.000 A 
ATOM      2  N   UNL     1       1.074  12.438  21.241  0.00  0.00    +0.000 NA
ATOM      3  N   UNL     1       0.832  13.770  21.033  0.00  0.00    +0.000 NA
ATOM      4  C   UNL     1      -0.259  13.901  20.293  0.00  0.00    +0.000 A 
ATOM      5  N   UNL     1      -0.710  12.621  19.940  0.00  0.00    +0.000 N 
ENDROOT
BRANCH   5   6
ATOM      6  C   UNL     1      -1.815  12.298  19.099  0.00  0.00    +0.000 A 
ATOM      7  C   UNL     1      -3.119  12.296  19.622  0.00  0.00    +0.000 A 
ATOM      8  C   UNL     1      -4.178  11.800  18.860  0.00  0.00    +0.000 A 
ATOM      9  C   UNL     1      -3.942  11.356  17.566  0.00  0.00    +0.000 A 
ATOM     10  F   UNL     1      -4.950  10.845  16.849  0.00  0.00    +0.000 F 
ATOM     11  C   UNL     1      -2.665  11.410  17.013  0.00  0.00    +0.000 A 
ATOM     12  C   UNL     1      -1.601  11.874  17.778  0.00  0.00    +0.000 A 
ENDBRANCH   5   6
BRANCH   4  13
ATOM     13  C   UNL     1      -0.887  15.198  19.984  0.00  0.00    +0.000 A 
ATOM     14  C   UNL     1      -1.921  15.675  20.792  0.00  0.00    +0.000 A 
ATOM     15  C   UNL     1      -2.457  16.926  20.534  0.00  0.00    +0.000 A 
ATOM     16  N   UNL     1      -2.035  17.732  19.538  0.00  0.00    +0.000 NA
ATOM     17  C   UNL     1      -1.067  17.246  18.739  0.00  0.00    +0.000 A 
ATOM     18  C   UNL     1      -0.504  15.988  18.894  0.00  0.00    +0.000 A 
ENDBRANCH   4  13
BRANCH   1  19
ATOM     19  S   UNL     1       0.122  10.026  20.503  0.00  0.00    +0.000 S 
BRANCH  19  20
ATOM     20  C   UNL     1       0.992   9.756  18.930  0.00  0.00    +0.000 C 
BRANCH  20  24
ATOM     21  C   UNL     1       3.040   6.862  18.559  0.00  0.00    +0.000 A 
ATOM     22  N   UNL     1       2.605   6.653  19.812  0.00  0.00    +0.000 NA
ATOM     23  O   UNL     1       1.769   7.744  20.059  0.00  0.00    +0.000 OA
ATOM     24  C   UNL     1       1.782   8.504  18.927  0.00  0.00    +0.000 A 
ATOM     25  N   UNL     1       2.534   8.000  17.979  0.00  0.00    +0.000 NA
BRANCH  21  29
ATOM     26  C   UNL     1       5.648   4.404  16.233  0.00  0.00    +0.000 A 
ATOM     27  C   UNL     1       4.397   3.915  16.647  0.00  0.00    +0.000 A 
ATOM     28  C   UNL     1       3.532   4.704  17.412  0.00  0.00    +0.000 A 
ATOM     29  C   UNL     1       3.926   5.977  17.819  0.00  0.00    +0.000 A 
ATOM     30  C   UNL     1       5.215   6.419  17.487  0.00  0.00    +0.000 A 
ATOM     31  C   UNL     1       6.081   5.653  16.696  0.00  0.00    +0.000 A 
BRANCH  26  33
ATOM     32  C   UNL     1       6.324   3.926  14.013  0.00  0.00    +0.000 C 
ATOM     33  O   UNL     1       6.459   3.670  15.410  0.00  0.00    +0.000 OA
ENDBRANCH  26  33
BRANCH  31  34
ATOM     34  O   UNL     1       7.260   6.308  16.468  0.00  0.00    +0.000 OA
ATOM     35  C   UNL     1       7.679   7.319  17.370  0.00  0.00    +0.000 C 
ENDBRANCH  31  34
ENDBRANCH  21  29
ENDBRANCH  20  24
ENDBRANCH  19  20
ENDBRANCH   1  19
TORSDOF 8
ENDMDL
MODEL 2
REMARK VINA RESULT:      -7.9      2.830      4.155
REMARK  Name = 
REMARK  10 active torsions:
REMARK  status: ('A' for Active; 'I' for Inactive)
REMARK    1  A    between atoms: C_1  and  O_2
REMARK    2  A    between atoms: O_2  and  C_3
REMARK    3  A    between atoms: C_6  and  C_7
REMARK    4  A    between atoms: C_10  and  C_11
REMARK    5  A    between atoms: C_11  and  S_12
REMARK    6  A    between atoms: S_12  and  C_13
REMARK    7  A    between atoms: C_16  and  C_17
REMARK    8  A    between atoms: N_23  and  C_24
REMARK    9  A    between atoms: C_33  and  O_34
REMARK   10  A    between atoms: O_34  and  C_35
REMARK                            x       y       z     vdW  Elec       q    Type
REMARK                         _______ _______ _______ _____ _____    ______ ____
ROOT
ATOM      1  C   UNL     1      -0.753  12.628  21.934  0.00  0.00    +0.000 A 
ATOM      2  N   UNL     1      -0.112  13.383  22.793  0.00  0.00    +0.000 NA
ATOM      3  N   UNL     1       0.902  14.010  22.118  0.00  0.00    +0.000 NA
ATOM      4  C   UNL     1       0.862  13.652  20.844  0.00  0.00    +0.000 A 
ATOM      5  N   UNL     1      -0.160  12.705  20.683  0.00  0.00    +0.000 N 
ENDROOT
BRANCH   5   6
ATOM      6  C   UNL     1      -0.510  12.008  19.489  0.00  0.00    +0.000 A 
ATOM      7  C   UNL     1      -1.586  12.456  18.705  0.00  0.00    +0.000 A 
ATOM      8  C   UNL     1      -2.052  11.676  17.645  0.00  0.00    +0.000 A 
ATOM      9  C   UNL     1      -1.413  10.481  17.342  0.00  0.00    +0.000 A 
ATOM     10  F   UNL     1      -1.883   9.714  16.350  0.00  0.00    +0.000 F 
ATOM     11  C   UNL     1      -0.307  10.055  18.074  0.00  0.00    +0.000 A 
ATOM     12  C   UNL     1       0.142  10.813  19.150  0.00  0.00    +0.000 A 
ENDBRANCH   5   6
BRANCH   4  13
ATOM     13  C   UNL     1       1.725  14.236  19.802  0.00  0.00    +0.000 A 
ATOM     14  C   UNL     1       2.777  13.483  19.276  0.00  0.00    +0.000 A 
ATOM     15  C   UNL     1       3.538  14.016  18.248  0.00  0.00    +0.000 A 
ATOM     16  N   UNL     1       3.324  15.233  17.707  0.00  0.00    +0.000 NA
ATOM     17  C   UNL     1       2.335  15.967  18.251  0.00  0.00    +0.000 A 
ATOM     18  C   UNL     1       1.552  15.535  19.310  0.00  0.00    +0.000 A 
ENDBRANCH   4  13
BRANCH   1  19
ATOM     19  S   UNL     1      -2.050  11.556  22.372  0.00  0.00    +0.000 S 
BRANCH  19  20
ATOM     20  C   UNL     1      -1.181  10.364  23.434  0.00  0.00    +0.000 C 
BRANCH  20  24
ATOM     21  C   UNL     1       1.160   8.470  21.525  0.00  0.00    +0.000 A 
ATOM     22  N   UNL     1       2.013   9.318  22.123  0.00  0.00    +0.000 NA
ATOM     23  O   UNL     1       1.186  10.113  22.919  0.00  0.00    +0.000 OA
ATOM     24  C   UNL     1      -0.087   9.664  22.723  0.00  0.00    +0.000 A 
ATOM     25  N   UNL     1      -0.151   8.654  21.889  0.00  0.00    +0.000 NA
BRANCH  21  29
ATOM     26  C   UNL     1       2.393   5.271  18.976  0.00  0.00    +0.000 A 
ATOM     27  C   UNL     1       2.599   6.605  18.587  0.00  0.00    +0.000 A 
ATOM     28  C   UNL     1       2.199   7.665  19.406  0.00  0.00    +0.000 A 
ATOM     29  C   UNL     1       1.538   7.408  20.606  0.00  0.00    +0.000 A 
ATOM     30  C   UNL     1       1.247   6.078  20.940  0.00  0.00    +0.000 A 
ATOM     31  C   UNL     1       1.669   5.004  20.145  0.00  0.00    +0.000 A 
BRANCH  26  33
ATOM     32  C   UNL     1       3.868   4.564  17.261  0.00  0.00    +0.000 C 
ATOM     33  O   UNL     1       2.863   4.231  18.219  0.00  0.00    +0.000 OA
ENDBRANCH  26  33
BRANCH  31  34
ATOM     34  O   UNL     1       1.309   3.804  20.695  0.00  0.00    +0.000 OA
ATOM     35  C   UNL     1       2.194   3.159  21.594  0.00  0.00    +0.000 C 
ENDBRANCH  31  34
ENDBRANCH  21  29
ENDBRANCH  20  24
ENDBRANCH  19  20
ENDBRANCH   1  19
TORSDOF 8
ENDMDL
MODEL 3
REMARK VINA RESULT:      -7.8      4.466      7.975
REMARK  Name = 
REMARK  10 active torsions:
REMARK  status: ('A' for Active; 'I' for Inactive)
REMARK    1  A    between atoms: C_1  and  O_2
REMARK    2  A    between atoms: O_2  and  C_3
REMARK    3  A    between atoms: C_6  and  C_7
REMARK    4  A    between atoms: C_10  and  C_11
REMARK    5  A    between atoms: C_11  and  S_12
REMARK    6  A    between atoms: S_12  and  C_13
REMARK    7  A    between atoms: C_16  and  C_17
REMARK    8  A    between atoms: N_23  and  C_24
REMARK    9  A    between atoms: C_33  and  O_34
REMARK   10  A    between atoms: O_34  and  C_35
REMARK                            x       y       z     vdW  Elec       q    Type
REMARK                         _______ _______ _______ _____ _____    ______ ____
ROOT
ATOM      1  C   UNL     1       4.076   5.938  17.534  0.00  0.00    +0.000 A 
ATOM      2  N   UNL     1       4.344   7.005  16.820  0.00  0.00    +0.000 NA
ATOM      3  N   UNL     1       3.475   7.992  17.205  0.00  0.00    +0.000 NA
ATOM      4  C   UNL     1       2.694   7.529  18.169  0.00  0.00    +0.000 A 
ATOM      5  N   UNL     1       3.003   6.177  18.379  0.00  0.00    +0.000 N 
ENDROOT
BRANCH   5   6
ATOM      6  C   UNL     1       2.363   5.275  19.279  0.00  0.00    +0.000 A 
ATOM      7  C   UNL     1       2.795   5.191  20.613  0.00  0.00    +0.000 A 
ATOM      8  C   UNL     1       2.305   4.182  21.444  0.00  0.00    +0.000 A 
ATOM      9  C   UNL     1       1.352   3.297  20.959  0.00  0.00    +0.000 A 
ATOM     10  F   UNL     1       0.910   2.307  21.744  0.00  0.00    +0.000 F 
ATOM     11  C   UNL     1       0.870   3.408  19.657  0.00  0.00    +0.000 A 
ATOM     12  C   UNL     1       1.378   4.391  18.815  0.00  0.00    +0.000 A 
ENDBRANCH   5   6
BRANCH   4  13
ATOM     13  C   UNL     1       1.728   8.360  18.910  0.00  0.00    +0.000 A 
ATOM     14  C   UNL     1       1.559   8.164  20.282  0.00  0.00    +0.000 A 
ATOM     15  C   UNL     1       0.700   8.997  20.981  0.00  0.00    +0.000 A 
ATOM     16  N   UNL     1       0.008  10.007  20.416  0.00  0.00    +0.000 NA
ATOM     17  C   UNL     1       0.146  10.160  19.085  0.00  0.00    +0.000 A 
ATOM     18  C   UNL     1       0.947   9.347  18.298  0.00  0.00    +0.000 A 
ENDBRANCH   4  13
BRANCH   1  19
ATOM     19  S   UNL     1       4.857   4.402  17.303  0.00  0.00    +0.000 S 
BRANCH  19  20
ATOM     20  C   UNL     1       6.435   4.674  18.164  0.00  0.00    +0.000 C 
BRANCH  20  24
ATOM     21  C   UNL     1       7.919   7.888  17.749  0.00  0.00    +0.000 A 
ATOM     22  N   UNL     1       7.981   7.462  16.476  0.00  0.00    +0.000 NA
ATOM     23  O   UNL     1       7.404   6.191  16.525  0.00  0.00    +0.000 OA
ATOM     24  C   UNL     1       7.049   5.977  17.824  0.00  0.00    +0.000 A 
ATOM     25  N   UNL     1       7.333   6.990  18.607  0.00  0.00    +0.000 NA
BRANCH  21  29
ATOM     26  C   UNL     1       9.352  11.728  18.957  0.00  0.00    +0.000 A 
ATOM     27  C   UNL     1       9.649  10.588  19.724  0.00  0.00    +0.000 A 
ATOM     28  C   UNL     1       9.186   9.324  19.346  0.00  0.00    +0.000 A 
ATOM     29  C   UNL     1       8.373   9.186  18.222  0.00  0.00    +0.000 A 
ATOM     30  C   UNL     1       7.999  10.340  17.520  0.00  0.00    +0.000 A 
ATOM     31  C   UNL     1       8.479  11.610  17.867  0.00  0.00    +0.000 A 
BRANCH  26  33
ATOM     32  C   UNL     1      10.885  12.954  20.284  0.00  0.00    +0.000 C 
ATOM     33  O   UNL     1       9.876  12.952  19.273  0.00  0.00    +0.000 OA
ENDBRANCH  26  33
BRANCH  31  34
ATOM     34  O   UNL     1       8.014  12.571  17.013  0.00  0.00    +0.000 OA
ATOM     35  C   UNL     1       7.099  13.542  17.492  0.00  0.00    +0.000 C 
ENDBRANCH  31  34
ENDBRANCH  21  29
ENDBRANCH  20  24
ENDBRANCH  19  20
ENDBRANCH   1  19
TORSDOF 8
ENDMDL
MODEL 4
REMARK VINA RESULT:      -7.8      2.682      3.557
REMARK  Name = 
REMARK  10 active torsions:
REMARK  status: ('A' for Active; 'I' for Inactive)
REMARK    1  A    between atoms: C_1  and  O_2
REMARK    2  A    between atoms: O_2  and  C_3
REMARK    3  A    between atoms: C_6  and  C_7
REMARK    4  A    between atoms: C_10  and  C_11
REMARK    5  A    between atoms: C_11  and  S_12
REMARK    6  A    between atoms: S_12  and  C_13
REMARK    7  A    between atoms: C_16  and  C_17
REMARK    8  A    between atoms: N_23  and  C_24
REMARK    9  A    between atoms: C_33  and  O_34
REMARK   10  A    between atoms: O_34  and  C_35
REMARK                            x       y       z     vdW  Elec       q    Type
REMARK                         _______ _______ _______ _____ _____    ______ ____
ROOT
ATOM      1  C   UNL     1       0.445   9.743  21.492  0.00  0.00    +0.000 A 
ATOM      2  N   UNL     1      -0.050   9.136  22.544  0.00  0.00    +0.000 NA
ATOM      3  N   UNL     1      -0.822  10.043  23.221  0.00  0.00    +0.000 NA
ATOM      4  C   UNL     1      -0.812  11.195  22.567  0.00  0.00    +0.000 A 
ATOM      5  N   UNL     1       0.047  11.071  21.466  0.00  0.00    +0.000 N 
ENDROOT
BRANCH   5   6
ATOM      6  C   UNL     1       0.402  12.086  20.530  0.00  0.00    +0.000 A 
ATOM      7  C   UNL     1       1.557  12.858  20.735  0.00  0.00    +0.000 A 
ATOM      8  C   UNL     1       1.806  13.972  19.931  0.00  0.00    +0.000 A 
ATOM      9  C   UNL     1       0.931  14.280  18.898  0.00  0.00    +0.000 A 
ATOM     10  F   UNL     1       1.150  15.370  18.151  0.00  0.00    +0.000 F 
ATOM     11  C   UNL     1      -0.185  13.487  18.645  0.00  0.00    +0.000 A 
ATOM     12  C   UNL     1      -0.455  12.395  19.462  0.00  0.00    +0.000 A 
ENDBRANCH   5   6
BRANCH   4  13
ATOM     13  C   UNL     1      -1.640  12.356  22.941  0.00  0.00    +0.000 A 
ATOM     14  C   UNL     1      -1.024  13.533  23.370  0.00  0.00    +0.000 A 
ATOM     15  C   UNL     1      -1.809  14.639  23.652  0.00  0.00    +0.000 A 
ATOM     16  N   UNL     1      -3.152  14.658  23.532  0.00  0.00    +0.000 NA
ATOM     17  C   UNL     1      -3.739  13.506  23.158  0.00  0.00    +0.000 A 
ATOM     18  C   UNL     1      -3.039  12.337  22.900  0.00  0.00    +0.000 A 
ENDBRANCH   4  13
BRANCH   1  19
ATOM     19  S   UNL     1       1.580   9.006  20.400  0.00  0.00    +0.000 S 
BRANCH  19  20
ATOM     20  C   UNL     1       1.257   7.241  20.690  0.00  0.00    +0.000 C 
BRANCH  20  24
ATOM     21  C   UNL     1       3.828   5.458  18.982  0.00  0.00    +0.000 A 
ATOM     22  N   UNL     1       3.543   4.555  19.935  0.00  0.00    +0.000 NA
ATOM     23  O   UNL     1       2.520   5.160  20.668  0.00  0.00    +0.000 OA
ATOM     24  C   UNL     1       2.287   6.369  20.082  0.00  0.00    +0.000 A 
ATOM     25  N   UNL     1       3.053   6.591  19.042  0.00  0.00    +0.000 NA
BRANCH  21  29
ATOM     26  C   UNL     1       6.674   5.129  15.812  0.00  0.00    +0.000 A 
ATOM     27  C   UNL     1       5.736   4.106  16.030  0.00  0.00    +0.000 A 
ATOM     28  C   UNL     1       4.799   4.195  17.064  0.00  0.00    +0.000 A 
ATOM     29  C   UNL     1       4.819   5.285  17.932  0.00  0.00    +0.000 A 
ATOM     30  C   UNL     1       5.822   6.252  17.770  0.00  0.00    +0.000 A 
ATOM     31  C   UNL     1       6.748   6.194  16.721  0.00  0.00    +0.000 A 
BRANCH  26  33
ATOM     32  C   UNL     1       6.943   4.788  13.483  0.00  0.00    +0.000 C 
ATOM     33  O   UNL     1       7.534   5.089  14.748  0.00  0.00    +0.000 OA
ENDBRANCH  26  33
BRANCH  31  34
ATOM     34  O   UNL     1       7.596   7.266  16.742  0.00  0.00    +0.000 OA
ATOM     35  C   UNL     1       7.484   8.219  17.786  0.00  0.00    +0.000 C 
ENDBRANCH  31  34
ENDBRANCH  21  29
ENDBRANCH  20  24
ENDBRANCH  19  20
ENDBRANCH   1  19
TORSDOF 8
ENDMDL
MODEL 5
REMARK VINA RESULT:      -7.8      4.430      7.970
REMARK  Name = 
REMARK  10 active torsions:
REMARK  status: ('A' for Active; 'I' for Inactive)
REMARK    1  A    between atoms: C_1  and  O_2
REMARK    2  A    between atoms: O_2  and  C_3
REMARK    3  A    between atoms: C_6  and  C_7
REMARK    4  A    between atoms: C_10  and  C_11
REMARK    5  A    between atoms: C_11  and  S_12
REMARK    6  A    between atoms: S_12  and  C_13
REMARK    7  A    between atoms: C_16  and  C_17
REMARK    8  A    between atoms: N_23  and  C_24
REMARK    9  A    between atoms: C_33  and  O_34
REMARK   10  A    between atoms: O_34  and  C_35
REMARK                            x       y       z     vdW  Elec       q    Type
REMARK                         _______ _______ _______ _____ _____    ______ ____
ROOT
ATOM      1  C   UNL     1       4.140   6.548  17.506  0.00  0.00    +0.000 A 
ATOM      2  N   UNL     1       4.343   7.668  16.854  0.00  0.00    +0.000 NA
ATOM      3  N   UNL     1       3.363   8.550  17.228  0.00  0.00    +0.000 NA
ATOM      4  C   UNL     1       2.579   7.971  18.124  0.00  0.00    +0.000 A 
ATOM      5  N   UNL     1       3.005   6.646  18.295  0.00  0.00    +0.000 N 
ENDROOT
BRANCH   5   6
ATOM      6  C   UNL     1       2.407   5.646  19.118  0.00  0.00    +0.000 A 
ATOM      7  C   UNL     1       2.791   5.522  20.463  0.00  0.00    +0.000 A 
ATOM      8  C   UNL     1       2.353   4.433  21.218  0.00  0.00    +0.000 A 
ATOM      9  C   UNL     1       1.496   3.502  20.645  0.00  0.00    +0.000 A 
ATOM     10  F   UNL     1       1.106   2.437  21.356  0.00  0.00    +0.000 F 
ATOM     11  C   UNL     1       1.059   3.647  19.331  0.00  0.00    +0.000 A 
ATOM     12  C   UNL     1       1.516   4.713  18.564  0.00  0.00    +0.000 A 
ENDBRANCH   5   6
BRANCH   4  13
ATOM     13  C   UNL     1       1.499   8.672  18.841  0.00  0.00    +0.000 A 
ATOM     14  C   UNL     1       1.350   8.487  20.217  0.00  0.00    +0.000 A 
ATOM     15  C   UNL     1       0.375   9.204  20.892  0.00  0.00    +0.000 A 
ATOM     16  N   UNL     1      -0.451  10.090  20.299  0.00  0.00    +0.000 NA
ATOM     17  C   UNL     1      -0.327  10.229  18.966  0.00  0.00    +0.000 A 
ATOM     18  C   UNL     1       0.588   9.521  18.202  0.00  0.00    +0.000 A 
ENDBRANCH   4  13
BRANCH   1  19
ATOM     19  S   UNL     1       5.077   5.105  17.257  0.00  0.00    +0.000 S 
BRANCH  19  20
ATOM     20  C   UNL     1       6.545   5.775  16.419  0.00  0.00    +0.000 C 
BRANCH  20  24
ATOM     21  C   UNL     1       8.185   8.387  18.206  0.00  0.00    +0.000 A 
ATOM     22  N   UNL     1       8.490   7.358  19.012  0.00  0.00    +0.000 NA
ATOM     23  O   UNL     1       7.894   6.260  18.387  0.00  0.00    +0.000 OA
ATOM     24  C   UNL     1       7.289   6.738  17.262  0.00  0.00    +0.000 A 
ATOM     25  N   UNL     1       7.449   8.029  17.103  0.00  0.00    +0.000 NA
BRANCH  21  29
ATOM     26  C   UNL     1       9.287  12.447  18.956  0.00  0.00    +0.000 A 
ATOM     27  C   UNL     1       8.806  12.066  17.692  0.00  0.00    +0.000 A 
ATOM     28  C   UNL     1       8.444  10.741  17.426  0.00  0.00    +0.000 A 
ATOM     29  C   UNL     1       8.606   9.765  18.408  0.00  0.00    +0.000 A 
ATOM     30  C   UNL     1       9.180  10.133  19.632  0.00  0.00    +0.000 A 
ATOM     31  C   UNL     1       9.520  11.461  19.924  0.00  0.00    +0.000 A 
BRANCH  26  33
ATOM     32  C   UNL     1      10.420  14.431  18.330  0.00  0.00    +0.000 C 
ATOM     33  O   UNL     1       9.558  13.756  19.247  0.00  0.00    +0.000 OA
ENDBRANCH  26  33
BRANCH  31  34
ATOM     34  O   UNL     1      10.019  11.582  21.192  0.00  0.00    +0.000 OA
ATOM     35  C   UNL     1       9.225  12.190  22.196  0.00  0.00    +0.000 C 
ENDBRANCH  31  34
ENDBRANCH  21  29
ENDBRANCH  20  24
ENDBRANCH  19  20
ENDBRANCH   1  19
TORSDOF 8
ENDMDL
MODEL 6
REMARK VINA RESULT:      -7.8      0.936      1.731
REMARK  Name = 
REMARK  10 active torsions:
REMARK  status: ('A' for Active; 'I' for Inactive)
REMARK    1  A    between atoms: C_1  and  O_2
REMARK    2  A    between atoms: O_2  and  C_3
REMARK    3  A    between atoms: C_6  and  C_7
REMARK    4  A    between atoms: C_10  and  C_11
REMARK    5  A    between atoms: C_11  and  S_12
REMARK    6  A    between atoms: S_12  and  C_13
REMARK    7  A    between atoms: C_16  and  C_17
REMARK    8  A    between atoms: N_23  and  C_24
REMARK    9  A    between atoms: C_33  and  O_34
REMARK   10  A    between atoms: O_34  and  C_35
REMARK                            x       y       z     vdW  Elec       q    Type
REMARK                         _______ _______ _______ _____ _____    ______ ____
ROOT
ATOM      1  C   UNL     1       0.417  12.312  20.783  0.00  0.00    +0.000 A 
ATOM      2  N   UNL     1       1.321  13.096  21.319  0.00  0.00    +0.000 NA
ATOM      3  N   UNL     1       1.016  14.384  20.965  0.00  0.00    +0.000 NA
ATOM      4  C   UNL     1      -0.087  14.382  20.233  0.00  0.00    +0.000 A 
ATOM      5  N   UNL     1      -0.484  13.052  20.033  0.00  0.00    +0.000 N 
ENDROOT
BRANCH   5   6
ATOM      6  C   UNL     1      -1.582  12.587  19.252  0.00  0.00    +0.000 A 
ATOM      7  C   UNL     1      -2.858  12.478  19.829  0.00  0.00    +0.000 A 
ATOM      8  C   UNL     1      -3.890  11.848  19.131  0.00  0.00    +0.000 A 
ATOM      9  C   UNL     1      -3.659  11.377  17.845  0.00  0.00    +0.000 A 
ATOM     10  F   UNL     1      -4.638  10.739  17.191  0.00  0.00    +0.000 F 
ATOM     11  C   UNL     1      -2.416  11.533  17.238  0.00  0.00    +0.000 A 
ATOM     12  C   UNL     1      -1.375  12.131  17.940  0.00  0.00    +0.000 A 
ENDBRANCH   5   6
BRANCH   4  13
ATOM     13  C   UNL     1      -0.777  15.606  19.788  0.00  0.00    +0.000 A 
ATOM     14  C   UNL     1      -1.854  16.098  20.528  0.00  0.00    +0.000 A 
ATOM     15  C   UNL     1      -2.451  17.287  20.140  0.00  0.00    +0.000 A 
ATOM     16  N   UNL     1      -2.050  18.018  19.080  0.00  0.00    +0.000 NA
ATOM     17  C   UNL     1      -1.038  17.513  18.349  0.00  0.00    +0.000 A 
ATOM     18  C   UNL     1      -0.411  16.310  18.635  0.00  0.00    +0.000 A 
ENDBRANCH   4  13
BRANCH   1  19
ATOM     19  S   UNL     1       0.472  10.576  20.873  0.00  0.00    +0.000 S 
BRANCH  19  20
ATOM     20  C   UNL     1       0.895  10.145  19.159  0.00  0.00    +0.000 C 
BRANCH  20  24
ATOM     21  C   UNL     1       2.760   7.170  18.547  0.00  0.00    +0.000 A 
ATOM     22  N   UNL     1       2.444   6.958  19.836  0.00  0.00    +0.000 NA
ATOM     23  O   UNL     1       1.688   8.082  20.179  0.00  0.00    +0.000 OA
ATOM     24  C   UNL     1       1.622   8.860  19.060  0.00  0.00    +0.000 A 
ATOM     25  N   UNL     1       2.252   8.338  18.036  0.00  0.00    +0.000 NA
BRANCH  21  29
ATOM     26  C   UNL     1       5.097   4.415  16.265  0.00  0.00    +0.000 A 
ATOM     27  C   UNL     1       5.211   5.797  16.038  0.00  0.00    +0.000 A 
ATOM     28  C   UNL     1       4.452   6.714  16.773  0.00  0.00    +0.000 A 
ATOM     29  C   UNL     1       3.527   6.259  17.712  0.00  0.00    +0.000 A 
ATOM     30  C   UNL     1       3.347   4.877  17.860  0.00  0.00    +0.000 A 
ATOM     31  C   UNL     1       4.121   3.947  17.155  0.00  0.00    +0.000 A 
BRANCH  26  33
ATOM     32  C   UNL     1       6.559   4.014  14.444  0.00  0.00    +0.000 C 
ATOM     33  O   UNL     1       5.902   3.521  15.612  0.00  0.00    +0.000 OA
ENDBRANCH  26  33
BRANCH  31  34
ATOM     34  O   UNL     1       3.797   2.663  17.498  0.00  0.00    +0.000 OA
ATOM     35  C   UNL     1       2.843   2.438  18.522  0.00  0.00    +0.000 C 
ENDBRANCH  31  34
ENDBRANCH  21  29
ENDBRANCH  20  24
ENDBRANCH  19  20
ENDBRANCH   1  19
TORSDOF 8
ENDMDL
MODEL 7
REMARK VINA RESULT:      -7.7      2.230      2.689
REMARK  Name = 
REMARK  10 active torsions:
REMARK  status: ('A' for Active; 'I' for Inactive)
REMARK    1  A    between atoms: C_1  and  O_2
REMARK    2  A    between atoms: O_2  and  C_3
REMARK    3  A    between atoms: C_6  and  C_7
REMARK    4  A    between atoms: C_10  and  C_11
REMARK    5  A    between atoms: C_11  and  S_12
REMARK    6  A    between atoms: S_12  and  C_13
REMARK    7  A    between atoms: C_16  and  C_17
REMARK    8  A    between atoms: N_23  and  C_24
REMARK    9  A    between atoms: C_33  and  O_34
REMARK   10  A    between atoms: O_34  and  C_35
REMARK                            x       y       z     vdW  Elec       q    Type
REMARK                         _______ _______ _______ _____ _____    ______ ____
ROOT
ATOM      1  C   UNL     1       0.270  10.281  21.137  0.00  0.00    +0.000 A 
ATOM      2  N   UNL     1       0.480  10.592  22.393  0.00  0.00    +0.000 NA
ATOM      3  N   UNL     1      -0.466  11.513  22.757  0.00  0.00    +0.000 NA
ATOM      4  C   UNL     1      -1.264  11.745  21.725  0.00  0.00    +0.000 A 
ATOM      5  N   UNL     1      -0.791  11.013  20.626  0.00  0.00    +0.000 N 
ENDROOT
BRANCH   5   6
ATOM      6  C   UNL     1      -1.311  11.016  19.299  0.00  0.00    +0.000 A 
ATOM      7  C   UNL     1      -0.930  12.025  18.399  0.00  0.00    +0.000 A 
ATOM      8  C   UNL     1      -1.576  12.143  17.167  0.00  0.00    +0.000 A 
ATOM      9  C   UNL     1      -2.561  11.228  16.819  0.00  0.00    +0.000 A 
ATOM     10  F   UNL     1      -3.207  11.365  15.654  0.00  0.00    +0.000 F 
ATOM     11  C   UNL     1      -2.905  10.188  17.677  0.00  0.00    +0.000 A 
ATOM     12  C   UNL     1      -2.287  10.083  18.918  0.00  0.00    +0.000 A 
ENDBRANCH   5   6
BRANCH   4  13
ATOM     13  C   UNL     1      -2.473  12.585  21.798  0.00  0.00    +0.000 A 
ATOM     14  C   UNL     1      -2.626  13.651  20.909  0.00  0.00    +0.000 A 
ATOM     15  C   UNL     1      -3.797  14.391  20.941  0.00  0.00    +0.000 A 
ATOM     16  N   UNL     1      -4.820  14.143  21.783  0.00  0.00    +0.000 NA
ATOM     17  C   UNL     1      -4.644  13.140  22.664  0.00  0.00    +0.000 A 
ATOM     18  C   UNL     1      -3.490  12.376  22.737  0.00  0.00    +0.000 A 
ENDBRANCH   4  13
BRANCH   1  19
ATOM     19  S   UNL     1       1.306   9.228  20.218  0.00  0.00    +0.000 S 
BRANCH  19  20
ATOM     20  C   UNL     1       1.156   7.678  21.156  0.00  0.00    +0.000 C 
BRANCH  20  24
ATOM     21  C   UNL     1       3.156   5.278  19.438  0.00  0.00    +0.000 A 
ATOM     22  N   UNL     1       2.521   4.453  20.287  0.00  0.00    +0.000 NA
ATOM     23  O   UNL     1       1.687   5.306  21.014  0.00  0.00    +0.000 OA
ATOM     24  C   UNL     1       1.901   6.563  20.529  0.00  0.00    +0.000 A 
ATOM     25  N   UNL     1       2.781   6.594  19.558  0.00  0.00    +0.000 NA
BRANCH  21  29
ATOM     26  C   UNL     1       6.079   4.259  16.492  0.00  0.00    +0.000 A 
ATOM     27  C   UNL     1       4.710   4.115  16.210  0.00  0.00    +0.000 A 
ATOM     28  C   UNL     1       3.739   4.440  17.163  0.00  0.00    +0.000 A 
ATOM     29  C   UNL     1       4.124   4.866  18.433  0.00  0.00    +0.000 A 
ATOM     30  C   UNL     1       5.491   4.911  18.740  0.00  0.00    +0.000 A 
ATOM     31  C   UNL     1       6.476   4.618  17.787  0.00  0.00    +0.000 A 
BRANCH  26  33
ATOM     32  C   UNL     1       6.590   4.152  14.181  0.00  0.00    +0.000 C 
ATOM     33  O   UNL     1       7.028   4.027  15.534  0.00  0.00    +0.000 OA
ENDBRANCH  26  33
BRANCH  31  34
ATOM     34  O   UNL     1       7.733   4.773  18.304  0.00  0.00    +0.000 OA
ATOM     35  C   UNL     1       7.939   5.692  19.363  0.00  0.00    +0.000 C 
ENDBRANCH  31  34
ENDBRANCH  21  29
ENDBRANCH  20  24
ENDBRANCH  19  20
ENDBRANCH   1  19
TORSDOF 8
ENDMDL
MODEL 8
REMARK VINA RESULT:      -7.6      1.101      1.680
REMARK  Name = 
REMARK  10 active torsions:
REMARK  status: ('A' for Active; 'I' for Inactive)
REMARK    1  A    between atoms: C_1  and  O_2
REMARK    2  A    between atoms: O_2  and  C_3
REMARK    3  A    between atoms: C_6  and  C_7
REMARK    4  A    between atoms: C_10  and  C_11
REMARK    5  A    between atoms: C_11  and  S_12
REMARK    6  A    between atoms: S_12  and  C_13
REMARK    7  A    between atoms: C_16  and  C_17
REMARK    8  A    between atoms: N_23  and  C_24
REMARK    9  A    between atoms: C_33  and  O_34
REMARK   10  A    between atoms: O_34  and  C_35
REMARK                            x       y       z     vdW  Elec       q    Type
REMARK                         _______ _______ _______ _____ _____    ______ ____
ROOT
ATOM      1  C   UNL     1       0.092  10.638  20.762  0.00  0.00    +0.000 A 
ATOM      2  N   UNL     1       1.078  11.167  21.445  0.00  0.00    +0.000 NA
ATOM      3  N   UNL     1       1.066  12.518  21.215  0.00  0.00    +0.000 NA
ATOM      4  C   UNL     1       0.057  12.811  20.410  0.00  0.00    +0.000 A 
ATOM      5  N   UNL     1      -0.573  11.615  20.035  0.00  0.00    +0.000 N 
ENDROOT
BRANCH   5   6
ATOM      6  C   UNL     1      -1.663  11.460  19.130  0.00  0.00    +0.000 A 
ATOM      7  C   UNL     1      -1.433  10.982  17.830  0.00  0.00    +0.000 A 
ATOM      8  C   UNL     1      -2.459  11.008  16.883  0.00  0.00    +0.000 A 
ATOM      9  C   UNL     1      -3.718  11.462  17.250  0.00  0.00    +0.000 A 
ATOM     10  F   UNL     1      -4.692  11.522  16.333  0.00  0.00    +0.000 F 
ATOM     11  C   UNL     1      -3.976  11.881  18.552  0.00  0.00    +0.000 A 
ATOM     12  C   UNL     1      -2.950  11.887  19.491  0.00  0.00    +0.000 A 
ENDBRANCH   5   6
BRANCH   4  13
ATOM     13  C   UNL     1      -0.335  14.187  20.055  0.00  0.00    +0.000 A 
ATOM     14  C   UNL     1       0.234  14.800  18.937  0.00  0.00    +0.000 A 
ATOM     15  C   UNL     1      -0.193  16.067  18.574  0.00  0.00    +0.000 A 
ATOM     16  N   UNL     1      -1.143  16.759  19.236  0.00  0.00    +0.000 NA
ATOM     17  C   UNL     1      -1.653  16.176  20.337  0.00  0.00    +0.000 A 
ATOM     18  C   UNL     1      -1.255  14.932  20.802  0.00  0.00    +0.000 A 
ENDBRANCH   4  13
BRANCH   1  19
ATOM     19  S   UNL     1      -0.204   8.928  20.662  0.00  0.00    +0.000 S 
BRANCH  19  20
ATOM     20  C   UNL     1       1.336   8.260  21.360  0.00  0.00    +0.000 C 
BRANCH  20  24
ATOM     21  C   UNL     1       2.848   5.683  19.416  0.00  0.00    +0.000 A 
ATOM     22  N   UNL     1       1.901   4.955  20.030  0.00  0.00    +0.000 NA
ATOM     23  O   UNL     1       1.230   5.888  20.824  0.00  0.00    +0.000 OA
ATOM     24  C   UNL     1       1.838   7.089  20.607  0.00  0.00    +0.000 A 
ATOM     25  N   UNL     1       2.824   7.016  19.746  0.00  0.00    +0.000 NA
BRANCH  21  29
ATOM     26  C   UNL     1       5.685   4.372  16.502  0.00  0.00    +0.000 A 
ATOM     27  C   UNL     1       4.379   3.850  16.504  0.00  0.00    +0.000 A 
ATOM     28  C   UNL     1       3.439   4.265  17.452  0.00  0.00    +0.000 A 
ATOM     29  C   UNL     1       3.804   5.170  18.447  0.00  0.00    +0.000 A 
ATOM     30  C   UNL     1       5.134   5.609  18.499  0.00  0.00    +0.000 A 
ATOM     31  C   UNL     1       6.080   5.227  17.538  0.00  0.00    +0.000 A 
BRANCH  26  33
ATOM     32  C   UNL     1       6.065   4.006  14.192  0.00  0.00    +0.000 C 
ATOM     33  O   UNL     1       6.580   4.036  15.523  0.00  0.00    +0.000 OA
ENDBRANCH  26  33
BRANCH  31  34
ATOM     34  O   UNL     1       7.293   5.816  17.770  0.00  0.00    +0.000 OA
ATOM     35  C   UNL     1       7.475   7.183  17.446  0.00  0.00    +0.000 C 
ENDBRANCH  31  34
ENDBRANCH  21  29
ENDBRANCH  20  24
ENDBRANCH  19  20
ENDBRANCH   1  19
TORSDOF 8
ENDMDL
MODEL 9
REMARK VINA RESULT:      -7.6      4.320     11.138
REMARK  Name = 
REMARK  10 active torsions:
REMARK  status: ('A' for Active; 'I' for Inactive)
REMARK    1  A    between atoms: C_1  and  O_2
REMARK    2  A    between atoms: O_2  and  C_3
REMARK    3  A    between atoms: C_6  and  C_7
REMARK    4  A    between atoms: C_10  and  C_11
REMARK    5  A    between atoms: C_11  and  S_12
REMARK    6  A    between atoms: S_12  and  C_13
REMARK    7  A    between atoms: C_16  and  C_17
REMARK    8  A    between atoms: N_23  and  C_24
REMARK    9  A    between atoms: C_33  and  O_34
REMARK   10  A    between atoms: O_34  and  C_35
REMARK                            x       y       z     vdW  Elec       q    Type
REMARK                         _______ _______ _______ _____ _____    ______ ____
ROOT
ATOM      1  C   UNL     1       4.496   4.175  18.232  0.00  0.00    +0.000 A 
ATOM      2  N   UNL     1       3.722   3.314  17.619  0.00  0.00    +0.000 NA
ATOM      3  N   UNL     1       4.113   3.264  16.306  0.00  0.00    +0.000 NA
ATOM      4  C   UNL     1       5.140   4.081  16.130  0.00  0.00    +0.000 A 
ATOM      5  N   UNL     1       5.391   4.745  17.339  0.00  0.00    +0.000 N 
ENDROOT
BRANCH   5   6
ATOM      6  C   UNL     1       6.365   5.757  17.582  0.00  0.00    +0.000 A 
ATOM      7  C   UNL     1       7.468   5.486  18.408  0.00  0.00    +0.000 A 
ATOM      8  C   UNL     1       8.319   6.520  18.801  0.00  0.00    +0.000 A 
ATOM      9  C   UNL     1       8.096   7.807  18.329  0.00  0.00    +0.000 A 
ATOM     10  F   UNL     1       8.890   8.806  18.737  0.00  0.00    +0.000 F 
ATOM     11  C   UNL     1       7.042   8.078  17.461  0.00  0.00    +0.000 A 
ATOM     12  C   UNL     1       6.173   7.058  17.091  0.00  0.00    +0.000 A 
ENDBRANCH   5   6
BRANCH   4  13
ATOM     13  C   UNL     1       5.898   4.182  14.869  0.00  0.00    +0.000 A 
ATOM     14  C   UNL     1       5.428   3.531  13.727  0.00  0.00    +0.000 A 
ATOM     15  C   UNL     1       6.111   3.690  12.532  0.00  0.00    +0.000 A 
ATOM     16  N   UNL     1       7.216   4.450  12.394  0.00  0.00    +0.000 NA
ATOM     17  C   UNL     1       7.685   5.038  13.511  0.00  0.00    +0.000 A 
ATOM     18  C   UNL     1       7.095   4.899  14.757  0.00  0.00    +0.000 A 
ENDBRANCH   4  13
BRANCH   1  19
ATOM     19  S   UNL     1       4.289   4.646  19.893  0.00  0.00    +0.000 S 
BRANCH  19  20
ATOM     20  C   UNL     1       2.481   4.812  19.991  0.00  0.00    +0.000 C 
BRANCH  20  24
ATOM     21  C   UNL     1       1.234   8.123  20.426  0.00  0.00    +0.000 A 
ATOM     22  N   UNL     1       2.021   8.334  19.359  0.00  0.00    +0.000 NA
ATOM     23  O   UNL     1       2.561   7.073  19.092  0.00  0.00    +0.000 OA
ATOM     24  C   UNL     1       2.042   6.225  20.026  0.00  0.00    +0.000 A 
ATOM     25  N   UNL     1       1.218   6.818  20.855  0.00  0.00    +0.000 NA
BRANCH  21  29
ATOM     26  C   UNL     1      -1.032  11.237  22.277  0.00  0.00    +0.000 A 
ATOM     27  C   UNL     1      -0.549  10.162  23.043  0.00  0.00    +0.000 A 
ATOM     28  C   UNL     1       0.191   9.132  22.453  0.00  0.00    +0.000 A 
ATOM     29  C   UNL     1       0.416   9.134  21.078  0.00  0.00    +0.000 A 
ATOM     30  C   UNL     1      -0.154  10.156  20.307  0.00  0.00    +0.000 A 
ATOM     31  C   UNL     1      -0.871  11.211  20.885  0.00  0.00    +0.000 A 
BRANCH  26  33
ATOM     32  C   UNL     1      -0.904  13.478  23.037  0.00  0.00    +0.000 C 
ATOM     33  O   UNL     1      -1.679  12.291  22.863  0.00  0.00    +0.000 OA
ENDBRANCH  26  33
BRANCH  31  34
ATOM     34  O   UNL     1      -1.290  12.109  19.941  0.00  0.00    +0.000 OA
ATOM     35  C   UNL     1      -2.406  11.791  19.128  0.00  0.00    +0.000 C 
ENDBRANCH  31  34
ENDBRANCH  21  29
ENDBRANCH  20  24
ENDBRANCH  19  20
ENDBRANCH   1  19
TORSDOF 8
ENDMDL
