MODEL 1
REMARK VINA RESULT:      -7.8      0.000      0.000
REMARK  Name = 
REMARK  10 active torsions:
REMARK  status: ('A' for Active; 'I' for Inactive)
REMARK    1  A    between atoms: C_1  and  C_2
REMARK    2  A    between atoms: C_2  and  C_3
REMARK    3  A    between atoms: C_5  and  C_6
REMARK    4  A    between atoms: C_6  and  N_7
REMARK    5  A    between atoms: C_11  and  N_12
REMARK    6  A    between atoms: N_12  and  C_13
REMARK    7  A    between atoms: N_12  and  C_14
REMARK    8  A    between atoms: C_14  and  C_15
REMARK    9  A    between atoms: C_17  and  C_18
REMARK   10  A    between atoms: C_19  and  C_20
REMARK                            x       y       z     vdW  Elec       q    Type
REMARK                         _______ _______ _______ _____ _____    ______ ____
ROOT
ATOM      1  N   UNL     1       4.505   4.128  17.288  0.00  0.00    +0.000 NA
ATOM      2  C   UNL     1       4.187   2.717  17.515  0.00  0.00    +0.000 C 
ATOM      3  C   UNL     1       2.676   2.494  17.572  0.00  0.00    +0.000 C 
ATOM      4  C   UNL     1       2.047   3.327  18.684  0.00  0.00    +0.000 C 
ATOM      5  C   UNL     1       2.370   4.828  18.505  0.00  0.00    +0.000 C 
ATOM      6  C   UNL     1       3.899   5.019  18.289  0.00  0.00    +0.000 C 
ENDROOT
BRANCH   5   7
ATOM      7  N   UNL     1       1.783   5.646  19.610  0.00  0.00    +0.000 NA
ATOM      8  C   UNL     1       1.799   4.966  20.912  0.00  0.00    +0.000 C 
BRANCH   7   9
ATOM      9  C   UNL     1       2.452   6.965  19.771  0.00  0.00    +0.000 C 
BRANCH   9  10
ATOM     10  C   UNL     1       1.570   8.101  20.189  0.00  0.00    +0.000 A 
ATOM     11  N   UNL     1       1.166   9.145  19.485  0.00  0.00    +0.000 NA
ATOM     12  C   UNL     1       0.490   9.924  20.395  0.00  0.00    +0.000 A 
ATOM     13  C   UNL     1      -0.126  11.209  20.008  0.00  0.00    +0.000 C 
ATOM     14  C   UNL     1       0.523   9.319  21.634  0.00  0.00    +0.000 A 
ATOM     15  C   UNL     1       0.016   9.661  22.972  0.00  0.00    +0.000 C 
ATOM     16  O   UNL     1       1.216   8.147  21.512  0.00  0.00    +0.000 OA
ENDBRANCH   9  10
ENDBRANCH   7   9
ENDBRANCH   5   7
BRANCH   1  17
ATOM     17  C   UNL     1       5.966   4.368  17.173  0.00  0.00    +0.000 C 
BRANCH  17  20
ATOM     18  C   UNL     1       6.725   4.305  13.704  0.00  0.00    +0.000 A 
ATOM     19  N   UNL     1       6.031   3.809  14.704  0.00  0.00    +0.000 NA
ATOM     20  C   UNL     1       6.474   4.565  15.770  0.00  0.00    +0.000 A 
ATOM     21  N   UNL     1       7.400   5.482  15.453  0.00  0.00    +0.000 NA
ATOM     22  O   UNL     1       7.563   5.316  14.076  0.00  0.00    +0.000 OA
BRANCH  18  24
ATOM     23  C   UNL     1       5.592   2.991  11.917  0.00  0.00    +0.000 C 
ATOM     24  C   UNL     1       6.755   3.897  12.281  0.00  0.00    +0.000 C 
ENDBRANCH  18  24
ENDBRANCH  17  20
ENDBRANCH   1  17
TORSDOF 6
ENDMDL
MODEL 2
REMARK VINA RESULT:      -7.4      1.064      1.477
REMARK  Name = 
REMARK  10 active torsions:
REMARK  status: ('A' for Active; 'I' for Inactive)
REMARK    1  A    between atoms: C_1  and  C_2
REMARK    2  A    between atoms: C_2  and  C_3
REMARK    3  A    between atoms: C_5  and  C_6
REMARK    4  A    between atoms: C_6  and  N_7
REMARK    5  A    between atoms: C_11  and  N_12
REMARK    6  A    between atoms: N_12  and  C_13
REMARK    7  A    between atoms: N_12  and  C_14
REMARK    8  A    between atoms: C_14  and  C_15
REMARK    9  A    between atoms: C_17  and  C_18
REMARK   10  A    between atoms: C_19  and  C_20
REMARK                            x       y       z     vdW  Elec       q    Type
REMARK                         _______ _______ _______ _____ _____    ______ ____
ROOT
ATOM      1  N   UNL     1       4.567   3.921  17.290  0.00  0.00    +0.000 NA
ATOM      2  C   UNL     1       4.615   2.505  17.662  0.00  0.00    +0.000 C 
ATOM      3  C   UNL     1       3.209   1.919  17.786  0.00  0.00    +0.000 C 
ATOM      4  C   UNL     1       2.395   2.677  18.829  0.00  0.00    +0.000 C 
ATOM      5  C   UNL     1       2.329   4.184  18.496  0.00  0.00    +0.000 C 
ATOM      6  C   UNL     1       3.760   4.729  18.217  0.00  0.00    +0.000 C 
ENDROOT
BRANCH   5   7
ATOM      7  N   UNL     1       1.559   4.938  19.533  0.00  0.00    +0.000 NA
ATOM      8  C   UNL     1       0.923   4.070  20.533  0.00  0.00    +0.000 C 
BRANCH   7   9
ATOM      9  C   UNL     1       2.389   5.940  20.252  0.00  0.00    +0.000 C 
BRANCH   9  10
ATOM     10  C   UNL     1       1.881   7.350  20.228  0.00  0.00    +0.000 A 
ATOM     11  N   UNL     1       1.173   7.996  21.138  0.00  0.00    +0.000 NA
ATOM     12  C   UNL     1       0.881   9.202  20.544  0.00  0.00    +0.000 A 
ATOM     13  C   UNL     1       0.084  10.234  21.237  0.00  0.00    +0.000 C 
ATOM     14  C   UNL     1       1.420   9.233  19.275  0.00  0.00    +0.000 A 
ATOM     15  C   UNL     1       1.430  10.208  18.173  0.00  0.00    +0.000 C 
ATOM     16  O   UNL     1       2.065   8.047  19.062  0.00  0.00    +0.000 OA
ENDBRANCH   9  10
ENDBRANCH   7   9
ENDBRANCH   5   7
BRANCH   1  17
ATOM     17  C   UNL     1       5.920   4.506  17.109  0.00  0.00    +0.000 C 
BRANCH  17  20
ATOM     18  C   UNL     1       6.605   4.189  13.639  0.00  0.00    +0.000 A 
ATOM     19  N   UNL     1       5.955   3.749  14.693  0.00  0.00    +0.000 NA
ATOM     20  C   UNL     1       6.388   4.607  15.682  0.00  0.00    +0.000 A 
ATOM     21  N   UNL     1       7.268   5.532  15.269  0.00  0.00    +0.000 NA
ATOM     22  O   UNL     1       7.407   5.260  13.907  0.00  0.00    +0.000 OA
BRANCH  18  24
ATOM     23  C   UNL     1       5.249   3.201  11.797  0.00  0.00    +0.000 C 
ATOM     24  C   UNL     1       6.621   3.667  12.253  0.00  0.00    +0.000 C 
ENDBRANCH  18  24
ENDBRANCH  17  20
ENDBRANCH   1  17
TORSDOF 6
ENDMDL
MODEL 3
REMARK VINA RESULT:      -7.2      2.207      3.299
REMARK  Name = 
REMARK  10 active torsions:
REMARK  status: ('A' for Active; 'I' for Inactive)
REMARK    1  A    between atoms: C_1  and  C_2
REMARK    2  A    between atoms: C_2  and  C_3
REMARK    3  A    between atoms: C_5  and  C_6
REMARK    4  A    between atoms: C_6  and  N_7
REMARK    5  A    between atoms: C_11  and  N_12
REMARK    6  A    between atoms: N_12  and  C_13
REMARK    7  A    between atoms: N_12  and  C_14
REMARK    8  A    between atoms: C_14  and  C_15
REMARK    9  A    between atoms: C_17  and  C_18
REMARK   10  A    between atoms: C_19  and  C_20
REMARK                            x       y       z     vdW  Elec       q    Type
REMARK                         _______ _______ _______ _____ _____    ______ ____
ROOT
ATOM      1  N   UNL     1       4.591   4.398  17.446  0.00  0.00    +0.000 NA
ATOM      2  C   UNL     1       3.936   3.102  17.261  0.00  0.00    +0.000 C 
ATOM      3  C   UNL     1       2.440   3.272  16.997  0.00  0.00    +0.000 C 
ATOM      4  C   UNL     1       1.765   4.007  18.151  0.00  0.00    +0.000 C 
ATOM      5  C   UNL     1       2.433   5.377  18.404  0.00  0.00    +0.000 C 
ATOM      6  C   UNL     1       3.976   5.204  18.512  0.00  0.00    +0.000 C 
ENDROOT
BRANCH   5   7
ATOM      7  N   UNL     1       1.797   6.088  19.555  0.00  0.00    +0.000 NA
ATOM      8  C   UNL     1       1.929   5.370  20.829  0.00  0.00    +0.000 C 
BRANCH   7   9
ATOM      9  C   UNL     1       2.324   7.465  19.746  0.00  0.00    +0.000 C 
BRANCH   9  10
ATOM     10  C   UNL     1       1.407   8.429  20.436  0.00  0.00    +0.000 A 
ATOM     11  N   UNL     1       1.068   8.486  21.712  0.00  0.00    +0.000 NA
ATOM     12  C   UNL     1       0.111   9.473  21.762  0.00  0.00    +0.000 A 
ATOM     13  C   UNL     1      -0.544   9.854  23.030  0.00  0.00    +0.000 C 
ATOM     14  C   UNL     1      -0.103   9.972  20.494  0.00  0.00    +0.000 A 
ATOM     15  C   UNL     1      -0.990  10.992  19.914  0.00  0.00    +0.000 C 
ATOM     16  O   UNL     1       0.725   9.306  19.635  0.00  0.00    +0.000 OA
ENDBRANCH   9  10
ENDBRANCH   7   9
ENDBRANCH   5   7
BRANCH   1  17
ATOM     17  C   UNL     1       6.056   4.269  17.651  0.00  0.00    +0.000 C 
BRANCH  17  20
ATOM     18  C   UNL     1       7.918   7.273  17.994  0.00  0.00    +0.000 A 
ATOM     19  N   UNL     1       7.319   6.259  18.576  0.00  0.00    +0.000 NA
ATOM     20  C   UNL     1       6.838   5.546  17.498  0.00  0.00    +0.000 A 
ATOM     21  N   UNL     1       7.117   6.090  16.304  0.00  0.00    +0.000 NA
ATOM     22  O   UNL     1       7.844   7.236  16.632  0.00  0.00    +0.000 OA
BRANCH  18  24
ATOM     23  C   UNL     1       8.216   9.745  17.921  0.00  0.00    +0.000 C 
ATOM     24  C   UNL     1       8.601   8.441  18.598  0.00  0.00    +0.000 C 
ENDBRANCH  18  24
ENDBRANCH  17  20
ENDBRANCH   1  17
TORSDOF 6
ENDMDL
MODEL 4
REMARK VINA RESULT:      -7.2      1.695      2.081
REMARK  Name = 
REMARK  10 active torsions:
REMARK  status: ('A' for Active; 'I' for Inactive)
REMARK    1  A    between atoms: C_1  and  C_2
REMARK    2  A    between atoms: C_2  and  C_3
REMARK    3  A    between atoms: C_5  and  C_6
REMARK    4  A    between atoms: C_6  and  N_7
REMARK    5  A    between atoms: C_11  and  N_12
REMARK    6  A    between atoms: N_12  and  C_13
REMARK    7  A    between atoms: N_12  and  C_14
REMARK    8  A    between atoms: C_14  and  C_15
REMARK    9  A    between atoms: C_17  and  C_18
REMARK   10  A    between atoms: C_19  and  C_20
REMARK                            x       y       z     vdW  Elec       q    Type
REMARK                         _______ _______ _______ _____ _____    ______ ____
ROOT
ATOM      1  N   UNL     1       4.668   4.506  17.980  0.00  0.00    +0.000 NA
ATOM      2  C   UNL     1       4.320   3.547  19.030  0.00  0.00    +0.000 C 
ATOM      3  C   UNL     1       2.804   3.406  19.168  0.00  0.00    +0.000 C 
ATOM      4  C   UNL     1       2.161   4.750  19.494  0.00  0.00    +0.000 C 
ATOM      5  C   UNL     1       2.514   5.809  18.425  0.00  0.00    +0.000 C 
ATOM      6  C   UNL     1       4.052   5.826  18.183  0.00  0.00    +0.000 C 
ENDROOT
BRANCH   5   7
ATOM      7  N   UNL     1       1.914   7.138  18.756  0.00  0.00    +0.000 NA
ATOM      8  C   UNL     1       2.115   7.536  20.156  0.00  0.00    +0.000 C 
BRANCH   7   9
ATOM      9  C   UNL     1       2.421   8.233  17.888  0.00  0.00    +0.000 C 
BRANCH   9  10
ATOM     10  C   UNL     1       1.783   9.574  18.084  0.00  0.00    +0.000 A 
ATOM     11  N   UNL     1       2.356  10.760  18.198  0.00  0.00    +0.000 NA
ATOM     12  C   UNL     1       1.314  11.611  18.488  0.00  0.00    +0.000 A 
ATOM     13  C   UNL     1       1.531  13.056  18.701  0.00  0.00    +0.000 C 
ATOM     14  C   UNL     1       0.138  10.893  18.552  0.00  0.00    +0.000 A 
ATOM     15  C   UNL     1      -1.267  11.224  18.838  0.00  0.00    +0.000 C 
ATOM     16  O   UNL     1       0.429   9.583  18.295  0.00  0.00    +0.000 OA
ENDBRANCH   9  10
ENDBRANCH   7   9
ENDBRANCH   5   7
BRANCH   1  17
ATOM     17  C   UNL     1       6.135   4.625  17.784  0.00  0.00    +0.000 C 
BRANCH  17  20
ATOM     18  C   UNL     1       6.803   4.536  14.297  0.00  0.00    +0.000 A 
ATOM     19  N   UNL     1       6.206   3.991  15.333  0.00  0.00    +0.000 NA
ATOM     20  C   UNL     1       6.576   4.834  16.360  0.00  0.00    +0.000 A 
ATOM     21  N   UNL     1       7.368   5.851  15.986  0.00  0.00    +0.000 NA
ATOM     22  O   UNL     1       7.513   5.658  14.611  0.00  0.00    +0.000 OA
BRANCH  18  24
ATOM     23  C   UNL     1       5.652   3.224  12.520  0.00  0.00    +0.000 C 
ATOM     24  C   UNL     1       6.848   4.085  12.887  0.00  0.00    +0.000 C 
ENDBRANCH  18  24
ENDBRANCH  17  20
ENDBRANCH   1  17
TORSDOF 6
ENDMDL
MODEL 5
REMARK VINA RESULT:      -7.1      1.857      8.624
REMARK  Name = 
REMARK  10 active torsions:
REMARK  status: ('A' for Active; 'I' for Inactive)
REMARK    1  A    between atoms: C_1  and  C_2
REMARK    2  A    between atoms: C_2  and  C_3
REMARK    3  A    between atoms: C_5  and  C_6
REMARK    4  A    between atoms: C_6  and  N_7
REMARK    5  A    between atoms: C_11  and  N_12
REMARK    6  A    between atoms: N_12  and  C_13
REMARK    7  A    between atoms: N_12  and  C_14
REMARK    8  A    between atoms: C_14  and  C_15
REMARK    9  A    between atoms: C_17  and  C_18
REMARK   10  A    between atoms: C_19  and  C_20
REMARK                            x       y       z     vdW  Elec       q    Type
REMARK                         _______ _______ _______ _____ _____    ______ ____
ROOT
ATOM      1  N   UNL     1       2.999   7.179  18.236  0.00  0.00    +0.000 NA
ATOM      2  C   UNL     1       2.217   5.958  18.029  0.00  0.00    +0.000 C 
ATOM      3  C   UNL     1       2.900   4.750  18.669  0.00  0.00    +0.000 C 
ATOM      4  C   UNL     1       4.296   4.546  18.090  0.00  0.00    +0.000 C 
ATOM      5  C   UNL     1       5.161   5.815  18.263  0.00  0.00    +0.000 C 
ATOM      6  C   UNL     1       4.382   7.061  17.750  0.00  0.00    +0.000 C 
ENDROOT
BRANCH   5   7
ATOM      7  N   UNL     1       6.520   5.633  17.669  0.00  0.00    +0.000 NA
ATOM      8  C   UNL     1       7.606   5.739  18.652  0.00  0.00    +0.000 C 
BRANCH   7   9
ATOM      9  C   UNL     1       6.670   4.337  16.955  0.00  0.00    +0.000 C 
BRANCH   9  10
ATOM     10  C   UNL     1       6.897   4.425  15.476  0.00  0.00    +0.000 A 
ATOM     11  N   UNL     1       7.654   5.271  14.799  0.00  0.00    +0.000 NA
ATOM     12  C   UNL     1       7.388   4.980  13.481  0.00  0.00    +0.000 A 
ATOM     13  C   UNL     1       8.039   5.716  12.379  0.00  0.00    +0.000 C 
ATOM     14  C   UNL     1       6.458   3.964  13.412  0.00  0.00    +0.000 A 
ATOM     15  C   UNL     1       5.776   3.251  12.321  0.00  0.00    +0.000 C 
ATOM     16  O   UNL     1       6.135   3.601  14.690  0.00  0.00    +0.000 OA
ENDBRANCH   9  10
ENDBRANCH   7   9
ENDBRANCH   5   7
BRANCH   1  17
ATOM     17  C   UNL     1       2.334   8.381  17.672  0.00  0.00    +0.000 C 
BRANCH  17  20
ATOM     18  C   UNL     1      -0.235  10.260  19.246  0.00  0.00    +0.000 A 
ATOM     19  N   UNL     1       0.363   9.902  18.132  0.00  0.00    +0.000 NA
ATOM     20  C   UNL     1       1.354   9.060  18.591  0.00  0.00    +0.000 A 
ATOM     21  N   UNL     1       1.379   8.905  19.923  0.00  0.00    +0.000 NA
ATOM     22  O   UNL     1       0.315   9.697  20.360  0.00  0.00    +0.000 OA
BRANCH  18  24
ATOM     23  C   UNL     1      -1.579  12.110  18.258  0.00  0.00    +0.000 C 
ATOM     24  C   UNL     1      -1.360  11.201  19.455  0.00  0.00    +0.000 C 
ENDBRANCH  18  24
ENDBRANCH  17  20
ENDBRANCH   1  17
TORSDOF 6
ENDMDL
MODEL 6
REMARK VINA RESULT:      -7.1      2.369      3.883
REMARK  Name = 
REMARK  10 active torsions:
REMARK  status: ('A' for Active; 'I' for Inactive)
REMARK    1  A    between atoms: C_1  and  C_2
REMARK    2  A    between atoms: C_2  and  C_3
REMARK    3  A    between atoms: C_5  and  C_6
REMARK    4  A    between atoms: C_6  and  N_7
REMARK    5  A    between atoms: C_11  and  N_12
REMARK    6  A    between atoms: N_12  and  C_13
REMARK    7  A    between atoms: N_12  and  C_14
REMARK    8  A    between atoms: C_14  and  C_15
REMARK    9  A    between atoms: C_17  and  C_18
REMARK   10  A    between atoms: C_19  and  C_20
REMARK                            x       y       z     vdW  Elec       q    Type
REMARK                         _______ _______ _______ _____ _____    ______ ____
ROOT
ATOM      1  N   UNL     1       6.046   5.286  16.684  0.00  0.00    +0.000 NA
ATOM      2  C   UNL     1       6.709   4.628  17.811  0.00  0.00    +0.000 C 
ATOM      3  C   UNL     1       5.692   4.145  18.845  0.00  0.00    +0.000 C 
ATOM      4  C   UNL     1       4.860   5.310  19.373  0.00  0.00    +0.000 C 
ATOM      5  C   UNL     1       4.152   6.056  18.219  0.00  0.00    +0.000 C 
ATOM      6  C   UNL     1       5.179   6.399  17.100  0.00  0.00    +0.000 C 
ENDROOT
BRANCH   5   7
ATOM      7  N   UNL     1       3.362   7.218  18.726  0.00  0.00    +0.000 NA
ATOM      8  C   UNL     1       2.760   8.026  17.657  0.00  0.00    +0.000 C 
BRANCH   7   9
ATOM      9  C   UNL     1       2.280   6.816  19.664  0.00  0.00    +0.000 C 
BRANCH   9  10
ATOM     10  C   UNL     1       1.970   5.351  19.717  0.00  0.00    +0.000 A 
ATOM     11  N   UNL     1       1.455   4.574  18.780  0.00  0.00    +0.000 NA
ATOM     12  C   UNL     1       1.270   3.365  19.409  0.00  0.00    +0.000 A 
ATOM     13  C   UNL     1       0.699   2.202  18.700  0.00  0.00    +0.000 C 
ATOM     14  C   UNL     1       1.673   3.463  20.725  0.00  0.00    +0.000 A 
ATOM     15  C   UNL     1       1.700   2.547  21.875  0.00  0.00    +0.000 C 
ATOM     16  O   UNL     1       2.124   4.737  20.932  0.00  0.00    +0.000 OA
ENDBRANCH   9  10
ENDBRANCH   7   9
ENDBRANCH   5   7
BRANCH   1  17
ATOM     17  C   UNL     1       7.005   5.719  15.636  0.00  0.00    +0.000 C 
BRANCH  17  20
ATOM     18  C   UNL     1       6.160   3.709  12.833  0.00  0.00    +0.000 A 
ATOM     19  N   UNL     1       5.909   4.053  14.076  0.00  0.00    +0.000 NA
ATOM     20  C   UNL     1       6.874   5.009  14.316  0.00  0.00    +0.000 A 
ATOM     21  N   UNL     1       7.690   5.246  13.277  0.00  0.00    +0.000 NA
ATOM     22  O   UNL     1       7.211   4.387  12.287  0.00  0.00    +0.000 OA
BRANCH  18  24
ATOM     23  C   UNL     1       4.236   3.196  11.337  0.00  0.00    +0.000 C 
ATOM     24  C   UNL     1       5.510   2.683  11.986  0.00  0.00    +0.000 C 
ENDBRANCH  18  24
ENDBRANCH  17  20
ENDBRANCH   1  17
TORSDOF 6
ENDMDL
MODEL 7
REMARK VINA RESULT:      -7.1      1.512      1.833
REMARK  Name = 
REMARK  10 active torsions:
REMARK  status: ('A' for Active; 'I' for Inactive)
REMARK    1  A    between atoms: C_1  and  C_2
REMARK    2  A    between atoms: C_2  and  C_3
REMARK    3  A    between atoms: C_5  and  C_6
REMARK    4  A    between atoms: C_6  and  N_7
REMARK    5  A    between atoms: C_11  and  N_12
REMARK    6  A    between atoms: N_12  and  C_13
REMARK    7  A    between atoms: N_12  and  C_14
REMARK    8  A    between atoms: C_14  and  C_15
REMARK    9  A    between atoms: C_17  and  C_18
REMARK   10  A    between atoms: C_19  and  C_20
REMARK                            x       y       z     vdW  Elec       q    Type
REMARK                         _______ _______ _______ _____ _____    ______ ____
ROOT
ATOM      1  N   UNL     1       5.753   5.231  17.018  0.00  0.00    +0.000 NA
ATOM      2  C   UNL     1       6.125   4.446  18.197  0.00  0.00    +0.000 C 
ATOM      3  C   UNL     1       4.892   4.061  19.015  0.00  0.00    +0.000 C 
ATOM      4  C   UNL     1       4.131   5.303  19.468  0.00  0.00    +0.000 C 
ATOM      5  C   UNL     1       3.732   6.182  18.261  0.00  0.00    +0.000 C 
ATOM      6  C   UNL     1       4.971   6.432  17.353  0.00  0.00    +0.000 C 
ENDROOT
BRANCH   5   7
ATOM      7  N   UNL     1       3.014   7.418  18.701  0.00  0.00    +0.000 NA
ATOM      8  C   UNL     1       2.405   8.164  17.593  0.00  0.00    +0.000 C 
BRANCH   7   9
ATOM      9  C   UNL     1       1.956   7.143  19.709  0.00  0.00    +0.000 C 
BRANCH   9  10
ATOM     10  C   UNL     1       1.331   8.346  20.348  0.00  0.00    +0.000 A 
ATOM     11  N   UNL     1       1.261   9.586  19.897  0.00  0.00    +0.000 NA
ATOM     12  C   UNL     1       0.701  10.292  20.936  0.00  0.00    +0.000 A 
ATOM     13  C   UNL     1       0.450  11.744  20.840  0.00  0.00    +0.000 C 
ATOM     14  C   UNL     1       0.462   9.441  21.995  0.00  0.00    +0.000 A 
ATOM     15  C   UNL     1      -0.084   9.597  23.352  0.00  0.00    +0.000 C 
ATOM     16  O   UNL     1       0.866   8.188  21.626  0.00  0.00    +0.000 OA
ENDBRANCH   9  10
ENDBRANCH   7   9
ENDBRANCH   5   7
BRANCH   1  17
ATOM     17  C   UNL     1       6.925   5.575  16.173  0.00  0.00    +0.000 C 
BRANCH  17  20
ATOM     18  C   UNL     1       6.314   3.868  13.119  0.00  0.00    +0.000 A 
ATOM     19  N   UNL     1       5.984   4.058  14.377  0.00  0.00    +0.000 NA
ATOM     20  C   UNL     1       6.892   5.016  14.776  0.00  0.00    +0.000 A 
ATOM     21  N   UNL     1       7.750   5.401  13.818  0.00  0.00    +0.000 NA
ATOM     22  O   UNL     1       7.361   4.643  12.712  0.00  0.00    +0.000 OA
BRANCH  18  24
ATOM     23  C   UNL     1       4.398   3.369  11.608  0.00  0.00    +0.000 C 
ATOM     24  C   UNL     1       5.754   2.922  12.128  0.00  0.00    +0.000 C 
ENDBRANCH  18  24
ENDBRANCH  17  20
ENDBRANCH   1  17
TORSDOF 6
ENDMDL
MODEL 8
REMARK VINA RESULT:      -7.1      1.630      8.697
REMARK  Name = 
REMARK  10 active torsions:
REMARK  status: ('A' for Active; 'I' for Inactive)
REMARK    1  A    between atoms: C_1  and  C_2
REMARK    2  A    between atoms: C_2  and  C_3
REMARK    3  A    between atoms: C_5  and  C_6
REMARK    4  A    between atoms: C_6  and  N_7
REMARK    5  A    between atoms: C_11  and  N_12
REMARK    6  A    between atoms: N_12  and  C_13
REMARK    7  A    between atoms: N_12  and  C_14
REMARK    8  A    between atoms: C_14  and  C_15
REMARK    9  A    between atoms: C_17  and  C_18
REMARK   10  A    between atoms: C_19  and  C_20
REMARK                            x       y       z     vdW  Elec       q    Type
REMARK                         _______ _______ _______ _____ _____    ______ ____
ROOT
ATOM      1  N   UNL     1       2.929   7.141  18.289  0.00  0.00    +0.000 NA
ATOM      2  C   UNL     1       2.231   5.864  18.136  0.00  0.00    +0.000 C 
ATOM      3  C   UNL     1       3.033   4.719  18.755  0.00  0.00    +0.000 C 
ATOM      4  C   UNL     1       4.410   4.609  18.109  0.00  0.00    +0.000 C 
ATOM      5  C   UNL     1       5.185   5.942  18.223  0.00  0.00    +0.000 C 
ATOM      6  C   UNL     1       4.292   7.119  17.735  0.00  0.00    +0.000 C 
ENDROOT
BRANCH   5   7
ATOM      7  N   UNL     1       6.524   5.851  17.563  0.00  0.00    +0.000 NA
ATOM      8  C   UNL     1       7.642   6.140  18.469  0.00  0.00    +0.000 C 
BRANCH   7   9
ATOM      9  C   UNL     1       6.769   4.525  16.935  0.00  0.00    +0.000 C 
BRANCH   9  10
ATOM     10  C   UNL     1       6.703   4.486  15.439  0.00  0.00    +0.000 A 
ATOM     11  N   UNL     1       5.981   3.703  14.657  0.00  0.00    +0.000 NA
ATOM     12  C   UNL     1       6.407   4.009  13.386  0.00  0.00    +0.000 A 
ATOM     13  C   UNL     1       5.843   3.338  12.197  0.00  0.00    +0.000 C 
ATOM     14  C   UNL     1       7.394   4.970  13.450  0.00  0.00    +0.000 A 
ATOM     15  C   UNL     1       8.231   5.668  12.462  0.00  0.00    +0.000 C 
ATOM     16  O   UNL     1       7.592   5.283  14.766  0.00  0.00    +0.000 OA
ENDBRANCH   9  10
ENDBRANCH   7   9
ENDBRANCH   5   7
BRANCH   1  17
ATOM     17  C   UNL     1       2.150   8.283  17.745  0.00  0.00    +0.000 C 
BRANCH  17  20
ATOM     18  C   UNL     1       0.538   9.811  20.516  0.00  0.00    +0.000 A 
ATOM     19  N   UNL     1       0.932   8.705  19.925  0.00  0.00    +0.000 NA
ATOM     20  C   UNL     1       1.531   9.185  18.778  0.00  0.00    +0.000 A 
ATOM     21  N   UNL     1       1.506  10.521  18.656  0.00  0.00    +0.000 NA
ATOM     22  O   UNL     1       0.853  10.939  19.817  0.00  0.00    +0.000 OA
BRANCH  18  24
ATOM     23  C   UNL     1       0.516   9.423  22.976  0.00  0.00    +0.000 C 
ATOM     24  C   UNL     1      -0.221   9.990  21.775  0.00  0.00    +0.000 C 
ENDBRANCH  18  24
ENDBRANCH  17  20
ENDBRANCH   1  17
TORSDOF 6
ENDMDL
MODEL 9
REMARK VINA RESULT:      -7.1      1.207      1.808
REMARK  Name = 
REMARK  10 active torsions:
REMARK  status: ('A' for Active; 'I' for Inactive)
REMARK    1  A    between atoms: C_1  and  C_2
REMARK    2  A    between atoms: C_2  and  C_3
REMARK    3  A    between atoms: C_5  and  C_6
REMARK    4  A    between atoms: C_6  and  N_7
REMARK    5  A    between atoms: C_11  and  N_12
REMARK    6  A    between atoms: N_12  and  C_13
REMARK    7  A    between atoms: N_12  and  C_14
REMARK    8  A    between atoms: C_14  and  C_15
REMARK    9  A    between atoms: C_17  and  C_18
REMARK   10  A    between atoms: C_19  and  C_20
REMARK                            x       y       z     vdW  Elec       q    Type
REMARK                         _______ _______ _______ _____ _____    ______ ____
ROOT
ATOM      1  N   UNL     1       4.490   4.794  17.422  0.00  0.00    +0.000 NA
ATOM      2  C   UNL     1       3.842   3.680  18.116  0.00  0.00    +0.000 C 
ATOM      3  C   UNL     1       2.328   3.881  18.191  0.00  0.00    +0.000 C 
ATOM      4  C   UNL     1       1.988   5.179  18.915  0.00  0.00    +0.000 C 
ATOM      5  C   UNL     1       2.666   6.390  18.235  0.00  0.00    +0.000 C 
ATOM      6  C   UNL     1       4.180   6.100  18.023  0.00  0.00    +0.000 C 
ENDROOT
BRANCH   5   7
ATOM      7  N   UNL     1       2.363   7.662  18.959  0.00  0.00    +0.000 NA
ATOM      8  C   UNL     1       1.565   8.608  18.169  0.00  0.00    +0.000 C 
BRANCH   7   9
ATOM      9  C   UNL     1       1.664   7.437  20.253  0.00  0.00    +0.000 C 
BRANCH   9  10
ATOM     10  C   UNL     1       1.112   8.660  20.920  0.00  0.00    +0.000 A 
ATOM     11  N   UNL     1       0.207   8.747  21.880  0.00  0.00    +0.000 NA
ATOM     12  C   UNL     1      -0.011  10.099  22.014  0.00  0.00    +0.000 A 
ATOM     13  C   UNL     1      -0.975  10.634  22.997  0.00  0.00    +0.000 C 
ATOM     14  C   UNL     1       0.772  10.784  21.109  0.00  0.00    +0.000 A 
ATOM     15  C   UNL     1       0.961  12.201  20.762  0.00  0.00    +0.000 C 
ATOM     16  O   UNL     1       1.496   9.867  20.400  0.00  0.00    +0.000 OA
ENDBRANCH   9  10
ENDBRANCH   7   9
ENDBRANCH   5   7
BRANCH   1  17
ATOM     17  C   UNL     1       5.956   4.602  17.286  0.00  0.00    +0.000 C 
BRANCH  17  20
ATOM     18  C   UNL     1       6.752   4.366  13.834  0.00  0.00    +0.000 A 
ATOM     19  N   UNL     1       6.023   3.944  14.842  0.00  0.00    +0.000 NA
ATOM     20  C   UNL     1       6.490   4.718  15.884  0.00  0.00    +0.000 A 
ATOM     21  N   UNL     1       7.464   5.576  15.545  0.00  0.00    +0.000 NA
ATOM     22  O   UNL     1       7.634   5.348  14.178  0.00  0.00    +0.000 OA
BRANCH  18  24
ATOM     23  C   UNL     1       5.521   3.139  12.049  0.00  0.00    +0.000 C 
ATOM     24  C   UNL     1       6.779   3.902  12.428  0.00  0.00    +0.000 C 
ENDBRANCH  18  24
ENDBRANCH  17  20
ENDBRANCH   1  17
TORSDOF 6
ENDMDL
