MODEL 1
REMARK VINA RESULT:      -8.3      0.000      0.000
REMARK  Name = 
REMARK  13 active torsions:
REMARK  status: ('A' for Active; 'I' for Inactive)
REMARK    1  A    between atoms: C_1  and  C_2
REMARK    2  A    between atoms: C_4  and  O_5
REMARK    3  A    between atoms: C_8  and  C_9
REMARK    4  A    between atoms: C_9  and  S_10
REMARK    5  A    between atoms: S_10  and  C_11
REMARK    6  A    between atoms: C_14  and  C_15
REMARK    7  A    between atoms: N_17  and  CA_18
REMARK    8  A    between atoms: CA_18  and  CB_19
REMARK    9  A    between atoms: CA_18  and  C_24
REMARK   10  A    between atoms: CB_19  and  CG_20
REMARK   11  A    between atoms: CG_20  and  CD_21
REMARK   12  A    between atoms: CD_21  and  OE2_23
REMARK   13  A    between atoms: C_24  and  OXT_26
REMARK                            x       y       z     vdW  Elec       q    Type
REMARK                         _______ _______ _______ _____ _____    ______ ____
ROOT
ATOM      1  C   UNK A   0       1.651   8.186  19.903  0.00  0.00    +0.000 A 
ATOM      2  C   UNK A   0       1.818   6.893  20.408  0.00  0.00    +0.000 A 
ATOM      3  C   UNK A   0       2.433   5.901  19.632  0.00  0.00    +0.000 A 
ATOM      4  C   UNK A   0       2.887   6.189  18.341  0.00  0.00    +0.000 A 
ATOM      5  C   UNK A   0       2.654   7.461  17.804  0.00  0.00    +0.000 A 
ATOM      6  C   UNK A   0       2.044   8.449  18.584  0.00  0.00    +0.000 A 
ENDROOT
BRANCH   4   7
ATOM      7  C   UNK A   0       3.616   5.126  17.594  0.00  0.00    +0.000 C 
ATOM      8  O   UNK A   0       3.162   3.990  17.522  0.00  0.00    +0.000 OA
ATOM      9  N   GLU A   1       4.827   5.485  17.047  0.00  0.00    +0.000 N 
ATOM     10  H   GLU A   1       5.225   6.396  17.244  0.00  0.00    +0.000 HD
BRANCH   9  11
ATOM     11  CA  GLU A   1       5.700   4.523  16.373  0.00  0.00    +0.000 C 
BRANCH  11  12
ATOM     12  C   GLU A   1       7.140   4.981  16.639  0.00  0.00    +0.000 C 
ATOM     13  O   GLU A   1       8.012   4.233  17.069  0.00  0.00    +0.000 OA
BRANCH  12  14
ATOM     14  OXT GLU A   1       7.391   6.266  16.318  0.00  0.00    +0.000 OA
ATOM     15  HXT GLU A   1       6.609   6.863  16.341  0.00  0.00    +0.000 HD
ENDBRANCH  12  14
ENDBRANCH  11  12
BRANCH  11  16
ATOM     16  CB  GLU A   1       5.409   4.480  14.862  0.00  0.00    +0.000 C 
BRANCH  16  17
ATOM     17  CG  GLU A   1       6.579   4.022  14.000  0.00  0.00    +0.000 C 
BRANCH  17  18
ATOM     18  CD  GLU A   1       6.087   3.553  12.658  0.00  0.00    +0.000 C 
ATOM     19  OE1 GLU A   1       6.831   3.049  11.831  0.00  0.00    +0.000 OA
BRANCH  18  20
ATOM     20  OE2 GLU A   1       4.753   3.648  12.498  0.00  0.00    +0.000 OA
ATOM     21  HE2 GLU A   1       4.224   3.263  13.223  0.00  0.00    +0.000 HD
ENDBRANCH  18  20
ENDBRANCH  17  18
ENDBRANCH  16  17
ENDBRANCH  11  16
ENDBRANCH   9  11
ENDBRANCH   4   7
BRANCH   1  22
ATOM     22  S   UNK A   0       0.906   9.517  20.832  0.00  0.00    +0.000 S 
BRANCH  22  23
ATOM     23  C   UNK A   0       0.779  10.836  19.576  0.00  0.00    +0.000 C 
BRANCH  23  30
ATOM     24  C   UNK A   0      -6.695  12.310  17.367  0.00  0.00    +0.000 C 
ATOM     25  C   UNK A   0      -5.257  11.930  17.530  0.00  0.00    +0.000 A 
ATOM     26  N   UNK A   0      -4.658  11.273  16.525  0.00  0.00    +0.000 NA
ATOM     27  C   UNK A   0      -3.376  10.955  16.744  0.00  0.00    +0.000 A 
ATOM     28  C   UNK A   0      -2.648  11.240  17.890  0.00  0.00    +0.000 A 
ATOM     29  C   UNK A   0      -1.292  10.891  18.112  0.00  0.00    +0.000 A 
ATOM     30  C   UNK A   0      -0.660  11.214  19.318  0.00  0.00    +0.000 A 
ATOM     31  C   UNK A   0      -1.407  11.880  20.295  0.00  0.00    +0.000 A 
ATOM     32  C   UNK A   0      -2.742  12.229  20.058  0.00  0.00    +0.000 A 
ATOM     33  C   UNK A   0      -3.380  11.920  18.865  0.00  0.00    +0.000 A 
ATOM     34  N   UNK A   0      -4.664  12.269  18.691  0.00  0.00    +0.000 NA
BRANCH  27  35
ATOM     35  O   UNK A   0      -2.817  10.274  15.705  0.00  0.00    +0.000 OA
ATOM     36  H   UNK A   0      -2.159  10.928  15.407  0.00  0.00    +0.000 HD
ENDBRANCH  27  35
ENDBRANCH  23  30
ENDBRANCH  22  23
ENDBRANCH   1  22
TORSDOF 12
ENDMDL
MODEL 2
REMARK VINA RESULT:      -8.2      1.902      2.768
REMARK  Name = 
REMARK  13 active torsions:
REMARK  status: ('A' for Active; 'I' for Inactive)
REMARK    1  A    between atoms: C_1  and  C_2
REMARK    2  A    between atoms: C_4  and  O_5
REMARK    3  A    between atoms: C_8  and  C_9
REMARK    4  A    between atoms: C_9  and  S_10
REMARK    5  A    between atoms: S_10  and  C_11
REMARK    6  A    between atoms: C_14  and  C_15
REMARK    7  A    between atoms: N_17  and  CA_18
REMARK    8  A    between atoms: CA_18  and  CB_19
REMARK    9  A    between atoms: CA_18  and  C_24
REMARK   10  A    between atoms: CB_19  and  CG_20
REMARK   11  A    between atoms: CG_20  and  CD_21
REMARK   12  A    between atoms: CD_21  and  OE2_23
REMARK   13  A    between atoms: C_24  and  OXT_26
REMARK                            x       y       z     vdW  Elec       q    Type
REMARK                         _______ _______ _______ _____ _____    ______ ____
ROOT
ATOM      1  C   UNK A   0       1.428   8.828  20.170  0.00  0.00    +0.000 A 
ATOM      2  C   UNK A   0       1.799   8.870  18.823  0.00  0.00    +0.000 A 
ATOM      3  C   UNK A   0       2.131   7.693  18.140  0.00  0.00    +0.000 A 
ATOM      4  C   UNK A   0       2.098   6.458  18.798  0.00  0.00    +0.000 A 
ATOM      5  C   UNK A   0       1.800   6.421  20.165  0.00  0.00    +0.000 A 
ATOM      6  C   UNK A   0       1.464   7.599  20.841  0.00  0.00    +0.000 A 
ENDROOT
BRANCH   4   7
ATOM      7  C   UNK A   0       2.369   5.227  18.004  0.00  0.00    +0.000 C 
ATOM      8  O   UNK A   0       1.455   4.478  17.680  0.00  0.00    +0.000 OA
ATOM      9  N   GLU A   1       3.688   4.968  17.709  0.00  0.00    +0.000 N 
ATOM     10  H   GLU A   1       4.422   5.543  18.110  0.00  0.00    +0.000 HD
BRANCH   9  11
ATOM     11  CA  GLU A   1       4.115   3.747  17.025  0.00  0.00    +0.000 C 
BRANCH  11  12
ATOM     12  C   GLU A   1       4.167   2.645  18.091  0.00  0.00    +0.000 C 
ATOM     13  O   GLU A   1       3.538   1.596  18.000  0.00  0.00    +0.000 OA
BRANCH  12  14
ATOM     14  OXT GLU A   1       4.998   2.897  19.122  0.00  0.00    +0.000 OA
ATOM     15  HXT GLU A   1       5.678   2.206  19.289  0.00  0.00    +0.000 HD
ENDBRANCH  12  14
ENDBRANCH  11  12
BRANCH  11  16
ATOM     16  CB  GLU A   1       5.495   3.939  16.367  0.00  0.00    +0.000 C 
BRANCH  16  17
ATOM     17  CG  GLU A   1       6.254   5.178  16.827  0.00  0.00    +0.000 C 
BRANCH  17  18
ATOM     18  CD  GLU A   1       7.275   4.808  17.867  0.00  0.00    +0.000 C 
ATOM     19  OE1 GLU A   1       7.136   5.093  19.046  0.00  0.00    +0.000 OA
BRANCH  18  20
ATOM     20  OE2 GLU A   1       8.291   4.057  17.397  0.00  0.00    +0.000 OA
ATOM     21  HE2 GLU A   1       9.077   4.562  17.112  0.00  0.00    +0.000 HD
ENDBRANCH  18  20
ENDBRANCH  17  18
ENDBRANCH  16  17
ENDBRANCH  11  16
ENDBRANCH   9  11
ENDBRANCH   4   7
BRANCH   1  22
ATOM     22  S   UNK A   0       0.960  10.276  21.108  0.00  0.00    +0.000 S 
BRANCH  22  23
ATOM     23  C   UNK A   0       0.679  11.510  19.791  0.00  0.00    +0.000 C 
BRANCH  23  30
ATOM     24  C   UNK A   0      -6.922  12.203  17.632  0.00  0.00    +0.000 C 
ATOM     25  C   UNK A   0      -5.448  11.987  17.781  0.00  0.00    +0.000 A 
ATOM     26  N   UNK A   0      -4.778  11.457  16.746  0.00  0.00    +0.000 NA
ATOM     27  C   UNK A   0      -3.468  11.281  16.954  0.00  0.00    +0.000 A 
ATOM     28  C   UNK A   0      -2.776  11.591  18.115  0.00  0.00    +0.000 A 
ATOM     29  C   UNK A   0      -1.387  11.394  18.325  0.00  0.00    +0.000 A 
ATOM     30  C   UNK A   0      -0.795  11.728  19.548  0.00  0.00    +0.000 A 
ATOM     31  C   UNK A   0      -1.613  12.252  20.554  0.00  0.00    +0.000 A 
ATOM     32  C   UNK A   0      -2.980  12.452  20.330  0.00  0.00    +0.000 A 
ATOM     33  C   UNK A   0      -3.580  12.131  19.120  0.00  0.00    +0.000 A 
ATOM     34  N   UNK A   0      -4.896  12.334  18.959  0.00  0.00    +0.000 NA
BRANCH  27  35
ATOM     35  O   UNK A   0      -2.835  10.725  15.884  0.00  0.00    +0.000 OA
ATOM     36  H   UNK A   0      -3.014   9.782  16.051  0.00  0.00    +0.000 HD
ENDBRANCH  27  35
ENDBRANCH  23  30
ENDBRANCH  22  23
ENDBRANCH   1  22
TORSDOF 12
ENDMDL
MODEL 3
REMARK VINA RESULT:      -8.1      2.245      2.895
REMARK  Name = 
REMARK  13 active torsions:
REMARK  status: ('A' for Active; 'I' for Inactive)
REMARK    1  A    between atoms: C_1  and  C_2
REMARK    2  A    between atoms: C_4  and  O_5
REMARK    3  A    between atoms: C_8  and  C_9
REMARK    4  A    between atoms: C_9  and  S_10
REMARK    5  A    between atoms: S_10  and  C_11
REMARK    6  A    between atoms: C_14  and  C_15
REMARK    7  A    between atoms: N_17  and  CA_18
REMARK    8  A    between atoms: CA_18  and  CB_19
REMARK    9  A    between atoms: CA_18  and  C_24
REMARK   10  A    between atoms: CB_19  and  CG_20
REMARK   11  A    between atoms: CG_20  and  CD_21
REMARK   12  A    between atoms: CD_21  and  OE2_23
REMARK   13  A    between atoms: C_24  and  OXT_26
REMARK                            x       y       z     vdW  Elec       q    Type
REMARK                         _______ _______ _______ _____ _____    ______ ____
ROOT
ATOM      1  C   UNK A   0       1.389   9.261  18.976  0.00  0.00    +0.000 A 
ATOM      2  C   UNK A   0       1.410   8.375  20.058  0.00  0.00    +0.000 A 
ATOM      3  C   UNK A   0       2.199   7.218  20.013  0.00  0.00    +0.000 A 
ATOM      4  C   UNK A   0       2.974   6.931  18.884  0.00  0.00    +0.000 A 
ATOM      5  C   UNK A   0       2.897   7.775  17.771  0.00  0.00    +0.000 A 
ATOM      6  C   UNK A   0       2.112   8.932  17.823  0.00  0.00    +0.000 A 
ENDROOT
BRANCH   4   7
ATOM      7  C   UNK A   0       3.865   5.737  18.924  0.00  0.00    +0.000 C 
ATOM      8  O   UNK A   0       3.817   4.953  19.864  0.00  0.00    +0.000 OA
ATOM      9  N   GLU A   1       4.758   5.607  17.885  0.00  0.00    +0.000 N 
ATOM     10  H   GLU A   1       4.854   6.348  17.199  0.00  0.00    +0.000 HD
BRANCH   9  11
ATOM     11  CA  GLU A   1       5.761   4.542  17.840  0.00  0.00    +0.000 C 
BRANCH  11  12
ATOM     12  C   GLU A   1       7.115   5.208  18.120  0.00  0.00    +0.000 C 
ATOM     13  O   GLU A   1       7.694   5.917  17.303  0.00  0.00    +0.000 OA
BRANCH  12  14
ATOM     14  OXT GLU A   1       7.603   4.993  19.358  0.00  0.00    +0.000 OA
ATOM     15  HXT GLU A   1       7.109   4.333  19.894  0.00  0.00    +0.000 HD
ENDBRANCH  12  14
ENDBRANCH  11  12
BRANCH  11  16
ATOM     16  CB  GLU A   1       5.766   3.847  16.466  0.00  0.00    +0.000 C 
BRANCH  16  17
ATOM     17  CG  GLU A   1       5.475   4.766  15.285  0.00  0.00    +0.000 C 
BRANCH  17  18
ATOM     18  CD  GLU A   1       6.547   4.627  14.239  0.00  0.00    +0.000 C 
ATOM     19  OE1 GLU A   1       6.414   3.905  13.263  0.00  0.00    +0.000 OA
BRANCH  18  20
ATOM     20  OE2 GLU A   1       7.606   5.439  14.426  0.00  0.00    +0.000 OA
ATOM     21  HE2 GLU A   1       7.567   5.984  15.235  0.00  0.00    +0.000 HD
ENDBRANCH  18  20
ENDBRANCH  17  18
ENDBRANCH  16  17
ENDBRANCH  11  16
ENDBRANCH   9  11
ENDBRANCH   4   7
BRANCH   1  22
ATOM     22  S   UNK A   0       0.437  10.773  18.961  0.00  0.00    +0.000 S 
BRANCH  22  23
ATOM     23  C   UNK A   0       0.658  11.380  20.669  0.00  0.00    +0.000 C 
BRANCH  23  30
ATOM     24  C   UNK A   0      -6.651  13.286  23.091  0.00  0.00    +0.000 C 
ATOM     25  C   UNK A   0      -5.363  12.999  22.386  0.00  0.00    +0.000 A 
ATOM     26  N   UNK A   0      -5.331  13.124  21.049  0.00  0.00    +0.000 NA
ATOM     27  C   UNK A   0      -4.151  12.841  20.484  0.00  0.00    +0.000 A 
ATOM     28  C   UNK A   0      -3.002  12.440  21.150  0.00  0.00    +0.000 A 
ATOM     29  C   UNK A   0      -1.760  12.136  20.537  0.00  0.00    +0.000 A 
ATOM     30  C   UNK A   0      -0.667  11.722  21.308  0.00  0.00    +0.000 A 
ATOM     31  C   UNK A   0      -0.841  11.609  22.690  0.00  0.00    +0.000 A 
ATOM     32  C   UNK A   0      -2.070  11.924  23.283  0.00  0.00    +0.000 A 
ATOM     33  C   UNK A   0      -3.160  12.341  22.533  0.00  0.00    +0.000 A 
ATOM     34  N   UNK A   0      -4.319  12.621  23.148  0.00  0.00    +0.000 NA
BRANCH  27  35
ATOM     35  O   UNK A   0      -4.174  12.965  19.128  0.00  0.00    +0.000 OA
ATOM     36  H   UNK A   0      -5.087  13.279  19.000  0.00  0.00    +0.000 HD
ENDBRANCH  27  35
ENDBRANCH  23  30
ENDBRANCH  22  23
ENDBRANCH   1  22
TORSDOF 12
ENDMDL
MODEL 4
REMARK VINA RESULT:      -7.9      3.113      3.771
REMARK  Name = 
REMARK  13 active torsions:
REMARK  status: ('A' for Active; 'I' for Inactive)
REMARK    1  A    between atoms: C_1  and  C_2
REMARK    2  A    between atoms: C_4  and  O_5
REMARK    3  A    between atoms: C_8  and  C_9
REMARK    4  A    between atoms: C_9  and  S_10
REMARK    5  A    between atoms: S_10  and  C_11
REMARK    6  A    between atoms: C_14  and  C_15
REMARK    7  A    between atoms: N_17  and  CA_18
REMARK    8  A    between atoms: CA_18  and  CB_19
REMARK    9  A    between atoms: CA_18  and  C_24
REMARK   10  A    between atoms: CB_19  and  CG_20
REMARK   11  A    between atoms: CG_20  and  CD_21
REMARK   12  A    between atoms: CD_21  and  OE2_23
REMARK   13  A    between atoms: C_24  and  OXT_26
REMARK                            x       y       z     vdW  Elec       q    Type
REMARK                         _______ _______ _______ _____ _____    ______ ____
ROOT
ATOM      1  C   UNK A   0       1.382   9.740  19.033  0.00  0.00    +0.000 A 
ATOM      2  C   UNK A   0       1.296   8.907  20.153  0.00  0.00    +0.000 A 
ATOM      3  C   UNK A   0       1.737   7.579  20.086  0.00  0.00    +0.000 A 
ATOM      4  C   UNK A   0       2.265   7.066  18.897  0.00  0.00    +0.000 A 
ATOM      5  C   UNK A   0       2.283   7.873  17.754  0.00  0.00    +0.000 A 
ATOM      6  C   UNK A   0       1.847   9.201  17.828  0.00  0.00    +0.000 A 
ENDROOT
BRANCH   4   7
ATOM      7  C   UNK A   0       2.804   5.677  18.905  0.00  0.00    +0.000 C 
ATOM      8  O   UNK A   0       2.496   4.892  19.795  0.00  0.00    +0.000 OA
ATOM      9  N   GLU A   1       3.687   5.358  17.898  0.00  0.00    +0.000 N 
ATOM     10  H   GLU A   1       4.014   6.077  17.262  0.00  0.00    +0.000 HD
BRANCH   9  11
ATOM     11  CA  GLU A   1       4.372   4.067  17.834  0.00  0.00    +0.000 C 
BRANCH  11  12
ATOM     12  C   GLU A   1       5.293   4.001  19.059  0.00  0.00    +0.000 C 
ATOM     13  O   GLU A   1       6.210   4.793  19.250  0.00  0.00    +0.000 OA
BRANCH  12  14
ATOM     14  OXT GLU A   1       4.987   3.030  19.943  0.00  0.00    +0.000 OA
ATOM     15  HXT GLU A   1       5.297   3.189  20.863  0.00  0.00    +0.000 HD
ENDBRANCH  12  14
ENDBRANCH  11  12
BRANCH  11  16
ATOM     16  CB  GLU A   1       5.183   3.938  16.531  0.00  0.00    +0.000 C 
BRANCH  16  17
ATOM     17  CG  GLU A   1       5.195   5.190  15.661  0.00  0.00    +0.000 C 
BRANCH  17  18
ATOM     18  CD  GLU A   1       6.393   6.039  15.986  0.00  0.00    +0.000 C 
ATOM     19  OE1 GLU A   1       6.325   7.002  16.734  0.00  0.00    +0.000 OA
BRANCH  18  20
ATOM     20  OE2 GLU A   1       7.547   5.584  15.461  0.00  0.00    +0.000 OA
ATOM     21  HE2 GLU A   1       8.300   5.563  16.083  0.00  0.00    +0.000 HD
ENDBRANCH  18  20
ENDBRANCH  17  18
ENDBRANCH  16  17
ENDBRANCH  11  16
ENDBRANCH   9  11
ENDBRANCH   4   7
BRANCH   1  22
ATOM     22  S   UNK A   0       0.873  11.453  19.039  0.00  0.00    +0.000 S 
BRANCH  22  23
ATOM     23  C   UNK A   0       1.093  11.911  20.793  0.00  0.00    +0.000 C 
BRANCH  23  30
ATOM     24  C   UNK A   0      -6.137  13.090  23.835  0.00  0.00    +0.000 C 
ATOM     25  C   UNK A   0      -4.835  13.078  23.097  0.00  0.00    +0.000 A 
ATOM     26  N   UNK A   0      -4.685  13.923  22.065  0.00  0.00    +0.000 NA
ATOM     27  C   UNK A   0      -3.502  13.851  21.444  0.00  0.00    +0.000 A 
ATOM     28  C   UNK A   0      -2.458  12.997  21.772  0.00  0.00    +0.000 A 
ATOM     29  C   UNK A   0      -1.211  12.925  21.101  0.00  0.00    +0.000 A 
ATOM     30  C   UNK A   0      -0.234  12.010  21.507  0.00  0.00    +0.000 A 
ATOM     31  C   UNK A   0      -0.527  11.168  22.584  0.00  0.00    +0.000 A 
ATOM     32  C   UNK A   0      -1.758  11.257  23.245  0.00  0.00    +0.000 A 
ATOM     33  C   UNK A   0      -2.735  12.163  22.857  0.00  0.00    +0.000 A 
ATOM     34  N   UNK A   0      -3.901  12.203  23.518  0.00  0.00    +0.000 NA
BRANCH  27  35
ATOM     35  O   UNK A   0      -3.403  14.713  20.395  0.00  0.00    +0.000 OA
ATOM     36  H   UNK A   0      -4.127  15.329  20.611  0.00  0.00    +0.000 HD
ENDBRANCH  27  35
ENDBRANCH  23  30
ENDBRANCH  22  23
ENDBRANCH   1  22
TORSDOF 12
ENDMDL
MODEL 5
REMARK VINA RESULT:      -7.9      2.692      3.094
REMARK  Name = 
REMARK  13 active torsions:
REMARK  status: ('A' for Active; 'I' for Inactive)
REMARK    1  A    between atoms: C_1  and  C_2
REMARK    2  A    between atoms: C_4  and  O_5
REMARK    3  A    between atoms: C_8  and  C_9
REMARK    4  A    between atoms: C_9  and  S_10
REMARK    5  A    between atoms: S_10  and  C_11
REMARK    6  A    between atoms: C_14  and  C_15
REMARK    7  A    between atoms: N_17  and  CA_18
REMARK    8  A    between atoms: CA_18  and  CB_19
REMARK    9  A    between atoms: CA_18  and  C_24
REMARK   10  A    between atoms: CB_19  and  CG_20
REMARK   11  A    between atoms: CG_20  and  CD_21
REMARK   12  A    between atoms: CD_21  and  OE2_23
REMARK   13  A    between atoms: C_24  and  OXT_26
REMARK                            x       y       z     vdW  Elec       q    Type
REMARK                         _______ _______ _______ _____ _____    ______ ____
ROOT
ATOM      1  C   UNK A   0       1.933   6.922  20.146  0.00  0.00    +0.000 A 
ATOM      2  C   UNK A   0       2.038   5.548  20.388  0.00  0.00    +0.000 A 
ATOM      3  C   UNK A   0       2.766   4.727  19.517  0.00  0.00    +0.000 A 
ATOM      4  C   UNK A   0       3.396   5.269  18.391  0.00  0.00    +0.000 A 
ATOM      5  C   UNK A   0       3.229   6.629  18.105  0.00  0.00    +0.000 A 
ATOM      6  C   UNK A   0       2.506   7.446  18.981  0.00  0.00    +0.000 A 
ENDROOT
BRANCH   4   7
ATOM      7  C   UNK A   0       4.233   4.370  17.548  0.00  0.00    +0.000 C 
ATOM      8  O   UNK A   0       4.389   3.194  17.853  0.00  0.00    +0.000 OA
ATOM      9  N   GLU A   1       4.846   4.948  16.460  0.00  0.00    +0.000 N 
ATOM     10  H   GLU A   1       4.797   5.952  16.321  0.00  0.00    +0.000 HD
BRANCH   9  11
ATOM     11  CA  GLU A   1       5.776   4.215  15.600  0.00  0.00    +0.000 C 
BRANCH  11  12
ATOM     12  C   GLU A   1       7.177   4.757  15.914  0.00  0.00    +0.000 C 
ATOM     13  O   GLU A   1       7.890   4.295  16.798  0.00  0.00    +0.000 OA
BRANCH  12  14
ATOM     14  OXT GLU A   1       7.589   5.755  15.107  0.00  0.00    +0.000 OA
ATOM     15  HXT GLU A   1       7.361   5.645  14.156  0.00  0.00    +0.000 HD
ENDBRANCH  12  14
ENDBRANCH  11  12
BRANCH  11  16
ATOM     16  CB  GLU A   1       5.429   4.419  14.114  0.00  0.00    +0.000 C 
BRANCH  16  17
ATOM     17  CG  GLU A   1       6.279   3.607  13.144  0.00  0.00    +0.000 C 
BRANCH  17  18
ATOM     18  CD  GLU A   1       5.406   2.944  12.114  0.00  0.00    +0.000 C 
ATOM     19  OE1 GLU A   1       4.387   3.466  11.691  0.00  0.00    +0.000 OA
BRANCH  18  20
ATOM     20  OE2 GLU A   1       5.903   1.786  11.637  0.00  0.00    +0.000 OA
ATOM     21  HE2 GLU A   1       5.319   1.317  11.010  0.00  0.00    +0.000 HD
ENDBRANCH  18  20
ENDBRANCH  17  18
ENDBRANCH  16  17
ENDBRANCH  11  16
ENDBRANCH   9  11
ENDBRANCH   4   7
BRANCH   1  22
ATOM     22  S   UNK A   0       1.051   8.045  21.220  0.00  0.00    +0.000 S 
BRANCH  22  23
ATOM     23  C   UNK A   0       0.768   9.478  20.124  0.00  0.00    +0.000 C 
BRANCH  23  30
ATOM     24  C   UNK A   0      -3.170  15.735  22.998  0.00  0.00    +0.000 C 
ATOM     25  C   UNK A   0      -2.402  14.706  22.229  0.00  0.00    +0.000 A 
ATOM     26  N   UNK A   0      -2.104  14.967  20.946  0.00  0.00    +0.000 NA
ATOM     27  C   UNK A   0      -1.427  14.000  20.317  0.00  0.00    +0.000 A 
ATOM     28  C   UNK A   0      -1.026  12.791  20.868  0.00  0.00    +0.000 A 
ATOM     29  C   UNK A   0      -0.314  11.771  20.187  0.00  0.00    +0.000 A 
ATOM     30  C   UNK A   0       0.023  10.580  20.839  0.00  0.00    +0.000 A 
ATOM     31  C   UNK A   0      -0.368  10.425  22.172  0.00  0.00    +0.000 A 
ATOM     32  C   UNK A   0      -1.060  11.445  22.836  0.00  0.00    +0.000 A 
ATOM     33  C   UNK A   0      -1.398  12.634  22.204  0.00  0.00    +0.000 A 
ATOM     34  N   UNK A   0      -2.070  13.576  22.882  0.00  0.00    +0.000 NA
BRANCH  27  35
ATOM     35  O   UNK A   0      -1.164  14.302  19.015  0.00  0.00    +0.000 OA
ATOM     36  H   UNK A   0      -1.080  13.404  18.645  0.00  0.00    +0.000 HD
ENDBRANCH  27  35
ENDBRANCH  23  30
ENDBRANCH  22  23
ENDBRANCH   1  22
TORSDOF 12
ENDMDL
MODEL 6
REMARK VINA RESULT:      -7.8      2.915      3.924
REMARK  Name = 
REMARK  13 active torsions:
REMARK  status: ('A' for Active; 'I' for Inactive)
REMARK    1  A    between atoms: C_1  and  C_2
REMARK    2  A    between atoms: C_4  and  O_5
REMARK    3  A    between atoms: C_8  and  C_9
REMARK    4  A    between atoms: C_9  and  S_10
REMARK    5  A    between atoms: S_10  and  C_11
REMARK    6  A    between atoms: C_14  and  C_15
REMARK    7  A    between atoms: N_17  and  CA_18
REMARK    8  A    between atoms: CA_18  and  CB_19
REMARK    9  A    between atoms: CA_18  and  C_24
REMARK   10  A    between atoms: CB_19  and  CG_20
REMARK   11  A    between atoms: CG_20  and  CD_21
REMARK   12  A    between atoms: CD_21  and  OE2_23
REMARK   13  A    between atoms: C_24  and  OXT_26
REMARK                            x       y       z     vdW  Elec       q    Type
REMARK                         _______ _______ _______ _____ _____    ______ ____
ROOT
ATOM      1  C   UNK A   0       1.281  10.052  19.141  0.00  0.00    +0.000 A 
ATOM      2  C   UNK A   0       1.092   9.307  20.309  0.00  0.00    +0.000 A 
ATOM      3  C   UNK A   0       1.550   7.985  20.390  0.00  0.00    +0.000 A 
ATOM      4  C   UNK A   0       2.200   7.392  19.303  0.00  0.00    +0.000 A 
ATOM      5  C   UNK A   0       2.324   8.109  18.108  0.00  0.00    +0.000 A 
ATOM      6  C   UNK A   0       1.870   9.430  18.033  0.00  0.00    +0.000 A 
ENDROOT
BRANCH   4   7
ATOM      7  C   UNK A   0       2.750   6.017  19.473  0.00  0.00    +0.000 C 
ATOM      8  O   UNK A   0       2.280   5.256  20.311  0.00  0.00    +0.000 OA
ATOM      9  N   GLU A   1       3.824   5.686  18.680  0.00  0.00    +0.000 N 
ATOM     10  H   GLU A   1       4.263   6.391  18.097  0.00  0.00    +0.000 HD
BRANCH   9  11
ATOM     11  CA  GLU A   1       4.530   4.410  18.806  0.00  0.00    +0.000 C 
BRANCH  11  12
ATOM     12  C   GLU A   1       6.029   4.739  18.788  0.00  0.00    +0.000 C 
ATOM     13  O   GLU A   1       6.596   5.329  19.702  0.00  0.00    +0.000 OA
BRANCH  12  14
ATOM     14  OXT GLU A   1       6.693   4.284  17.706  0.00  0.00    +0.000 OA
ATOM     15  HXT GLU A   1       6.705   3.306  17.603  0.00  0.00    +0.000 HD
ENDBRANCH  12  14
ENDBRANCH  11  12
BRANCH  11  16
ATOM     16  CB  GLU A   1       4.163   3.462  17.649  0.00  0.00    +0.000 C 
BRANCH  16  17
ATOM     17  CG  GLU A   1       3.322   2.257  18.056  0.00  0.00    +0.000 C 
BRANCH  17  18
ATOM     18  CD  GLU A   1       1.869   2.636  18.128  0.00  0.00    +0.000 C 
ATOM     19  OE1 GLU A   1       1.077   2.048  18.847  0.00  0.00    +0.000 OA
BRANCH  18  20
ATOM     20  OE2 GLU A   1       1.551   3.733  17.413  0.00  0.00    +0.000 OA
ATOM     21  HE2 GLU A   1       2.014   3.813  16.556  0.00  0.00    +0.000 HD
ENDBRANCH  18  20
ENDBRANCH  17  18
ENDBRANCH  16  17
ENDBRANCH  11  16
ENDBRANCH   9  11
ENDBRANCH   4   7
BRANCH   1  22
ATOM     22  S   UNK A   0       0.757  11.751  18.962  0.00  0.00    +0.000 S 
BRANCH  22  23
ATOM     23  C   UNK A   0      -0.999  11.562  18.497  0.00  0.00    +0.000 C 
BRANCH  23  30
ATOM     24  C   UNK A   0      -6.549  13.656  23.762  0.00  0.00    +0.000 C 
ATOM     25  C   UNK A   0      -5.701  13.297  22.583  0.00  0.00    +0.000 A 
ATOM     26  N   UNK A   0      -6.287  13.236  21.377  0.00  0.00    +0.000 NA
ATOM     27  C   UNK A   0      -5.472  12.898  20.371  0.00  0.00    +0.000 A 
ATOM     28  C   UNK A   0      -4.118  12.613  20.476  0.00  0.00    +0.000 A 
ATOM     29  C   UNK A   0      -3.267  12.249  19.402  0.00  0.00    +0.000 A 
ATOM     30  C   UNK A   0      -1.915  11.965  19.628  0.00  0.00    +0.000 A 
ATOM     31  C   UNK A   0      -1.436  12.042  20.939  0.00  0.00    +0.000 A 
ATOM     32  C   UNK A   0      -2.285  12.414  21.988  0.00  0.00    +0.000 A 
ATOM     33  C   UNK A   0      -3.626  12.705  21.779  0.00  0.00    +0.000 A 
ATOM     34  N   UNK A   0      -4.399  13.047  22.821  0.00  0.00    +0.000 NA
BRANCH  27  35
ATOM     35  O   UNK A   0      -6.114  12.832  19.172  0.00  0.00    +0.000 OA
ATOM     36  H   UNK A   0      -5.601  12.124  18.742  0.00  0.00    +0.000 HD
ENDBRANCH  27  35
ENDBRANCH  23  30
ENDBRANCH  22  23
ENDBRANCH   1  22
TORSDOF 12
ENDMDL
MODEL 7
REMARK VINA RESULT:      -7.8      1.894      2.941
REMARK  Name = 
REMARK  13 active torsions:
REMARK  status: ('A' for Active; 'I' for Inactive)
REMARK    1  A    between atoms: C_1  and  C_2
REMARK    2  A    between atoms: C_4  and  O_5
REMARK    3  A    between atoms: C_8  and  C_9
REMARK    4  A    between atoms: C_9  and  S_10
REMARK    5  A    between atoms: S_10  and  C_11
REMARK    6  A    between atoms: C_14  and  C_15
REMARK    7  A    between atoms: N_17  and  CA_18
REMARK    8  A    between atoms: CA_18  and  CB_19
REMARK    9  A    between atoms: CA_18  and  C_24
REMARK   10  A    between atoms: CB_19  and  CG_20
REMARK   11  A    between atoms: CG_20  and  CD_21
REMARK   12  A    between atoms: CD_21  and  OE2_23
REMARK   13  A    between atoms: C_24  and  OXT_26
REMARK                            x       y       z     vdW  Elec       q    Type
REMARK                         _______ _______ _______ _____ _____    ______ ____
ROOT
ATOM      1  C   UNK A   0       1.377   8.930  20.076  0.00  0.00    +0.000 A 
ATOM      2  C   UNK A   0       1.754   8.910  18.730  0.00  0.00    +0.000 A 
ATOM      3  C   UNK A   0       2.123   7.707  18.113  0.00  0.00    +0.000 A 
ATOM      4  C   UNK A   0       2.124   6.510  18.836  0.00  0.00    +0.000 A 
ATOM      5  C   UNK A   0       1.820   6.538  20.202  0.00  0.00    +0.000 A 
ATOM      6  C   UNK A   0       1.447   7.740  20.812  0.00  0.00    +0.000 A 
ENDROOT
BRANCH   4   7
ATOM      7  C   UNK A   0       2.435   5.246  18.111  0.00  0.00    +0.000 C 
ATOM      8  O   UNK A   0       1.534   4.533  17.684  0.00  0.00    +0.000 OA
ATOM      9  N   GLU A   1       3.766   4.917  18.000  0.00  0.00    +0.000 N 
ATOM     10  H   GLU A   1       4.469   5.466  18.483  0.00  0.00    +0.000 HD
BRANCH   9  11
ATOM     11  CA  GLU A   1       4.218   3.659  17.404  0.00  0.00    +0.000 C 
BRANCH  11  12
ATOM     12  C   GLU A   1       4.390   2.666  18.560  0.00  0.00    +0.000 C 
ATOM     13  O   GLU A   1       4.905   2.969  19.631  0.00  0.00    +0.000 OA
BRANCH  12  14
ATOM     14  OXT GLU A   1       3.886   1.437  18.328  0.00  0.00    +0.000 OA
ATOM     15  HXT GLU A   1       4.117   1.048  17.455  0.00  0.00    +0.000 HD
ENDBRANCH  12  14
ENDBRANCH  11  12
BRANCH  11  16
ATOM     16  CB  GLU A   1       5.544   3.854  16.646  0.00  0.00    +0.000 C 
BRANCH  16  17
ATOM     17  CG  GLU A   1       5.550   5.016  15.660  0.00  0.00    +0.000 C 
BRANCH  17  18
ATOM     18  CD  GLU A   1       6.955   5.507  15.441  0.00  0.00    +0.000 C 
ATOM     19  OE1 GLU A   1       7.567   5.289  14.407  0.00  0.00    +0.000 OA
BRANCH  18  20
ATOM     20  OE2 GLU A   1       7.427   6.282  16.436  0.00  0.00    +0.000 OA
ATOM     21  HE2 GLU A   1       6.784   6.921  16.799  0.00  0.00    +0.000 HD
ENDBRANCH  18  20
ENDBRANCH  17  18
ENDBRANCH  16  17
ENDBRANCH  11  16
ENDBRANCH   9  11
ENDBRANCH   4   7
BRANCH   1  22
ATOM     22  S   UNK A   0       0.864  10.411  20.933  0.00  0.00    +0.000 S 
BRANCH  22  23
ATOM     23  C   UNK A   0       0.550  11.562  19.550  0.00  0.00    +0.000 C 
BRANCH  23  30
ATOM     24  C   UNK A   0      -7.237  12.102  18.137  0.00  0.00    +0.000 C 
ATOM     25  C   UNK A   0      -5.825  12.140  18.632  0.00  0.00    +0.000 A 
ATOM     26  N   UNK A   0      -5.564  12.841  19.747  0.00  0.00    +0.000 NA
ATOM     27  C   UNK A   0      -4.281  12.842  20.125  0.00  0.00    +0.000 A 
ATOM     28  C   UNK A   0      -3.237  12.200  19.474  0.00  0.00    +0.000 A 
ATOM     29  C   UNK A   0      -1.879  12.214  19.882  0.00  0.00    +0.000 A 
ATOM     30  C   UNK A   0      -0.903  11.543  19.137  0.00  0.00    +0.000 A 
ATOM     31  C   UNK A   0      -1.305  10.870  17.980  0.00  0.00    +0.000 A 
ATOM     32  C   UNK A   0      -2.651  10.854  17.595  0.00  0.00    +0.000 A 
ATOM     33  C   UNK A   0      -3.631  11.510  18.327  0.00  0.00    +0.000 A 
ATOM     34  N   UNK A   0      -4.906  11.472  17.910  0.00  0.00    +0.000 NA
BRANCH  27  35
ATOM     35  O   UNK A   0      -4.063  13.579  21.249  0.00  0.00    +0.000 OA
ATOM     36  H   UNK A   0      -4.965  13.907  21.415  0.00  0.00    +0.000 HD
ENDBRANCH  27  35
ENDBRANCH  23  30
ENDBRANCH  22  23
ENDBRANCH   1  22
TORSDOF 12
ENDMDL
MODEL 8
REMARK VINA RESULT:      -7.7      2.416      3.146
REMARK  Name = 
REMARK  13 active torsions:
REMARK  status: ('A' for Active; 'I' for Inactive)
REMARK    1  A    between atoms: C_1  and  C_2
REMARK    2  A    between atoms: C_4  and  O_5
REMARK    3  A    between atoms: C_8  and  C_9
REMARK    4  A    between atoms: C_9  and  S_10
REMARK    5  A    between atoms: S_10  and  C_11
REMARK    6  A    between atoms: C_14  and  C_15
REMARK    7  A    between atoms: N_17  and  CA_18
REMARK    8  A    between atoms: CA_18  and  CB_19
REMARK    9  A    between atoms: CA_18  and  C_24
REMARK   10  A    between atoms: CB_19  and  CG_20
REMARK   11  A    between atoms: CG_20  and  CD_21
REMARK   12  A    between atoms: CD_21  and  OE2_23
REMARK   13  A    between atoms: C_24  and  OXT_26
REMARK                            x       y       z     vdW  Elec       q    Type
REMARK                         _______ _______ _______ _____ _____    ______ ____
ROOT
ATOM      1  C   UNK A   0       1.028   9.731  19.544  0.00  0.00    +0.000 A 
ATOM      2  C   UNK A   0       1.273   8.691  20.447  0.00  0.00    +0.000 A 
ATOM      3  C   UNK A   0       1.921   7.522  20.026  0.00  0.00    +0.000 A 
ATOM      4  C   UNK A   0       2.329   7.377  18.696  0.00  0.00    +0.000 A 
ATOM      5  C   UNK A   0       2.019   8.383  17.773  0.00  0.00    +0.000 A 
ATOM      6  C   UNK A   0       1.377   9.550  18.199  0.00  0.00    +0.000 A 
ENDROOT
BRANCH   4   7
ATOM      7  C   UNK A   0       3.095   6.155  18.320  0.00  0.00    +0.000 C 
ATOM      8  O   UNK A   0       2.563   5.052  18.350  0.00  0.00    +0.000 OA
ATOM      9  N   GLU A   1       4.419   6.340  17.996  0.00  0.00    +0.000 N 
ATOM     10  H   GLU A   1       4.850   7.250  18.114  0.00  0.00    +0.000 HD
BRANCH   9  11
ATOM     11  CA  GLU A   1       5.319   5.223  17.705  0.00  0.00    +0.000 C 
BRANCH  11  12
ATOM     12  C   GLU A   1       5.785   4.674  19.060  0.00  0.00    +0.000 C 
ATOM     13  O   GLU A   1       6.574   5.268  19.787  0.00  0.00    +0.000 OA
BRANCH  12  14
ATOM     14  OXT GLU A   1       5.220   3.503  19.417  0.00  0.00    +0.000 OA
ATOM     15  HXT GLU A   1       5.298   2.782  18.753  0.00  0.00    +0.000 HD
ENDBRANCH  12  14
ENDBRANCH  11  12
BRANCH  11  16
ATOM     16  CB  GLU A   1       6.520   5.690  16.861  0.00  0.00    +0.000 C 
BRANCH  16  17
ATOM     17  CG  GLU A   1       7.214   4.585  16.074  0.00  0.00    +0.000 C 
BRANCH  17  18
ATOM     18  CD  GLU A   1       7.024   4.798  14.597  0.00  0.00    +0.000 C 
ATOM     19  OE1 GLU A   1       7.721   5.568  13.955  0.00  0.00    +0.000 OA
BRANCH  18  20
ATOM     20  OE2 GLU A   1       6.095   3.996  14.041  0.00  0.00    +0.000 OA
ATOM     21  HE2 GLU A   1       5.410   4.460  13.523  0.00  0.00    +0.000 HD
ENDBRANCH  18  20
ENDBRANCH  17  18
ENDBRANCH  16  17
ENDBRANCH  11  16
ENDBRANCH   9  11
ENDBRANCH   4   7
BRANCH   1  22
ATOM     22  S   UNK A   0       0.237  11.266  20.002  0.00  0.00    +0.000 S 
BRANCH  22  23
ATOM     23  C   UNK A   0      -0.823  11.596  18.552  0.00  0.00    +0.000 C 
BRANCH  23  30
ATOM     24  C   UNK A   0      -7.898  13.689  21.464  0.00  0.00    +0.000 C 
ATOM     25  C   UNK A   0      -6.464  13.410  21.143  0.00  0.00    +0.000 A 
ATOM     26  N   UNK A   0      -5.524  13.894  21.970  0.00  0.00    +0.000 NA
ATOM     27  C   UNK A   0      -4.264  13.617  21.615  0.00  0.00    +0.000 A 
ATOM     28  C   UNK A   0      -3.869  12.896  20.497  0.00  0.00    +0.000 A 
ATOM     29  C   UNK A   0      -2.529  12.615  20.129  0.00  0.00    +0.000 A 
ATOM     30  C   UNK A   0      -2.246  11.891  18.966  0.00  0.00    +0.000 A 
ATOM     31  C   UNK A   0      -3.319  11.464  18.178  0.00  0.00    +0.000 A 
ATOM     32  C   UNK A   0      -4.637  11.738  18.559  0.00  0.00    +0.000 A 
ATOM     33  C   UNK A   0      -4.934  12.450  19.713  0.00  0.00    +0.000 A 
ATOM     34  N   UNK A   0      -6.215  12.695  20.029  0.00  0.00    +0.000 NA
BRANCH  27  35
ATOM     35  O   UNK A   0      -3.346  14.143  22.473  0.00  0.00    +0.000 OA
ATOM     36  H   UNK A   0      -3.607  13.694  23.298  0.00  0.00    +0.000 HD
ENDBRANCH  27  35
ENDBRANCH  23  30
ENDBRANCH  22  23
ENDBRANCH   1  22
TORSDOF 12
ENDMDL
MODEL 9
REMARK VINA RESULT:      -7.7      2.843      4.096
REMARK  Name = 
REMARK  13 active torsions:
REMARK  status: ('A' for Active; 'I' for Inactive)
REMARK    1  A    between atoms: C_1  and  C_2
REMARK    2  A    between atoms: C_4  and  O_5
REMARK    3  A    between atoms: C_8  and  C_9
REMARK    4  A    between atoms: C_9  and  S_10
REMARK    5  A    between atoms: S_10  and  C_11
REMARK    6  A    between atoms: C_14  and  C_15
REMARK    7  A    between atoms: N_17  and  CA_18
REMARK    8  A    between atoms: CA_18  and  CB_19
REMARK    9  A    between atoms: CA_18  and  C_24
REMARK   10  A    between atoms: CB_19  and  CG_20
REMARK   11  A    between atoms: CG_20  and  CD_21
REMARK   12  A    between atoms: CD_21  and  OE2_23
REMARK   13  A    between atoms: C_24  and  OXT_26
REMARK                            x       y       z     vdW  Elec       q    Type
REMARK                         _______ _______ _______ _____ _____    ______ ____
ROOT
ATOM      1  C   UNK A   0       1.194   9.772  19.059  0.00  0.00    +0.000 A 
ATOM      2  C   UNK A   0       1.824   9.325  17.893  0.00  0.00    +0.000 A 
ATOM      3  C   UNK A   0       2.399   8.048  17.840  0.00  0.00    +0.000 A 
ATOM      4  C   UNK A   0       2.354   7.203  18.954  0.00  0.00    +0.000 A 
ATOM      5  C   UNK A   0       1.791   7.675  20.146  0.00  0.00    +0.000 A 
ATOM      6  C   UNK A   0       1.213   8.948  20.191  0.00  0.00    +0.000 A 
ENDROOT
BRANCH   4   7
ATOM      7  C   UNK A   0       2.898   5.823  18.817  0.00  0.00    +0.000 C 
ATOM      8  O   UNK A   0       3.715   5.392  19.622  0.00  0.00    +0.000 OA
ATOM      9  N   GLU A   1       2.469   5.103  17.726  0.00  0.00    +0.000 N 
ATOM     10  H   GLU A   1       1.897   5.546  17.016  0.00  0.00    +0.000 HD
BRANCH   9  11
ATOM     11  CA  GLU A   1       2.993   3.774  17.407  0.00  0.00    +0.000 C 
BRANCH  11  12
ATOM     12  C   GLU A   1       2.069   2.764  18.100  0.00  0.00    +0.000 C 
ATOM     13  O   GLU A   1       0.875   2.968  18.288  0.00  0.00    +0.000 OA
BRANCH  12  14
ATOM     14  OXT GLU A   1       2.663   1.604  18.448  0.00  0.00    +0.000 OA
ATOM     15  HXT GLU A   1       2.408   0.825  17.904  0.00  0.00    +0.000 HD
ENDBRANCH  12  14
ENDBRANCH  11  12
BRANCH  11  16
ATOM     16  CB  GLU A   1       4.443   3.620  17.901  0.00  0.00    +0.000 C 
BRANCH  16  17
ATOM     17  CG  GLU A   1       5.507   4.070  16.906  0.00  0.00    +0.000 C 
BRANCH  17  18
ATOM     18  CD  GLU A   1       6.762   4.472  17.631  0.00  0.00    +0.000 C 
ATOM     19  OE1 GLU A   1       7.809   4.697  17.044  0.00  0.00    +0.000 OA
BRANCH  18  20
ATOM     20  OE2 GLU A   1       6.597   4.656  18.955  0.00  0.00    +0.000 OA
ATOM     21  HE2 GLU A   1       5.970   5.364  19.196  0.00  0.00    +0.000 HD
ENDBRANCH  18  20
ENDBRANCH  17  18
ENDBRANCH  16  17
ENDBRANCH  11  16
ENDBRANCH   9  11
ENDBRANCH   4   7
BRANCH   1  22
ATOM     22  S   UNK A   0       0.409  11.370  19.203  0.00  0.00    +0.000 S 
BRANCH  22  23
ATOM     23  C   UNK A   0       0.480  11.670  21.003  0.00  0.00    +0.000 C 
BRANCH  23  30
ATOM     24  C   UNK A   0      -7.038  13.142  23.056  0.00  0.00    +0.000 C 
ATOM     25  C   UNK A   0      -5.698  12.947  22.419  0.00  0.00    +0.000 A 
ATOM     26  N   UNK A   0      -5.591  13.147  21.096  0.00  0.00    +0.000 NA
ATOM     27  C   UNK A   0      -4.368  12.944  20.592  0.00  0.00    +0.000 A 
ATOM     28  C   UNK A   0      -3.245  12.553  21.307  0.00  0.00    +0.000 A 
ATOM     29  C   UNK A   0      -1.955  12.334  20.759  0.00  0.00    +0.000 A 
ATOM     30  C   UNK A   0      -0.895  11.922  21.574  0.00  0.00    +0.000 A 
ATOM     31  C   UNK A   0      -1.147  11.726  22.935  0.00  0.00    +0.000 A 
ATOM     32  C   UNK A   0      -2.422  11.958  23.464  0.00  0.00    +0.000 A 
ATOM     33  C   UNK A   0      -3.483  12.372  22.670  0.00  0.00    +0.000 A 
ATOM     34  N   UNK A   0      -4.688  12.570  23.225  0.00  0.00    +0.000 NA
BRANCH  27  35
ATOM     35  O   UNK A   0      -4.313  13.141  19.245  0.00  0.00    +0.000 OA
ATOM     36  H   UNK A   0      -5.197  13.523  19.093  0.00  0.00    +0.000 HD
ENDBRANCH  27  35
ENDBRANCH  23  30
ENDBRANCH  22  23
ENDBRANCH   1  22
TORSDOF 12
ENDMDL
