MODEL 1
REMARK VINA RESULT:      -6.9      0.000      0.000
REMARK  Name = 
REMARK  8 active torsions:
REMARK  status: ('A' for Active; 'I' for Inactive)
REMARK    1  A    between atoms: C_1  and  C_2
REMARK    2  A    between atoms: C_2  and  C_3
REMARK    3  A    between atoms: C_3  and  S_4
REMARK    4  A    between atoms: S_4  and  C_7
REMARK    5  A    between atoms: C_7  and  C_8
REMARK    6  A    between atoms: N_10  and  C_11
REMARK    7  A    between atoms: C_14  and  C_15
REMARK    8  A    between atoms: C_17  and  C_18
REMARK                            x       y       z     vdW  Elec       q    Type
REMARK                         _______ _______ _______ _____ _____    ______ ____
ROOT
ATOM      1  C   UNL     1       1.969   6.993  20.115  0.00  0.00    +0.000 A 
ATOM      2  C   UNL     1       2.577   7.101  18.864  0.00  0.00    +0.000 A 
ATOM      3  C   UNL     1       2.746   5.989  18.039  0.00  0.00    +0.000 A 
ATOM      4  C   UNL     1       2.340   4.724  18.457  0.00  0.00    +0.000 A 
ATOM      5  C   UNL     1       1.791   4.565  19.742  0.00  0.00    +0.000 A 
ATOM      6  C   UNL     1       1.625   5.711  20.568  0.00  0.00    +0.000 A 
ENDROOT
BRANCH   1   9
ATOM      7  C   UNL     1       1.067   9.292  20.426  0.00  0.00    +0.000 C 
ATOM      8  O   UNL     1       0.819   9.476  19.239  0.00  0.00    +0.000 OA
ATOM      9  N   UNL     1       1.655   8.125  20.921  0.00  0.00    +0.000 N 
ATOM     10  H   UNL     1       1.711   8.000  21.924  0.00  0.00    +0.000 HD
BRANCH   7  11
ATOM     11  C   UNL     1       0.779  10.369  21.445  0.00  0.00    +0.000 C 
BRANCH  11  12
ATOM     12  S   UNL     1      -0.138   9.618  22.788  0.00  0.00    +0.000 S 
ATOM     13  O   UNL     1       0.769   9.509  23.917  0.00  0.00    +0.000 OA
ATOM     14  O   UNL     1      -0.884   8.476  22.294  0.00  0.00    +0.000 OA
BRANCH  12  15
ATOM     15  C   UNL     1      -1.379  10.824  23.241  0.00  0.00    +0.000 C 
BRANCH  15  17
ATOM     16  C   UNL     1      -2.301  13.102  22.593  0.00  0.00    +0.000 C 
ATOM     17  C   UNL     1      -1.392  11.951  22.205  0.00  0.00    +0.000 C 
ENDBRANCH  15  17
ENDBRANCH  12  15
ENDBRANCH  11  12
ENDBRANCH   7  11
ENDBRANCH   1   9
BRANCH   5  18
ATOM     18  C   UNL     1       1.356   3.222  20.281  0.00  0.00    +0.000 C 
ATOM     19  F   UNL     1       0.302   2.652  19.647  0.00  0.00    +0.000 F 
ATOM     20  F   UNL     1       2.362   2.307  20.224  0.00  0.00    +0.000 F 
ATOM     21  F   UNL     1       0.999   3.297  21.594  0.00  0.00    +0.000 F 
ENDBRANCH   5  18
BRANCH   4  22
ATOM     22  C   UNL     1       2.500   3.644  17.522  0.00  0.00    +0.000 C 
ATOM     23  N   UNL     1       2.636   2.804  16.736  0.00  0.00    +0.000 NA
ENDBRANCH   4  22
TORSDOF 7
ENDMDL
MODEL 2
REMARK VINA RESULT:      -6.7      5.294      8.585
REMARK  Name = 
REMARK  8 active torsions:
REMARK  status: ('A' for Active; 'I' for Inactive)
REMARK    1  A    between atoms: C_1  and  C_2
REMARK    2  A    between atoms: C_2  and  C_3
REMARK    3  A    between atoms: C_3  and  S_4
REMARK    4  A    between atoms: S_4  and  C_7
REMARK    5  A    between atoms: C_7  and  C_8
REMARK    6  A    between atoms: N_10  and  C_11
REMARK    7  A    between atoms: C_14  and  C_15
REMARK    8  A    between atoms: C_17  and  C_18
REMARK                            x       y       z     vdW  Elec       q    Type
REMARK                         _______ _______ _______ _____ _____    ______ ____
ROOT
ATOM      1  C   UNL     1       3.487   6.166  18.568  0.00  0.00    +0.000 A 
ATOM      2  C   UNL     1       3.116   5.739  19.844  0.00  0.00    +0.000 A 
ATOM      3  C   UNL     1       2.213   6.465  20.620  0.00  0.00    +0.000 A 
ATOM      4  C   UNL     1       1.675   7.664  20.153  0.00  0.00    +0.000 A 
ATOM      5  C   UNL     1       2.083   8.162  18.902  0.00  0.00    +0.000 A 
ATOM      6  C   UNL     1       3.005   7.406  18.126  0.00  0.00    +0.000 A 
ENDROOT
BRANCH   1   9
ATOM      7  C   UNL     1       5.691   5.359  17.742  0.00  0.00    +0.000 C 
ATOM      8  O   UNL     1       6.357   6.060  18.496  0.00  0.00    +0.000 OA
ATOM      9  N   UNL     1       4.296   5.380  17.697  0.00  0.00    +0.000 N 
ATOM     10  H   UNL     1       3.818   4.682  17.138  0.00  0.00    +0.000 HD
BRANCH   7  11
ATOM     11  C   UNL     1       6.369   4.433  16.759  0.00  0.00    +0.000 C 
BRANCH  11  12
ATOM     12  S   UNL     1       6.333   5.222  15.152  0.00  0.00    +0.000 S 
ATOM     13  O   UNL     1       7.704   5.294  14.679  0.00  0.00    +0.000 OA
ATOM     14  O   UNL     1       5.479   6.394  15.200  0.00  0.00    +0.000 OA
BRANCH  12  15
ATOM     15  C   UNL     1       5.481   4.069  14.082  0.00  0.00    +0.000 C 
BRANCH  15  17
ATOM     16  C   UNL     1       5.667   2.880  11.844  0.00  0.00    +0.000 C 
ATOM     17  C   UNL     1       6.358   3.764  12.865  0.00  0.00    +0.000 C 
ENDBRANCH  15  17
ENDBRANCH  12  15
ENDBRANCH  11  12
ENDBRANCH   7  11
ENDBRANCH   1   9
BRANCH   5  18
ATOM     18  C   UNL     1       1.572   9.468  18.340  0.00  0.00    +0.000 C 
ATOM     19  F   UNL     1       1.480  10.488  19.228  0.00  0.00    +0.000 F 
ATOM     20  F   UNL     1       2.363   9.924  17.330  0.00  0.00    +0.000 F 
ATOM     21  F   UNL     1       0.328   9.333  17.803  0.00  0.00    +0.000 F 
ENDBRANCH   5  18
BRANCH   4  22
ATOM     22  C   UNL     1       0.709   8.317  20.992  0.00  0.00    +0.000 C 
ATOM     23  N   UNL     1      -0.039   8.844  21.701  0.00  0.00    +0.000 NA
ENDBRANCH   4  22
TORSDOF 7
ENDMDL
MODEL 3
REMARK VINA RESULT:      -6.7      4.907      8.262
REMARK  Name = 
REMARK  8 active torsions:
REMARK  status: ('A' for Active; 'I' for Inactive)
REMARK    1  A    between atoms: C_1  and  C_2
REMARK    2  A    between atoms: C_2  and  C_3
REMARK    3  A    between atoms: C_3  and  S_4
REMARK    4  A    between atoms: S_4  and  C_7
REMARK    5  A    between atoms: C_7  and  C_8
REMARK    6  A    between atoms: N_10  and  C_11
REMARK    7  A    between atoms: C_14  and  C_15
REMARK    8  A    between atoms: C_17  and  C_18
REMARK                            x       y       z     vdW  Elec       q    Type
REMARK                         _______ _______ _______ _____ _____    ______ ____
ROOT
ATOM      1  C   UNL     1       3.841   5.535  17.486  0.00  0.00    +0.000 A 
ATOM      2  C   UNL     1       3.663   6.920  17.491  0.00  0.00    +0.000 A 
ATOM      3  C   UNL     1       2.936   7.556  18.497  0.00  0.00    +0.000 A 
ATOM      4  C   UNL     1       2.335   6.820  19.516  0.00  0.00    +0.000 A 
ATOM      5  C   UNL     1       2.432   5.416  19.503  0.00  0.00    +0.000 A 
ATOM      6  C   UNL     1       3.178   4.786  18.468  0.00  0.00    +0.000 A 
ENDROOT
BRANCH   1   9
ATOM      7  C   UNL     1       6.057   4.669  16.758  0.00  0.00    +0.000 C 
ATOM      8  O   UNL     1       6.671   5.098  17.730  0.00  0.00    +0.000 OA
ATOM      9  N   UNL     1       4.690   4.871  16.556  0.00  0.00    +0.000 N 
ATOM     10  H   UNL     1       4.236   4.379  15.796  0.00  0.00    +0.000 HD
BRANCH   7  11
ATOM     11  C   UNL     1       6.781   3.910  15.670  0.00  0.00    +0.000 C 
BRANCH  11  12
ATOM     12  S   UNL     1       6.852   4.964  14.224  0.00  0.00    +0.000 S 
ATOM     13  O   UNL     1       8.226   5.413  14.089  0.00  0.00    +0.000 OA
ATOM     14  O   UNL     1       5.742   5.897  14.242  0.00  0.00    +0.000 OA
BRANCH  12  15
ATOM     15  C   UNL     1       6.527   3.881  12.838  0.00  0.00    +0.000 C 
BRANCH  15  17
ATOM     16  C   UNL     1       4.468   3.321  11.457  0.00  0.00    +0.000 C 
ATOM     17  C   UNL     1       5.052   3.473  12.849  0.00  0.00    +0.000 C 
ENDBRANCH  15  17
ENDBRANCH  12  15
ENDBRANCH  11  12
ENDBRANCH   7  11
ENDBRANCH   1   9
BRANCH   5  18
ATOM     18  C   UNL     1       1.782   4.546  20.552  0.00  0.00    +0.000 C 
ATOM     19  F   UNL     1       0.439   4.687  20.678  0.00  0.00    +0.000 F 
ATOM     20  F   UNL     1       1.995   3.223  20.311  0.00  0.00    +0.000 F 
ATOM     21  F   UNL     1       2.295   4.781  21.792  0.00  0.00    +0.000 F 
ENDBRANCH   5  18
BRANCH   4  22
ATOM     22  C   UNL     1       1.655   7.560  20.543  0.00  0.00    +0.000 C 
ATOM     23  N   UNL     1       1.146   8.164  21.390  0.00  0.00    +0.000 NA
ENDBRANCH   4  22
TORSDOF 7
ENDMDL
MODEL 4
REMARK VINA RESULT:      -6.7      4.895      8.318
REMARK  Name = 
REMARK  8 active torsions:
REMARK  status: ('A' for Active; 'I' for Inactive)
REMARK    1  A    between atoms: C_1  and  C_2
REMARK    2  A    between atoms: C_2  and  C_3
REMARK    3  A    between atoms: C_3  and  S_4
REMARK    4  A    between atoms: S_4  and  C_7
REMARK    5  A    between atoms: C_7  and  C_8
REMARK    6  A    between atoms: N_10  and  C_11
REMARK    7  A    between atoms: C_14  and  C_15
REMARK    8  A    between atoms: C_17  and  C_18
REMARK                            x       y       z     vdW  Elec       q    Type
REMARK                         _______ _______ _______ _____ _____    ______ ____
ROOT
ATOM      1  C   UNL     1       3.941   5.561  17.749  0.00  0.00    +0.000 A 
ATOM      2  C   UNL     1       3.601   6.915  17.746  0.00  0.00    +0.000 A 
ATOM      3  C   UNL     1       2.765   7.457  18.723  0.00  0.00    +0.000 A 
ATOM      4  C   UNL     1       2.216   6.651  19.718  0.00  0.00    +0.000 A 
ATOM      5  C   UNL     1       2.478   5.269  19.709  0.00  0.00    +0.000 A 
ATOM      6  C   UNL     1       3.333   4.735  18.705  0.00  0.00    +0.000 A 
ENDROOT
BRANCH   1   9
ATOM      7  C   UNL     1       6.269   4.952  17.116  0.00  0.00    +0.000 C 
ATOM      8  O   UNL     1       6.788   5.433  18.117  0.00  0.00    +0.000 OA
ATOM      9  N   UNL     1       4.898   5.005  16.853  0.00  0.00    +0.000 N 
ATOM     10  H   UNL     1       4.534   4.475  16.070  0.00  0.00    +0.000 HD
BRANCH   7  11
ATOM     11  C   UNL     1       7.119   4.290  16.056  0.00  0.00    +0.000 C 
BRANCH  11  12
ATOM     12  S   UNL     1       6.737   5.065  14.487  0.00  0.00    +0.000 S 
ATOM     13  O   UNL     1       7.987   5.202  13.762  0.00  0.00    +0.000 OA
ATOM     14  O   UNL     1       5.849   6.192  14.701  0.00  0.00    +0.000 OA
BRANCH  12  15
ATOM     15  C   UNL     1       5.756   3.862  13.597  0.00  0.00    +0.000 C 
BRANCH  15  17
ATOM     16  C   UNL     1       5.774   2.371  11.539  0.00  0.00    +0.000 C 
ATOM     17  C   UNL     1       6.485   3.467  12.310  0.00  0.00    +0.000 C 
ENDBRANCH  15  17
ENDBRANCH  12  15
ENDBRANCH  11  12
ENDBRANCH   7  11
ENDBRANCH   1   9
BRANCH   5  18
ATOM     18  C   UNL     1       1.895   4.324  20.733  0.00  0.00    +0.000 C 
ATOM     19  F   UNL     1       2.159   3.009  20.531  0.00  0.00    +0.000 F 
ATOM     20  F   UNL     1       2.342   4.604  21.988  0.00  0.00    +0.000 F 
ATOM     21  F   UNL     1       0.537   4.421  20.795  0.00  0.00    +0.000 F 
ENDBRANCH   5  18
BRANCH   4  22
ATOM     22  C   UNL     1       1.413   7.302  20.717  0.00  0.00    +0.000 C 
ATOM     23  N   UNL     1       0.784   7.865  21.509  0.00  0.00    +0.000 NA
ENDBRANCH   4  22
TORSDOF 7
ENDMDL
MODEL 5
REMARK VINA RESULT:      -6.6      4.408      7.345
REMARK  Name = 
REMARK  8 active torsions:
REMARK  status: ('A' for Active; 'I' for Inactive)
REMARK    1  A    between atoms: C_1  and  C_2
REMARK    2  A    between atoms: C_2  and  C_3
REMARK    3  A    between atoms: C_3  and  S_4
REMARK    4  A    between atoms: S_4  and  C_7
REMARK    5  A    between atoms: C_7  and  C_8
REMARK    6  A    between atoms: N_10  and  C_11
REMARK    7  A    between atoms: C_14  and  C_15
REMARK    8  A    between atoms: C_17  and  C_18
REMARK                            x       y       z     vdW  Elec       q    Type
REMARK                         _______ _______ _______ _____ _____    ______ ____
ROOT
ATOM      1  C   UNL     1       2.300   6.761  19.867  0.00  0.00    +0.000 A 
ATOM      2  C   UNL     1       2.511   7.274  18.586  0.00  0.00    +0.000 A 
ATOM      3  C   UNL     1       2.080   8.554  18.236  0.00  0.00    +0.000 A 
ATOM      4  C   UNL     1       1.393   9.350  19.150  0.00  0.00    +0.000 A 
ATOM      5  C   UNL     1       1.098   8.837  20.426  0.00  0.00    +0.000 A 
ATOM      6  C   UNL     1       1.546   7.530  20.765  0.00  0.00    +0.000 A 
ENDROOT
BRANCH   1   9
ATOM      7  C   UNL     1       2.190   4.293  20.165  0.00  0.00    +0.000 C 
ATOM      8  O   UNL     1       1.055   4.176  19.716  0.00  0.00    +0.000 OA
ATOM      9  N   UNL     1       2.846   5.518  20.299  0.00  0.00    +0.000 N 
ATOM     10  H   UNL     1       3.825   5.517  20.558  0.00  0.00    +0.000 HD
BRANCH   7  11
ATOM     11  C   UNL     1       2.950   3.081  20.651  0.00  0.00    +0.000 C 
BRANCH  11  12
ATOM     12  S   UNL     1       4.387   2.880  19.601  0.00  0.00    +0.000 S 
ATOM     13  O   UNL     1       4.979   1.595  19.926  0.00  0.00    +0.000 OA
ATOM     14  O   UNL     1       5.168   4.103  19.600  0.00  0.00    +0.000 OA
BRANCH  12  15
ATOM     15  C   UNL     1       3.738   2.741  17.939  0.00  0.00    +0.000 C 
BRANCH  15  17
ATOM     16  C   UNL     1       5.185   3.870  16.181  0.00  0.00    +0.000 C 
ATOM     17  C   UNL     1       4.043   4.027  17.167  0.00  0.00    +0.000 C 
ENDBRANCH  15  17
ENDBRANCH  12  15
ENDBRANCH  11  12
ENDBRANCH   7  11
ENDBRANCH   1   9
BRANCH   5  18
ATOM     18  C   UNL     1       0.330   9.624  21.462  0.00  0.00    +0.000 C 
ATOM     19  F   UNL     1       0.909  10.782  21.863  0.00  0.00    +0.000 F 
ATOM     20  F   UNL     1      -0.911   9.963  21.018  0.00  0.00    +0.000 F 
ATOM     21  F   UNL     1       0.129   8.900  22.599  0.00  0.00    +0.000 F 
ENDBRANCH   5  18
BRANCH   4  22
ATOM     22  C   UNL     1       1.037  10.676  18.725  0.00  0.00    +0.000 C 
ATOM     23  N   UNL     1       0.742  11.754  18.425  0.00  0.00    +0.000 NA
ENDBRANCH   4  22
TORSDOF 7
ENDMDL
MODEL 6
REMARK VINA RESULT:      -6.5      1.231      1.628
REMARK  Name = 
REMARK  8 active torsions:
REMARK  status: ('A' for Active; 'I' for Inactive)
REMARK    1  A    between atoms: C_1  and  C_2
REMARK    2  A    between atoms: C_2  and  C_3
REMARK    3  A    between atoms: C_3  and  S_4
REMARK    4  A    between atoms: S_4  and  C_7
REMARK    5  A    between atoms: C_7  and  C_8
REMARK    6  A    between atoms: N_10  and  C_11
REMARK    7  A    between atoms: C_14  and  C_15
REMARK    8  A    between atoms: C_17  and  C_18
REMARK                            x       y       z     vdW  Elec       q    Type
REMARK                         _______ _______ _______ _____ _____    ______ ____
ROOT
ATOM      1  C   UNL     1       1.871   7.183  20.376  0.00  0.00    +0.000 A 
ATOM      2  C   UNL     1       2.329   7.358  19.069  0.00  0.00    +0.000 A 
ATOM      3  C   UNL     1       2.476   6.278  18.199  0.00  0.00    +0.000 A 
ATOM      4  C   UNL     1       2.200   4.979  18.622  0.00  0.00    +0.000 A 
ATOM      5  C   UNL     1       1.807   4.757  19.955  0.00  0.00    +0.000 A 
ATOM      6  C   UNL     1       1.661   5.872  20.827  0.00  0.00    +0.000 A 
ENDROOT
BRANCH   1   9
ATOM      7  C   UNL     1       0.300   8.553  21.736  0.00  0.00    +0.000 C 
ATOM      8  O   UNL     1      -0.702   7.920  21.422  0.00  0.00    +0.000 OA
ATOM      9  N   UNL     1       1.577   8.274  21.243  0.00  0.00    +0.000 N 
ATOM     10  H   UNL     1       2.369   8.760  21.647  0.00  0.00    +0.000 HD
BRANCH   7  11
ATOM     11  C   UNL     1       0.198   9.734  22.672  0.00  0.00    +0.000 C 
BRANCH  11  12
ATOM     12  S   UNL     1      -0.039  11.203  21.674  0.00  0.00    +0.000 S 
ATOM     13  O   UNL     1      -0.966  10.854  20.613  0.00  0.00    +0.000 OA
ATOM     14  O   UNL     1       1.245  11.817  21.395  0.00  0.00    +0.000 OA
BRANCH  12  15
ATOM     15  C   UNL     1      -0.888  12.362  22.739  0.00  0.00    +0.000 C 
BRANCH  15  17
ATOM     16  C   UNL     1      -3.420  12.573  22.664  0.00  0.00    +0.000 C 
ATOM     17  C   UNL     1      -2.234  11.769  23.163  0.00  0.00    +0.000 C 
ENDBRANCH  15  17
ENDBRANCH  12  15
ENDBRANCH  11  12
ENDBRANCH   7  11
ENDBRANCH   1   9
BRANCH   5  18
ATOM     18  C   UNL     1       1.520   3.377  20.499  0.00  0.00    +0.000 C 
ATOM     19  F   UNL     1       0.463   2.737  19.941  0.00  0.00    +0.000 F 
ATOM     20  F   UNL     1       2.585   2.543  20.341  0.00  0.00    +0.000 F 
ATOM     21  F   UNL     1       1.270   3.405  21.838  0.00  0.00    +0.000 F 
ENDBRANCH   5  18
BRANCH   4  22
ATOM     22  C   UNL     1       2.323   3.933  17.645  0.00  0.00    +0.000 C 
ATOM     23  N   UNL     1       2.465   3.101  16.851  0.00  0.00    +0.000 NA
ENDBRANCH   4  22
TORSDOF 7
ENDMDL
MODEL 7
REMARK VINA RESULT:      -6.5      5.234      8.440
REMARK  Name = 
REMARK  8 active torsions:
REMARK  status: ('A' for Active; 'I' for Inactive)
REMARK    1  A    between atoms: C_1  and  C_2
REMARK    2  A    between atoms: C_2  and  C_3
REMARK    3  A    between atoms: C_3  and  S_4
REMARK    4  A    between atoms: S_4  and  C_7
REMARK    5  A    between atoms: C_7  and  C_8
REMARK    6  A    between atoms: N_10  and  C_11
REMARK    7  A    between atoms: C_14  and  C_15
REMARK    8  A    between atoms: C_17  and  C_18
REMARK                            x       y       z     vdW  Elec       q    Type
REMARK                         _______ _______ _______ _____ _____    ______ ____
ROOT
ATOM      1  C   UNL     1       2.902   6.499  18.635  0.00  0.00    +0.000 A 
ATOM      2  C   UNL     1       2.524   6.004  19.884  0.00  0.00    +0.000 A 
ATOM      3  C   UNL     1       1.697   6.735  20.737  0.00  0.00    +0.000 A 
ATOM      4  C   UNL     1       1.246   8.004  20.378  0.00  0.00    +0.000 A 
ATOM      5  C   UNL     1       1.667   8.565  19.158  0.00  0.00    +0.000 A 
ATOM      6  C   UNL     1       2.510   7.803  18.302  0.00  0.00    +0.000 A 
ENDROOT
BRANCH   1   9
ATOM      7  C   UNL     1       4.779   4.996  17.996  0.00  0.00    +0.000 C 
ATOM      8  O   UNL     1       5.308   5.001  19.102  0.00  0.00    +0.000 OA
ATOM      9  N   UNL     1       3.628   5.724  17.686  0.00  0.00    +0.000 N 
ATOM     10  H   UNL     1       3.182   5.568  16.790  0.00  0.00    +0.000 HD
BRANCH   7  11
ATOM     11  C   UNL     1       5.386   4.206  16.859  0.00  0.00    +0.000 C 
BRANCH  11  12
ATOM     12  S   UNL     1       6.731   5.175  16.180  0.00  0.00    +0.000 S 
ATOM     13  O   UNL     1       7.960   4.455  16.458  0.00  0.00    +0.000 OA
ATOM     14  O   UNL     1       6.564   6.569  16.544  0.00  0.00    +0.000 OA
BRANCH  12  15
ATOM     15  C   UNL     1       6.496   5.126  14.407  0.00  0.00    +0.000 C 
BRANCH  15  17
ATOM     16  C   UNL     1       6.182   3.452  12.521  0.00  0.00    +0.000 C 
ATOM     17  C   UNL     1       6.002   3.736  14.000  0.00  0.00    +0.000 C 
ENDBRANCH  15  17
ENDBRANCH  12  15
ENDBRANCH  11  12
ENDBRANCH   7  11
ENDBRANCH   1   9
BRANCH   5  18
ATOM     18  C   UNL     1       1.250   9.947  18.712  0.00  0.00    +0.000 C 
ATOM     19  F   UNL     1      -0.054  10.079  18.365  0.00  0.00    +0.000 F 
ATOM     20  F   UNL     1       1.473  10.877  19.680  0.00  0.00    +0.000 F 
ATOM     21  F   UNL     1       1.963  10.364  17.628  0.00  0.00    +0.000 F 
ENDBRANCH   5  18
BRANCH   4  22
ATOM     22  C   UNL     1       0.352   8.662  21.289  0.00  0.00    +0.000 C 
ATOM     23  N   UNL     1      -0.401   9.190  21.993  0.00  0.00    +0.000 NA
ENDBRANCH   4  22
TORSDOF 7
ENDMDL
MODEL 8
REMARK VINA RESULT:      -6.5      2.107      2.622
REMARK  Name = 
REMARK  8 active torsions:
REMARK  status: ('A' for Active; 'I' for Inactive)
REMARK    1  A    between atoms: C_1  and  C_2
REMARK    2  A    between atoms: C_2  and  C_3
REMARK    3  A    between atoms: C_3  and  S_4
REMARK    4  A    between atoms: S_4  and  C_7
REMARK    5  A    between atoms: C_7  and  C_8
REMARK    6  A    between atoms: N_10  and  C_11
REMARK    7  A    between atoms: C_14  and  C_15
REMARK    8  A    between atoms: C_17  and  C_18
REMARK                            x       y       z     vdW  Elec       q    Type
REMARK                         _______ _______ _______ _____ _____    ______ ____
ROOT
ATOM      1  C   UNL     1       1.977   6.569  20.329  0.00  0.00    +0.000 A 
ATOM      2  C   UNL     1       1.258   5.397  20.570  0.00  0.00    +0.000 A 
ATOM      3  C   UNL     1       1.587   4.199  19.936  0.00  0.00    +0.000 A 
ATOM      4  C   UNL     1       2.629   4.144  19.012  0.00  0.00    +0.000 A 
ATOM      5  C   UNL     1       3.327   5.323  18.690  0.00  0.00    +0.000 A 
ATOM      6  C   UNL     1       2.977   6.534  19.348  0.00  0.00    +0.000 A 
ENDROOT
BRANCH   1   9
ATOM      7  C   UNL     1       1.210   8.930  20.505  0.00  0.00    +0.000 C 
ATOM      8  O   UNL     1       0.920   9.043  19.319  0.00  0.00    +0.000 OA
ATOM      9  N   UNL     1       1.757   7.771  21.061  0.00  0.00    +0.000 N 
ATOM     10  H   UNL     1       1.850   7.715  22.068  0.00  0.00    +0.000 HD
BRANCH   7  11
ATOM     11  C   UNL     1       1.022  10.092  21.453  0.00  0.00    +0.000 C 
BRANCH  11  12
ATOM     12  S   UNL     1      -0.054   9.547  22.777  0.00  0.00    +0.000 S 
ATOM     13  O   UNL     1       0.750   9.483  23.983  0.00  0.00    +0.000 OA
ATOM     14  O   UNL     1      -0.851   8.420  22.329  0.00  0.00    +0.000 OA
BRANCH  12  15
ATOM     15  C   UNL     1      -1.224  10.880  23.009  0.00  0.00    +0.000 C 
BRANCH  15  17
ATOM     16  C   UNL     1      -1.889  12.435  21.112  0.00  0.00    +0.000 C 
ATOM     17  C   UNL     1      -0.824  12.065  22.127  0.00  0.00    +0.000 C 
ENDBRANCH  15  17
ENDBRANCH  12  15
ENDBRANCH  11  12
ENDBRANCH   7  11
ENDBRANCH   1   9
BRANCH   5  18
ATOM     18  C   UNL     1       4.447   5.353  17.676  0.00  0.00    +0.000 C 
ATOM     19  F   UNL     1       4.164   4.788  16.477  0.00  0.00    +0.000 F 
ATOM     20  F   UNL     1       4.843   6.627  17.402  0.00  0.00    +0.000 F 
ATOM     21  F   UNL     1       5.559   4.712  18.133  0.00  0.00    +0.000 F 
ENDBRANCH   5  18
BRANCH   4  22
ATOM     22  C   UNL     1       2.937   2.859  18.449  0.00  0.00    +0.000 C 
ATOM     23  N   UNL     1       3.196   1.808  18.037  0.00  0.00    +0.000 NA
ENDBRANCH   4  22
TORSDOF 7
ENDMDL
MODEL 9
REMARK VINA RESULT:      -6.5      1.264      1.370
REMARK  Name = 
REMARK  8 active torsions:
REMARK  status: ('A' for Active; 'I' for Inactive)
REMARK    1  A    between atoms: C_1  and  C_2
REMARK    2  A    between atoms: C_2  and  C_3
REMARK    3  A    between atoms: C_3  and  S_4
REMARK    4  A    between atoms: S_4  and  C_7
REMARK    5  A    between atoms: C_7  and  C_8
REMARK    6  A    between atoms: N_10  and  C_11
REMARK    7  A    between atoms: C_14  and  C_15
REMARK    8  A    between atoms: C_17  and  C_18
REMARK                            x       y       z     vdW  Elec       q    Type
REMARK                         _______ _______ _______ _____ _____    ______ ____
ROOT
ATOM      1  C   UNL     1       2.278   6.651  19.593  0.00  0.00    +0.000 A 
ATOM      2  C   UNL     1       2.796   6.391  18.324  0.00  0.00    +0.000 A 
ATOM      3  C   UNL     1       3.116   5.094  17.921  0.00  0.00    +0.000 A 
ATOM      4  C   UNL     1       2.958   4.018  18.792  0.00  0.00    +0.000 A 
ATOM      5  C   UNL     1       2.507   4.253  20.104  0.00  0.00    +0.000 A 
ATOM      6  C   UNL     1       2.185   5.582  20.495  0.00  0.00    +0.000 A 
ENDROOT
BRANCH   1   9
ATOM      7  C   UNL     1       1.491   8.957  19.086  0.00  0.00    +0.000 C 
ATOM      8  O   UNL     1       1.636   8.860  17.872  0.00  0.00    +0.000 OA
ATOM      9  N   UNL     1       1.812   7.939  19.986  0.00  0.00    +0.000 N 
ATOM     10  H   UNL     1       1.545   8.049  20.957  0.00  0.00    +0.000 HD
BRANCH   7  11
ATOM     11  C   UNL     1       0.978  10.240  19.696  0.00  0.00    +0.000 C 
BRANCH  11  12
ATOM     12  S   UNL     1       0.436   9.873  21.363  0.00  0.00    +0.000 S 
ATOM     13  O   UNL     1       1.624   9.797  22.193  0.00  0.00    +0.000 OA
ATOM     14  O   UNL     1      -0.547   8.806  21.335  0.00  0.00    +0.000 OA
BRANCH  12  15
ATOM     15  C   UNL     1      -0.468  11.324  21.893  0.00  0.00    +0.000 C 
BRANCH  15  17
ATOM     16  C   UNL     1      -2.485  11.915  23.321  0.00  0.00    +0.000 C 
ATOM     17  C   UNL     1      -1.310  10.975  23.122  0.00  0.00    +0.000 C 
ENDBRANCH  15  17
ENDBRANCH  12  15
ENDBRANCH  11  12
ENDBRANCH   7  11
ENDBRANCH   1   9
BRANCH   5  18
ATOM     18  C   UNL     1       2.340   3.145  21.117  0.00  0.00    +0.000 C 
ATOM     19  F   UNL     1       1.348   2.259  20.854  0.00  0.00    +0.000 F 
ATOM     20  F   UNL     1       3.475   2.404  21.245  0.00  0.00    +0.000 F 
ATOM     21  F   UNL     1       2.077   3.634  22.361  0.00  0.00    +0.000 F 
ENDBRANCH   5  18
BRANCH   4  22
ATOM     22  C   UNL     1       3.257   2.710  18.276  0.00  0.00    +0.000 C 
ATOM     23  N   UNL     1       3.535   1.673  17.843  0.00  0.00    +0.000 NA
ENDBRANCH   4  22
TORSDOF 7
ENDMDL
