MODEL 1
REMARK VINA RESULT:      -6.4      0.000      0.000
REMARK  Name = 
REMARK  9 active torsions:
REMARK  status: ('A' for Active; 'I' for Inactive)
REMARK    1  A    between atoms: C_1  and  C_2
REMARK    2  A    between atoms: C_2  and  O_3
REMARK    3  A    between atoms: O_3  and  C_4
REMARK    4  A    between atoms: C_4  and  C_6
REMARK    5  A    between atoms: C_6  and  C_7
REMARK    6  A    between atoms: C_11  and  C_12
REMARK    7  A    between atoms: C_16  and  C_17
REMARK    8  A    between atoms: N_26  and  C_27
REMARK    9  A    between atoms: C_30  and  C_31
REMARK                            x       y       z     vdW  Elec       q    Type
REMARK                         _______ _______ _______ _____ _____    ______ ____
ROOT
ATOM      1  C   UNL     1      -5.005  13.567  22.167  0.00  0.00    +0.000 C 
ATOM      2  C   UNL     1      -6.361  13.637  21.420  0.00  0.00    +0.000 C 
ATOM      3  C   UNL     1      -5.225  12.836  23.517  0.00  0.00    +0.000 C 
ATOM      4  C   UNL     1      -3.931  12.593  24.304  0.00  0.00    +0.000 C 
ATOM      5  C   UNL     1      -2.748  12.011  23.506  0.00  0.00    +0.000 C 
ATOM      6  C   UNL     1      -2.500  12.653  22.100  0.00  0.00    +0.000 C 
ATOM      7  C   UNL     1      -1.850  14.032  22.347  0.00  0.00    +0.000 C 
ATOM      8  C   UNL     1      -1.483  11.742  21.246  0.00  0.00    +0.000 C 
ATOM      9  C   UNL     1       0.028  11.780  21.709  0.00  0.00    +0.000 C 
ATOM     10  C   UNL     1       1.076  11.128  20.746  0.00  0.00    +0.000 C 
ATOM     11  C   UNL     1       0.754  11.346  19.251  0.00  0.00    +0.000 C 
ATOM     12  C   UNL     1       1.624  10.592  18.258  0.00  0.00    +0.000 C 
ATOM     13  C   UNL     1      -0.721  10.818  19.050  0.00  0.00    +0.000 C 
ATOM     14  C   UNL     1      -1.583  11.955  19.689  0.00  0.00    +0.000 C 
ATOM     15  C   UNL     1      -3.009  11.899  19.181  0.00  0.00    +0.000 C 
ATOM     16  C   UNL     1      -3.906  12.909  19.882  0.00  0.00    +0.000 C 
ATOM     17  C   UNL     1      -3.921  12.712  21.402  0.00  0.00    +0.000 C 
ATOM     18  C   UNL     1      -0.793  13.137  19.213  0.00  0.00    +0.000 A 
ATOM     19  C   UNL     1      -0.886  14.507  19.048  0.00  0.00    +0.000 A 
ATOM     20  N   UNL     1       0.327  15.053  18.938  0.00  0.00    +0.000 NA
ATOM     21  N   UNL     1       1.211  14.009  19.060  0.00  0.00    +0.000 N 
ATOM     22  C   UNL     1       0.529  12.811  18.985  0.00  0.00    +0.000 A 
ENDROOT
BRANCH  21  23
ATOM     23  C   UNL     1       2.561  14.294  19.402  0.00  0.00    +0.000 A 
ATOM     24  C   UNL     1       3.476  14.552  18.371  0.00  0.00    +0.000 A 
ATOM     25  C   UNL     1       4.808  14.865  18.664  0.00  0.00    +0.000 A 
ATOM     26  C   UNL     1       5.253  14.889  19.984  0.00  0.00    +0.000 A 
ATOM     27  C   UNL     1       6.688  15.177  20.314  0.00  0.00    +0.000 C 
ATOM     28  C   UNL     1       4.345  14.604  21.013  0.00  0.00    +0.000 A 
ATOM     29  C   UNL     1       3.010  14.309  20.721  0.00  0.00    +0.000 A 
ENDBRANCH  21  23
BRANCH   1  30
ATOM     30  C   UNL     1      -4.699  15.046  22.459  0.00  0.00    +0.000 C 
ATOM     31  O   UNL     1      -4.310  15.846  21.614  0.00  0.00    +0.000 OA
BRANCH  30  32
ATOM     32  O   UNL     1      -4.823  15.346  23.781  0.00  0.00    +0.000 OA
BRANCH  32  34
ATOM     33  C   UNL     1      -2.960  16.023  25.176  0.00  0.00    +0.000 C 
ATOM     34  C   UNL     1      -4.042  16.475  24.215  0.00  0.00    +0.000 C 
ENDBRANCH  32  34
ENDBRANCH  30  32
ENDBRANCH   1  30
TORSDOF 4
ENDMDL
MODEL 2
REMARK VINA RESULT:      -6.3      0.746      1.398
REMARK  Name = 
REMARK  9 active torsions:
REMARK  status: ('A' for Active; 'I' for Inactive)
REMARK    1  A    between atoms: C_1  and  C_2
REMARK    2  A    between atoms: C_2  and  O_3
REMARK    3  A    between atoms: O_3  and  C_4
REMARK    4  A    between atoms: C_4  and  C_6
REMARK    5  A    between atoms: C_6  and  C_7
REMARK    6  A    between atoms: C_11  and  C_12
REMARK    7  A    between atoms: C_16  and  C_17
REMARK    8  A    between atoms: N_26  and  C_27
REMARK    9  A    between atoms: C_30  and  C_31
REMARK                            x       y       z     vdW  Elec       q    Type
REMARK                         _______ _______ _______ _____ _____    ______ ____
ROOT
ATOM      1  C   UNL     1      -4.943  13.558  22.090  0.00  0.00    +0.000 C 
ATOM      2  C   UNL     1      -6.301  13.607  21.346  0.00  0.00    +0.000 C 
ATOM      3  C   UNL     1      -5.155  12.842  23.450  0.00  0.00    +0.000 C 
ATOM      4  C   UNL     1      -3.856  12.620  24.238  0.00  0.00    +0.000 C 
ATOM      5  C   UNL     1      -2.671  12.037  23.444  0.00  0.00    +0.000 C 
ATOM      6  C   UNL     1      -2.431  12.662  22.029  0.00  0.00    +0.000 C 
ATOM      7  C   UNL     1      -1.791  14.049  22.256  0.00  0.00    +0.000 C 
ATOM      8  C   UNL     1      -1.409  11.748  21.184  0.00  0.00    +0.000 C 
ATOM      9  C   UNL     1       0.102  11.804  21.643  0.00  0.00    +0.000 C 
ATOM     10  C   UNL     1       1.153  11.148  20.686  0.00  0.00    +0.000 C 
ATOM     11  C   UNL     1       0.826  11.344  19.190  0.00  0.00    +0.000 C 
ATOM     12  C   UNL     1       1.700  10.583  18.204  0.00  0.00    +0.000 C 
ATOM     13  C   UNL     1      -0.645  10.802  18.998  0.00  0.00    +0.000 C 
ATOM     14  C   UNL     1      -1.514  11.940  19.625  0.00  0.00    +0.000 C 
ATOM     15  C   UNL     1      -2.941  11.866  19.121  0.00  0.00    +0.000 C 
ATOM     16  C   UNL     1      -3.845  12.878  19.811  0.00  0.00    +0.000 C 
ATOM     17  C   UNL     1      -3.854  12.701  21.334  0.00  0.00    +0.000 C 
ATOM     18  C   UNL     1      -0.735  13.122  19.131  0.00  0.00    +0.000 A 
ATOM     19  C   UNL     1      -0.839  14.489  18.949  0.00  0.00    +0.000 A 
ATOM     20  N   UNL     1       0.369  15.043  18.829  0.00  0.00    +0.000 NA
ATOM     21  N   UNL     1       1.262  14.007  18.963  0.00  0.00    +0.000 N 
ATOM     22  C   UNL     1       0.589  12.803  18.904  0.00  0.00    +0.000 A 
ENDROOT
BRANCH  21  23
ATOM     23  C   UNL     1       2.610  14.307  19.297  0.00  0.00    +0.000 A 
ATOM     24  C   UNL     1       2.980  14.325  20.650  0.00  0.00    +0.000 A 
ATOM     25  C   UNL     1       4.303  14.588  21.022  0.00  0.00    +0.000 A 
ATOM     26  C   UNL     1       5.264  14.871  20.055  0.00  0.00    +0.000 A 
ATOM     27  C   UNL     1       6.678  15.201  20.438  0.00  0.00    +0.000 C 
ATOM     28  C   UNL     1       4.890  14.880  18.705  0.00  0.00    +0.000 A 
ATOM     29  C   UNL     1       3.571  14.601  18.332  0.00  0.00    +0.000 A 
ENDBRANCH  21  23
BRANCH   1  30
ATOM     30  C   UNL     1      -4.648  15.043  22.362  0.00  0.00    +0.000 C 
ATOM     31  O   UNL     1      -4.555  15.529  23.484  0.00  0.00    +0.000 OA
BRANCH  30  32
ATOM     32  O   UNL     1      -4.592  15.775  21.216  0.00  0.00    +0.000 OA
BRANCH  32  34
ATOM     33  C   UNL     1      -2.794  17.195  20.426  0.00  0.00    +0.000 C 
ATOM     34  C   UNL     1      -3.980  17.070  21.363  0.00  0.00    +0.000 C 
ENDBRANCH  32  34
ENDBRANCH  30  32
ENDBRANCH   1  30
TORSDOF 4
ENDMDL
MODEL 3
REMARK VINA RESULT:      -6.2      0.567      1.143
REMARK  Name = 
REMARK  9 active torsions:
REMARK  status: ('A' for Active; 'I' for Inactive)
REMARK    1  A    between atoms: C_1  and  C_2
REMARK    2  A    between atoms: C_2  and  O_3
REMARK    3  A    between atoms: O_3  and  C_4
REMARK    4  A    between atoms: C_4  and  C_6
REMARK    5  A    between atoms: C_6  and  C_7
REMARK    6  A    between atoms: C_11  and  C_12
REMARK    7  A    between atoms: C_16  and  C_17
REMARK    8  A    between atoms: N_26  and  C_27
REMARK    9  A    between atoms: C_30  and  C_31
REMARK                            x       y       z     vdW  Elec       q    Type
REMARK                         _______ _______ _______ _____ _____    ______ ____
ROOT
ATOM      1  C   UNL     1      -4.958  13.544  22.079  0.00  0.00    +0.000 C 
ATOM      2  C   UNL     1      -6.314  13.588  21.331  0.00  0.00    +0.000 C 
ATOM      3  C   UNL     1      -5.173  12.833  23.442  0.00  0.00    +0.000 C 
ATOM      4  C   UNL     1      -3.876  12.616  24.234  0.00  0.00    +0.000 C 
ATOM      5  C   UNL     1      -2.688  12.032  23.445  0.00  0.00    +0.000 C 
ATOM      6  C   UNL     1      -2.445  12.652  22.029  0.00  0.00    +0.000 C 
ATOM      7  C   UNL     1      -1.808  14.041  22.252  0.00  0.00    +0.000 C 
ATOM      8  C   UNL     1      -1.419  11.735  21.191  0.00  0.00    +0.000 C 
ATOM      9  C   UNL     1       0.091  11.795  21.653  0.00  0.00    +0.000 C 
ATOM     10  C   UNL     1       1.145  11.137  20.702  0.00  0.00    +0.000 C 
ATOM     11  C   UNL     1       0.822  11.327  19.204  0.00  0.00    +0.000 C 
ATOM     12  C   UNL     1       1.700  10.564  18.224  0.00  0.00    +0.000 C 
ATOM     13  C   UNL     1      -0.648  10.782  19.011  0.00  0.00    +0.000 C 
ATOM     14  C   UNL     1      -1.520  11.921  19.631  0.00  0.00    +0.000 C 
ATOM     15  C   UNL     1      -2.946  11.844  19.123  0.00  0.00    +0.000 C 
ATOM     16  C   UNL     1      -3.853  12.857  19.807  0.00  0.00    +0.000 C 
ATOM     17  C   UNL     1      -3.866  12.686  21.330  0.00  0.00    +0.000 C 
ATOM     18  C   UNL     1      -0.741  13.103  19.134  0.00  0.00    +0.000 A 
ATOM     19  C   UNL     1      -0.847  14.469  18.947  0.00  0.00    +0.000 A 
ATOM     20  N   UNL     1       0.361  15.024  18.827  0.00  0.00    +0.000 NA
ATOM     21  N   UNL     1       1.255  13.990  18.968  0.00  0.00    +0.000 N 
ATOM     22  C   UNL     1       0.584  12.785  18.912  0.00  0.00    +0.000 A 
ENDROOT
BRANCH  21  23
ATOM     23  C   UNL     1       2.602  14.293  19.305  0.00  0.00    +0.000 A 
ATOM     24  C   UNL     1       2.965  14.329  20.659  0.00  0.00    +0.000 A 
ATOM     25  C   UNL     1       4.286  14.596  21.035  0.00  0.00    +0.000 A 
ATOM     26  C   UNL     1       5.253  14.865  20.069  0.00  0.00    +0.000 A 
ATOM     27  C   UNL     1       6.664  15.198  20.454  0.00  0.00    +0.000 C 
ATOM     28  C   UNL     1       4.885  14.856  18.716  0.00  0.00    +0.000 A 
ATOM     29  C   UNL     1       3.568  14.572  18.341  0.00  0.00    +0.000 A 
ENDBRANCH  21  23
BRANCH   1  30
ATOM     30  C   UNL     1      -4.666  15.030  22.347  0.00  0.00    +0.000 C 
ATOM     31  O   UNL     1      -4.233  15.806  21.502  0.00  0.00    +0.000 OA
BRANCH  30  32
ATOM     32  O   UNL     1      -4.858  15.366  23.652  0.00  0.00    +0.000 OA
BRANCH  32  34
ATOM     33  C   UNL     1      -6.909  16.647  23.489  0.00  0.00    +0.000 C 
ATOM     34  C   UNL     1      -5.437  16.668  23.857  0.00  0.00    +0.000 C 
ENDBRANCH  32  34
ENDBRANCH  30  32
ENDBRANCH   1  30
TORSDOF 4
ENDMDL
MODEL 4
REMARK VINA RESULT:      -6.1      0.912      1.273
REMARK  Name = 
REMARK  9 active torsions:
REMARK  status: ('A' for Active; 'I' for Inactive)
REMARK    1  A    between atoms: C_1  and  C_2
REMARK    2  A    between atoms: C_2  and  O_3
REMARK    3  A    between atoms: O_3  and  C_4
REMARK    4  A    between atoms: C_4  and  C_6
REMARK    5  A    between atoms: C_6  and  C_7
REMARK    6  A    between atoms: C_11  and  C_12
REMARK    7  A    between atoms: C_16  and  C_17
REMARK    8  A    between atoms: N_26  and  C_27
REMARK    9  A    between atoms: C_30  and  C_31
REMARK                            x       y       z     vdW  Elec       q    Type
REMARK                         _______ _______ _______ _____ _____    ______ ____
ROOT
ATOM      1  C   UNL     1      -5.296  13.756  22.569  0.00  0.00    +0.000 C 
ATOM      2  C   UNL     1      -6.629  13.937  21.800  0.00  0.00    +0.000 C 
ATOM      3  C   UNL     1      -5.577  12.925  23.849  0.00  0.00    +0.000 C 
ATOM      4  C   UNL     1      -4.313  12.571  24.643  0.00  0.00    +0.000 C 
ATOM      5  C   UNL     1      -3.131  12.013  23.826  0.00  0.00    +0.000 C 
ATOM      6  C   UNL     1      -2.824  12.759  22.485  0.00  0.00    +0.000 C 
ATOM      7  C   UNL     1      -2.133  14.088  22.860  0.00  0.00    +0.000 C 
ATOM      8  C   UNL     1      -1.817  11.884  21.582  0.00  0.00    +0.000 C 
ATOM      9  C   UNL     1      -0.319  11.828  22.081  0.00  0.00    +0.000 C 
ATOM     10  C   UNL     1       0.730  11.219  21.092  0.00  0.00    +0.000 C 
ATOM     11  C   UNL     1       0.456  11.571  19.614  0.00  0.00    +0.000 C 
ATOM     12  C   UNL     1       1.325  10.869  18.582  0.00  0.00    +0.000 C 
ATOM     13  C   UNL     1      -1.031  11.116  19.335  0.00  0.00    +0.000 C 
ATOM     14  C   UNL     1      -1.869  12.227  20.047  0.00  0.00    +0.000 C 
ATOM     15  C   UNL     1      -3.283  12.267  19.502  0.00  0.00    +0.000 C 
ATOM     16  C   UNL     1      -4.162  13.248  20.264  0.00  0.00    +0.000 C 
ATOM     17  C   UNL     1      -4.223  12.927  21.762  0.00  0.00    +0.000 C 
ATOM     18  C   UNL     1      -1.026  13.415  19.688  0.00  0.00    +0.000 A 
ATOM     19  C   UNL     1      -1.067  14.796  19.636  0.00  0.00    +0.000 A 
ATOM     20  N   UNL     1       0.167  15.304  19.599  0.00  0.00    +0.000 NA
ATOM     21  N   UNL     1       1.011  14.222  19.655  0.00  0.00    +0.000 N 
ATOM     22  C   UNL     1       0.289  13.060  19.464  0.00  0.00    +0.000 A 
ENDROOT
BRANCH  21  23
ATOM     23  C   UNL     1       2.360  14.428  20.050  0.00  0.00    +0.000 A 
ATOM     24  C   UNL     1       3.304  14.765  19.070  0.00  0.00    +0.000 A 
ATOM     25  C   UNL     1       4.638  15.004  19.419  0.00  0.00    +0.000 A 
ATOM     26  C   UNL     1       5.054  14.875  20.742  0.00  0.00    +0.000 A 
ATOM     27  C   UNL     1       6.489  15.082  21.128  0.00  0.00    +0.000 C 
ATOM     28  C   UNL     1       4.117  14.511  21.718  0.00  0.00    +0.000 A 
ATOM     29  C   UNL     1       2.780  14.289  21.371  0.00  0.00    +0.000 A 
ENDBRANCH  21  23
BRANCH   1  30
ATOM     30  C   UNL     1      -4.947  15.194  22.991  0.00  0.00    +0.000 C 
ATOM     31  O   UNL     1      -4.957  15.590  24.152  0.00  0.00    +0.000 OA
BRANCH  30  32
ATOM     32  O   UNL     1      -4.713  16.002  21.920  0.00  0.00    +0.000 OA
BRANCH  32  34
ATOM     33  C   UNL     1      -6.335  17.778  21.618  0.00  0.00    +0.000 C 
ATOM     34  C   UNL     1      -4.968  17.399  22.157  0.00  0.00    +0.000 C 
ENDBRANCH  32  34
ENDBRANCH  30  32
ENDBRANCH   1  30
TORSDOF 4
ENDMDL
MODEL 5
REMARK VINA RESULT:      -6.1      3.570      6.368
REMARK  Name = 
REMARK  9 active torsions:
REMARK  status: ('A' for Active; 'I' for Inactive)
REMARK    1  A    between atoms: C_1  and  C_2
REMARK    2  A    between atoms: C_2  and  O_3
REMARK    3  A    between atoms: O_3  and  C_4
REMARK    4  A    between atoms: C_4  and  C_6
REMARK    5  A    between atoms: C_6  and  C_7
REMARK    6  A    between atoms: C_11  and  C_12
REMARK    7  A    between atoms: C_16  and  C_17
REMARK    8  A    between atoms: N_26  and  C_27
REMARK    9  A    between atoms: C_30  and  C_31
REMARK                            x       y       z     vdW  Elec       q    Type
REMARK                         _______ _______ _______ _____ _____    ______ ____
ROOT
ATOM      1  C   UNL     1       1.844  16.971  20.740  0.00  0.00    +0.000 C 
ATOM      2  C   UNL     1       1.857  18.225  19.829  0.00  0.00    +0.000 C 
ATOM      3  C   UNL     1       1.352  17.393  22.150  0.00  0.00    +0.000 C 
ATOM      4  C   UNL     1       1.178  16.216  23.119  0.00  0.00    +0.000 C 
ATOM      5  C   UNL     1       0.419  14.992  22.573  0.00  0.00    +0.000 C 
ATOM      6  C   UNL     1       0.812  14.542  21.127  0.00  0.00    +0.000 C 
ATOM      7  C   UNL     1       2.180  13.834  21.235  0.00  0.00    +0.000 C 
ATOM      8  C   UNL     1      -0.273  13.497  20.556  0.00  0.00    +0.000 C 
ATOM      9  C   UNL     1      -0.233  12.050  21.191  0.00  0.00    +0.000 C 
ATOM     10  C   UNL     1      -1.081  10.945  20.478  0.00  0.00    +0.000 C 
ATOM     11  C   UNL     1      -1.092  11.078  18.939  0.00  0.00    +0.000 C 
ATOM     12  C   UNL     1      -2.038  10.152  18.190  0.00  0.00    +0.000 C 
ATOM     13  C   UNL     1      -1.575  12.552  18.641  0.00  0.00    +0.000 C 
ATOM     14  C   UNL     1      -0.310  13.403  18.985  0.00  0.00    +0.000 C 
ATOM     15  C   UNL     1      -0.378  14.762  18.318  0.00  0.00    +0.000 C 
ATOM     16  C   UNL     1       0.773  15.664  18.739  0.00  0.00    +0.000 C 
ATOM     17  C   UNL     1       0.826  15.866  20.258  0.00  0.00    +0.000 C 
ATOM     18  C   UNL     1       0.741  12.487  18.433  0.00  0.00    +0.000 A 
ATOM     19  C   UNL     1       2.069  12.468  18.048  0.00  0.00    +0.000 A 
ATOM     20  N   UNL     1       2.531  11.217  18.005  0.00  0.00    +0.000 NA
ATOM     21  N   UNL     1       1.480  10.424  18.397  0.00  0.00    +0.000 N 
ATOM     22  C   UNL     1       0.319  11.172  18.423  0.00  0.00    +0.000 A 
ENDROOT
BRANCH  21  23
ATOM     23  C   UNL     1       1.751   9.107  18.854  0.00  0.00    +0.000 A 
ATOM     24  C   UNL     1       1.450   8.781  20.185  0.00  0.00    +0.000 A 
ATOM     25  C   UNL     1       1.675   7.488  20.669  0.00  0.00    +0.000 A 
ATOM     26  C   UNL     1       2.235   6.514  19.845  0.00  0.00    +0.000 A 
ATOM     27  C   UNL     1       2.526   5.135  20.361  0.00  0.00    +0.000 C 
ATOM     28  C   UNL     1       2.561   6.846  18.523  0.00  0.00    +0.000 A 
ATOM     29  C   UNL     1       2.320   8.134  18.035  0.00  0.00    +0.000 A 
ENDBRANCH  21  23
BRANCH   1  30
ATOM     30  C   UNL     1       3.334  16.603  20.836  0.00  0.00    +0.000 C 
ATOM     31  O   UNL     1       3.934  16.441  21.893  0.00  0.00    +0.000 OA
BRANCH  30  32
ATOM     32  O   UNL     1       3.935  16.565  19.615  0.00  0.00    +0.000 OA
BRANCH  32  34
ATOM     33  C   UNL     1       4.744  14.878  18.074  0.00  0.00    +0.000 C 
ATOM     34  C   UNL     1       4.890  15.501  19.449  0.00  0.00    +0.000 C 
ENDBRANCH  32  34
ENDBRANCH  30  32
ENDBRANCH   1  30
TORSDOF 4
ENDMDL
MODEL 6
REMARK VINA RESULT:      -5.8      5.135     10.598
REMARK  Name = 
REMARK  9 active torsions:
REMARK  status: ('A' for Active; 'I' for Inactive)
REMARK    1  A    between atoms: C_1  and  C_2
REMARK    2  A    between atoms: C_2  and  O_3
REMARK    3  A    between atoms: O_3  and  C_4
REMARK    4  A    between atoms: C_4  and  C_6
REMARK    5  A    between atoms: C_6  and  C_7
REMARK    6  A    between atoms: C_11  and  C_12
REMARK    7  A    between atoms: C_16  and  C_17
REMARK    8  A    between atoms: N_26  and  C_27
REMARK    9  A    between atoms: C_30  and  C_31
REMARK                            x       y       z     vdW  Elec       q    Type
REMARK                         _______ _______ _______ _____ _____    ______ ____
ROOT
ATOM      1  C   UNL     1      10.207  16.026  19.855  0.00  0.00    +0.000 C 
ATOM      2  C   UNL     1      11.107  17.269  19.637  0.00  0.00    +0.000 C 
ATOM      3  C   UNL     1      10.962  15.028  20.772  0.00  0.00    +0.000 C 
ATOM      4  C   UNL     1      10.128  13.801  21.164  0.00  0.00    +0.000 C 
ATOM      5  C   UNL     1       8.694  14.083  21.655  0.00  0.00    +0.000 C 
ATOM      6  C   UNL     1       7.887  15.130  20.819  0.00  0.00    +0.000 C 
ATOM      7  C   UNL     1       7.463  14.428  19.510  0.00  0.00    +0.000 C 
ATOM      8  C   UNL     1       6.565  15.581  21.622  0.00  0.00    +0.000 C 
ATOM      9  C   UNL     1       5.407  14.508  21.695  0.00  0.00    +0.000 C 
ATOM     10  C   UNL     1       4.021  15.004  22.226  0.00  0.00    +0.000 C 
ATOM     11  C   UNL     1       3.671  16.440  21.780  0.00  0.00    +0.000 C 
ATOM     12  C   UNL     1       2.427  17.055  22.403  0.00  0.00    +0.000 C 
ATOM     13  C   UNL     1       4.891  17.337  22.230  0.00  0.00    +0.000 C 
ATOM     14  C   UNL     1       5.989  16.977  21.177  0.00  0.00    +0.000 C 
ATOM     15  C   UNL     1       7.050  18.057  21.117  0.00  0.00    +0.000 C 
ATOM     16  C   UNL     1       8.202  17.676  20.198  0.00  0.00    +0.000 C 
ATOM     17  C   UNL     1       8.866  16.359  20.617  0.00  0.00    +0.000 C 
ATOM     18  C   UNL     1       5.118  16.886  19.960  0.00  0.00    +0.000 A 
ATOM     19  C   UNL     1       5.184  16.872  18.579  0.00  0.00    +0.000 A 
ATOM     20  N   UNL     1       4.066  16.365  18.057  0.00  0.00    +0.000 NA
ATOM     21  N   UNL     1       3.282  16.023  19.132  0.00  0.00    +0.000 N 
ATOM     22  C   UNL     1       3.816  16.561  20.286  0.00  0.00    +0.000 A 
ENDROOT
BRANCH  21  23
ATOM     23  C   UNL     1       2.226  15.092  18.939  0.00  0.00    +0.000 A 
ATOM     24  C   UNL     1       0.902  15.542  19.056  0.00  0.00    +0.000 A 
ATOM     25  C   UNL     1      -0.168  14.664  18.847  0.00  0.00    +0.000 A 
ATOM     26  C   UNL     1       0.067  13.323  18.553  0.00  0.00    +0.000 A 
ATOM     27  C   UNL     1      -1.068  12.358  18.370  0.00  0.00    +0.000 C 
ATOM     28  C   UNL     1       1.389  12.868  18.462  0.00  0.00    +0.000 A 
ATOM     29  C   UNL     1       2.459  13.748  18.655  0.00  0.00    +0.000 A 
ENDBRANCH  21  23
BRANCH   1  30
ATOM     30  C   UNL     1      10.117  15.418  18.444  0.00  0.00    +0.000 C 
ATOM     31  O   UNL     1       9.427  15.880  17.542  0.00  0.00    +0.000 OA
BRANCH  30  32
ATOM     32  O   UNL     1      10.820  14.257  18.338  0.00  0.00    +0.000 OA
BRANCH  32  34
ATOM     33  C   UNL     1       9.936  12.047  17.879  0.00  0.00    +0.000 C 
ATOM     34  C   UNL     1      10.368  13.377  17.292  0.00  0.00    +0.000 C 
ENDBRANCH  32  34
ENDBRANCH  30  32
ENDBRANCH   1  30
TORSDOF 4
ENDMDL
MODEL 7
REMARK VINA RESULT:      -5.7      2.206      4.433
REMARK  Name = 
REMARK  9 active torsions:
REMARK  status: ('A' for Active; 'I' for Inactive)
REMARK    1  A    between atoms: C_1  and  C_2
REMARK    2  A    between atoms: C_2  and  O_3
REMARK    3  A    between atoms: O_3  and  C_4
REMARK    4  A    between atoms: C_4  and  C_6
REMARK    5  A    between atoms: C_6  and  C_7
REMARK    6  A    between atoms: C_11  and  C_12
REMARK    7  A    between atoms: C_16  and  C_17
REMARK    8  A    between atoms: N_26  and  C_27
REMARK    9  A    between atoms: C_30  and  C_31
REMARK                            x       y       z     vdW  Elec       q    Type
REMARK                         _______ _______ _______ _____ _____    ______ ____
ROOT
ATOM      1  C   UNL     1      -2.377  13.013  20.428  0.00  0.00    +0.000 C 
ATOM      2  C   UNL     1      -3.629  13.878  20.721  0.00  0.00    +0.000 C 
ATOM      3  C   UNL     1      -2.758  11.940  19.374  0.00  0.00    +0.000 C 
ATOM      4  C   UNL     1      -1.570  11.088  18.906  0.00  0.00    +0.000 C 
ATOM      5  C   UNL     1      -0.289  11.858  18.527  0.00  0.00    +0.000 C 
ATOM      6  C   UNL     1       0.126  13.004  19.509  0.00  0.00    +0.000 C 
ATOM      7  C   UNL     1       0.724  12.325  20.760  0.00  0.00    +0.000 C 
ATOM      8  C   UNL     1       1.254  13.934  18.830  0.00  0.00    +0.000 C 
ATOM      9  C   UNL     1       2.693  13.292  18.713  0.00  0.00    +0.000 C 
ATOM     10  C   UNL     1       3.862  14.254  18.313  0.00  0.00    +0.000 C 
ATOM     11  C   UNL     1       3.728  15.667  18.921  0.00  0.00    +0.000 C 
ATOM     12  C   UNL     1       4.726  16.707  18.433  0.00  0.00    +0.000 C 
ATOM     13  C   UNL     1       2.297  16.182  18.496  0.00  0.00    +0.000 C 
ATOM     14  C   UNL     1       1.348  15.379  19.445  0.00  0.00    +0.000 C 
ATOM     15  C   UNL     1      -0.002  16.059  19.556  0.00  0.00    +0.000 C 
ATOM     16  C   UNL     1      -0.992  15.235  20.366  0.00  0.00    +0.000 C 
ATOM     17  C   UNL     1      -1.195  13.833  19.779  0.00  0.00    +0.000 C 
ATOM     18  C   UNL     1       2.178  15.427  20.693  0.00  0.00    +0.000 A 
ATOM     19  C   UNL     1       2.090  15.237  22.060  0.00  0.00    +0.000 A 
ATOM     20  N   UNL     1       3.301  15.049  22.589  0.00  0.00    +0.000 NA
ATOM     21  N   UNL     1       4.175  15.095  21.530  0.00  0.00    +0.000 N 
ATOM     22  C   UNL     1       3.522  15.566  20.409  0.00  0.00    +0.000 A 
ENDROOT
BRANCH  21  23
ATOM     23  C   UNL     1       5.468  14.525  21.686  0.00  0.00    +0.000 A 
ATOM     24  C   UNL     1       5.658  13.550  22.677  0.00  0.00    +0.000 A 
ATOM     25  C   UNL     1       6.908  12.943  22.845  0.00  0.00    +0.000 A 
ATOM     26  C   UNL     1       7.990  13.324  22.055  0.00  0.00    +0.000 A 
ATOM     27  C   UNL     1       9.348  12.717  22.253  0.00  0.00    +0.000 C 
ATOM     28  C   UNL     1       7.806  14.317  21.083  0.00  0.00    +0.000 A 
ATOM     29  C   UNL     1       6.553  14.912  20.904  0.00  0.00    +0.000 A 
ENDBRANCH  21  23
BRANCH   1  30
ATOM     30  C   UNL     1      -2.128  12.307  21.772  0.00  0.00    +0.000 C 
ATOM     31  O   UNL     1      -1.811  11.127  21.879  0.00  0.00    +0.000 OA
BRANCH  30  32
ATOM     32  O   UNL     1      -2.388  13.117  22.835  0.00  0.00    +0.000 OA
BRANCH  32  34
ATOM     33  C   UNL     1      -1.569  14.830  24.342  0.00  0.00    +0.000 C 
ATOM     34  C   UNL     1      -1.216  13.610  23.512  0.00  0.00    +0.000 C 
ENDBRANCH  32  34
ENDBRANCH  30  32
ENDBRANCH   1  30
TORSDOF 4
ENDMDL
MODEL 8
REMARK VINA RESULT:      -5.7      2.407      4.897
REMARK  Name = 
REMARK  9 active torsions:
REMARK  status: ('A' for Active; 'I' for Inactive)
REMARK    1  A    between atoms: C_1  and  C_2
REMARK    2  A    between atoms: C_2  and  O_3
REMARK    3  A    between atoms: O_3  and  C_4
REMARK    4  A    between atoms: C_4  and  C_6
REMARK    5  A    between atoms: C_6  and  C_7
REMARK    6  A    between atoms: C_11  and  C_12
REMARK    7  A    between atoms: C_16  and  C_17
REMARK    8  A    between atoms: N_26  and  C_27
REMARK    9  A    between atoms: C_30  and  C_31
REMARK                            x       y       z     vdW  Elec       q    Type
REMARK                         _______ _______ _______ _____ _____    ______ ____
ROOT
ATOM      1  C   UNL     1      -1.955  13.641  21.018  0.00  0.00    +0.000 C 
ATOM      2  C   UNL     1      -3.106  14.582  21.456  0.00  0.00    +0.000 C 
ATOM      3  C   UNL     1      -2.508  12.647  19.964  0.00  0.00    +0.000 C 
ATOM      4  C   UNL     1      -1.435  11.732  19.357  0.00  0.00    +0.000 C 
ATOM      5  C   UNL     1      -0.138  12.422  18.892  0.00  0.00    +0.000 C 
ATOM      6  C   UNL     1       0.450  13.489  19.874  0.00  0.00    +0.000 C 
ATOM      7  C   UNL     1       1.101  12.714  21.040  0.00  0.00    +0.000 C 
ATOM      8  C   UNL     1       1.581  14.364  19.132  0.00  0.00    +0.000 C 
ATOM      9  C   UNL     1       2.951  13.624  18.859  0.00  0.00    +0.000 C 
ATOM     10  C   UNL     1       4.150  14.515  18.391  0.00  0.00    +0.000 C 
ATOM     11  C   UNL     1       4.180  15.905  19.062  0.00  0.00    +0.000 C 
ATOM     12  C   UNL     1       5.208  16.890  18.525  0.00  0.00    +0.000 C 
ATOM     13  C   UNL     1       2.761  16.542  18.790  0.00  0.00    +0.000 C 
ATOM     14  C   UNL     1       1.840  15.770  19.790  0.00  0.00    +0.000 C 
ATOM     15  C   UNL     1       0.561  16.541  20.049  0.00  0.00    +0.000 C 
ATOM     16  C   UNL     1      -0.414  15.756  20.914  0.00  0.00    +0.000 C 
ATOM     17  C   UNL     1      -0.775  14.401  20.296  0.00  0.00    +0.000 C 
ATOM     18  C   UNL     1       2.778  15.701  20.958  0.00  0.00    +0.000 A 
ATOM     19  C   UNL     1       2.797  15.457  22.319  0.00  0.00    +0.000 A 
ATOM     20  N   UNL     1       4.032  15.157  22.728  0.00  0.00    +0.000 NA
ATOM     21  N   UNL     1       4.810  15.186  21.596  0.00  0.00    +0.000 N 
ATOM     22  C   UNL     1       4.099  15.753  20.558  0.00  0.00    +0.000 A 
ENDROOT
BRANCH  21  23
ATOM     23  C   UNL     1       6.063  14.517  21.612  0.00  0.00    +0.000 A 
ATOM     24  C   UNL     1       7.032  14.880  20.665  0.00  0.00    +0.000 A 
ATOM     25  C   UNL     1       8.290  14.266  20.663  0.00  0.00    +0.000 A 
ATOM     26  C   UNL     1       8.585  13.260  21.579  0.00  0.00    +0.000 A 
ATOM     27  C   UNL     1       9.911  12.559  21.562  0.00  0.00    +0.000 C 
ATOM     28  C   UNL     1       7.607  12.877  22.508  0.00  0.00    +0.000 A 
ATOM     29  C   UNL     1       6.357  13.503  22.521  0.00  0.00    +0.000 A 
ENDBRANCH  21  23
BRANCH   1  30
ATOM     30  C   UNL     1      -1.643  12.860  22.306  0.00  0.00    +0.000 C 
ATOM     31  O   UNL     1      -1.146  13.361  23.309  0.00  0.00    +0.000 OA
BRANCH  30  32
ATOM     32  O   UNL     1      -1.898  11.529  22.176  0.00  0.00    +0.000 OA
BRANCH  32  34
ATOM     33  C   UNL     1      -0.358   9.687  22.510  0.00  0.00    +0.000 C 
ATOM     34  C   UNL     1      -1.273  10.699  23.173  0.00  0.00    +0.000 C 
ENDBRANCH  32  34
ENDBRANCH  30  32
ENDBRANCH   1  30
TORSDOF 4
ENDMDL
MODEL 9
REMARK VINA RESULT:      -5.7      3.615      6.070
REMARK  Name = 
REMARK  9 active torsions:
REMARK  status: ('A' for Active; 'I' for Inactive)
REMARK    1  A    between atoms: C_1  and  C_2
REMARK    2  A    between atoms: C_2  and  O_3
REMARK    3  A    between atoms: O_3  and  C_4
REMARK    4  A    between atoms: C_4  and  C_6
REMARK    5  A    between atoms: C_6  and  C_7
REMARK    6  A    between atoms: C_11  and  C_12
REMARK    7  A    between atoms: C_16  and  C_17
REMARK    8  A    between atoms: N_26  and  C_27
REMARK    9  A    between atoms: C_30  and  C_31
REMARK                            x       y       z     vdW  Elec       q    Type
REMARK                         _______ _______ _______ _____ _____    ______ ____
ROOT
ATOM      1  C   UNL     1       1.780  17.187  20.902  0.00  0.00    +0.000 C 
ATOM      2  C   UNL     1       1.779  18.452  20.008  0.00  0.00    +0.000 C 
ATOM      3  C   UNL     1       1.299  17.589  22.322  0.00  0.00    +0.000 C 
ATOM      4  C   UNL     1       1.140  16.399  23.278  0.00  0.00    +0.000 C 
ATOM      5  C   UNL     1       0.381  15.178  22.722  0.00  0.00    +0.000 C 
ATOM      6  C   UNL     1       0.764  14.748  21.267  0.00  0.00    +0.000 C 
ATOM      7  C   UNL     1       2.136  14.045  21.355  0.00  0.00    +0.000 C 
ATOM      8  C   UNL     1      -0.321  13.705  20.693  0.00  0.00    +0.000 C 
ATOM      9  C   UNL     1      -0.268  12.251  21.309  0.00  0.00    +0.000 C 
ATOM     10  C   UNL     1      -1.117  11.150  20.590  0.00  0.00    +0.000 C 
ATOM     11  C   UNL     1      -1.143  11.303  19.053  0.00  0.00    +0.000 C 
ATOM     12  C   UNL     1      -2.092  10.381  18.301  0.00  0.00    +0.000 C 
ATOM     13  C   UNL     1      -1.636  12.778  18.778  0.00  0.00    +0.000 C 
ATOM     14  C   UNL     1      -0.372  13.631  19.122  0.00  0.00    +0.000 C 
ATOM     15  C   UNL     1      -0.453  14.998  18.473  0.00  0.00    +0.000 C 
ATOM     16  C   UNL     1       0.698  15.900  18.894  0.00  0.00    +0.000 C 
ATOM     17  C   UNL     1       0.763  16.083  20.415  0.00  0.00    +0.000 C 
ATOM     18  C   UNL     1       0.678  12.727  18.548  0.00  0.00    +0.000 A 
ATOM     19  C   UNL     1       2.003  12.720  18.152  0.00  0.00    +0.000 A 
ATOM     20  N   UNL     1       2.471  11.472  18.089  0.00  0.00    +0.000 NA
ATOM     21  N   UNL     1       1.427  10.669  18.479  0.00  0.00    +0.000 N 
ATOM     22  C   UNL     1       0.263  11.410  18.526  0.00  0.00    +0.000 A 
ENDROOT
BRANCH  21  23
ATOM     23  C   UNL     1       1.709   9.347  18.918  0.00  0.00    +0.000 A 
ATOM     24  C   UNL     1       2.287   8.446  18.011  0.00  0.00    +0.000 A 
ATOM     25  C   UNL     1       2.607   7.143  18.410  0.00  0.00    +0.000 A 
ATOM     26  C   UNL     1       2.322   6.712  19.703  0.00  0.00    +0.000 A 
ATOM     27  C   UNL     1       2.616   5.304  20.134  0.00  0.00    +0.000 C 
ATOM     28  C   UNL     1       1.720   7.603  20.601  0.00  0.00    +0.000 A 
ATOM     29  C   UNL     1       1.416   8.910  20.208  0.00  0.00    +0.000 A 
ENDBRANCH  21  23
BRANCH   1  30
ATOM     30  C   UNL     1       3.273  16.825  20.980  0.00  0.00    +0.000 C 
ATOM     31  O   UNL     1       3.876  16.213  20.105  0.00  0.00    +0.000 OA
BRANCH  30  32
ATOM     32  O   UNL     1       3.828  17.181  22.171  0.00  0.00    +0.000 OA
BRANCH  32  34
ATOM     33  C   UNL     1       4.831  15.801  23.893  0.00  0.00    +0.000 C 
ATOM     34  C   UNL     1       5.009  16.438  22.527  0.00  0.00    +0.000 C 
ENDBRANCH  32  34
ENDBRANCH  30  32
ENDBRANCH   1  30
TORSDOF 4
ENDMDL
