MODEL 1
REMARK VINA RESULT:      -8.7      0.000      0.000
REMARK  Name = 
REMARK  7 active torsions:
REMARK  status: ('A' for Active; 'I' for Inactive)
REMARK    1  A    between atoms: C_1  and  C_2
REMARK    2  A    between atoms: C_7  and  N_8
REMARK    3  A    between atoms: N_8  and  N_9
REMARK    4  A    between atoms: C_10  and  C_11
REMARK    5  A    between atoms: C_10  and  C_22
REMARK    6  A    between atoms: N_13  and  C_14
REMARK    7  A    between atoms: C_22  and  C_24
REMARK                            x       y       z     vdW  Elec       q    Type
REMARK                         _______ _______ _______ _____ _____    ______ ____
ROOT
ATOM      1  N   UNL     1       6.328   7.064  17.596  0.00  0.00    +0.000 NA
ATOM      2  C   UNL     1       6.120   5.800  17.320  0.00  0.00    +0.000 C 
ENDROOT
BRANCH   2   3
ATOM      3  C   UNL     1       4.810   5.199  17.795  0.00  0.00    +0.000 C 
ATOM      4  O   UNL     1       3.935   5.000  16.970  0.00  0.00    +0.000 OA
ATOM      5  N   UNL     1       4.719   4.988  19.161  0.00  0.00    +0.000 N 
ATOM      6  H   UNL     1       5.266   5.654  19.706  0.00  0.00    +0.000 HD
BRANCH   5   7
ATOM      7  C   UNL     1       3.513   4.496  19.732  0.00  0.00    +0.000 A 
ATOM      8  C   UNL     1       3.331   3.139  20.064  0.00  0.00    +0.000 A 
ATOM      9 CL   UNL     1       4.640   2.003  20.077  0.00  0.00    +0.000 Cl
ATOM     10  C   UNL     1       2.092   2.678  20.525  0.00  0.00    +0.000 A 
ATOM     11  C   UNL     1       1.027   3.563  20.678  0.00  0.00    +0.000 A 
ATOM     12  C   UNL     1       1.212   4.918  20.414  0.00  0.00    +0.000 A 
ATOM     13  C   UNL     1       2.451   5.386  19.964  0.00  0.00    +0.000 A 
ATOM     14 CL   UNL     1       2.617   7.076  19.636  0.00  0.00    +0.000 Cl
ENDBRANCH   5   7
ENDBRANCH   2   3
BRANCH   1  15
ATOM     15  N   UNL     1       7.478   7.608  17.117  0.00  0.00    +0.000 N 
ATOM     16  H   UNL     1       7.907   7.267  16.247  0.00  0.00    +0.000 HD
BRANCH  15  23
ATOM     17  C   UNL     1       9.319  14.674  19.148  0.00  0.00    +0.000 C 
ATOM     18  C   UNL     1       9.044  13.242  18.854  0.00  0.00    +0.000 A 
ATOM     19  N   UNL     1       9.469  12.237  19.586  0.00  0.00    +0.000 NA
ATOM     20  C   UNL     1       9.047  11.039  19.031  0.00  0.00    +0.000 A 
ATOM     21  C   UNL     1       9.314   9.750  19.532  0.00  0.00    +0.000 A 
ATOM     22  C   UNL     1       8.805   8.627  18.864  0.00  0.00    +0.000 A 
ATOM     23  C   UNL     1       8.035   8.756  17.701  0.00  0.00    +0.000 A 
ATOM     24  C   UNL     1       7.782  10.036  17.191  0.00  0.00    +0.000 A 
ATOM     25  C   UNL     1       8.290  11.158  17.866  0.00  0.00    +0.000 A 
ATOM     26  S   UNL     1       8.116  12.823  17.474  0.00  0.00    +0.000 S 
ENDBRANCH  15  23
ENDBRANCH   1  15
BRANCH   2  27
ATOM     27  C   UNL     1       7.121   4.947  16.561  0.00  0.00    +0.000 C 
ATOM     28  O   UNL     1       8.060   4.449  17.180  0.00  0.00    +0.000 OA
BRANCH  27  29
ATOM     29  C   UNL     1       6.958   4.692  15.110  0.00  0.00    +0.000 A 
ATOM     30  C   UNL     1       7.809   5.369  14.227  0.00  0.00    +0.000 A 
ATOM     31  C   UNL     1       7.709   5.155  12.852  0.00  0.00    +0.000 A 
ATOM     32  C   UNL     1       6.761   4.261  12.356  0.00  0.00    +0.000 A 
ATOM     33  C   UNL     1       5.915   3.581  13.231  0.00  0.00    +0.000 A 
ATOM     34  C   UNL     1       6.015   3.788  14.610  0.00  0.00    +0.000 A 
ENDBRANCH  27  29
ENDBRANCH   2  27
TORSDOF 6
ENDMDL
MODEL 2
REMARK VINA RESULT:      -8.6      0.155      1.829
REMARK  Name = 
REMARK  7 active torsions:
REMARK  status: ('A' for Active; 'I' for Inactive)
REMARK    1  A    between atoms: C_1  and  C_2
REMARK    2  A    between atoms: C_7  and  N_8
REMARK    3  A    between atoms: N_8  and  N_9
REMARK    4  A    between atoms: C_10  and  C_11
REMARK    5  A    between atoms: C_10  and  C_22
REMARK    6  A    between atoms: N_13  and  C_14
REMARK    7  A    between atoms: C_22  and  C_24
REMARK                            x       y       z     vdW  Elec       q    Type
REMARK                         _______ _______ _______ _____ _____    ______ ____
ROOT
ATOM      1  N   UNL     1       6.332   7.117  17.570  0.00  0.00    +0.000 NA
ATOM      2  C   UNL     1       6.120   5.851  17.305  0.00  0.00    +0.000 C 
ENDROOT
BRANCH   2   3
ATOM      3  C   UNL     1       4.795   5.266  17.757  0.00  0.00    +0.000 C 
ATOM      4  O   UNL     1       3.923   5.104  16.921  0.00  0.00    +0.000 OA
ATOM      5  N   UNL     1       4.689   5.026  19.118  0.00  0.00    +0.000 N 
ATOM      6  H   UNL     1       5.246   5.668  19.681  0.00  0.00    +0.000 HD
BRANCH   5   7
ATOM      7  C   UNL     1       3.469   4.546  19.669  0.00  0.00    +0.000 A 
ATOM      8  C   UNL     1       2.405   5.404  20.011  0.00  0.00    +0.000 A 
ATOM      9 CL   UNL     1       2.365   7.070  19.536  0.00  0.00    +0.000 Cl
ATOM     10  C   UNL     1       1.264   4.902  20.648  0.00  0.00    +0.000 A 
ATOM     11  C   UNL     1       1.160   3.543  20.936  0.00  0.00    +0.000 A 
ATOM     12  C   UNL     1       2.177   2.675  20.545  0.00  0.00    +0.000 A 
ATOM     13  C   UNL     1       3.315   3.170  19.898  0.00  0.00    +0.000 A 
ATOM     14 CL   UNL     1       4.554   2.047  19.452  0.00  0.00    +0.000 Cl
ENDBRANCH   5   7
ENDBRANCH   2   3
BRANCH   1  15
ATOM     15  N   UNL     1       7.496   7.646  17.111  0.00  0.00    +0.000 N 
ATOM     16  H   UNL     1       7.936   7.300  16.249  0.00  0.00    +0.000 HD
BRANCH  15  23
ATOM     17  C   UNL     1       9.374  14.689  19.187  0.00  0.00    +0.000 C 
ATOM     18  C   UNL     1       9.091  13.261  18.885  0.00  0.00    +0.000 A 
ATOM     19  N   UNL     1       9.504  12.249  19.615  0.00  0.00    +0.000 NA
ATOM     20  C   UNL     1       9.078  11.057  19.052  0.00  0.00    +0.000 A 
ATOM     21  C   UNL     1       9.332   9.764  19.548  0.00  0.00    +0.000 A 
ATOM     22  C   UNL     1       8.820   8.647  18.871  0.00  0.00    +0.000 A 
ATOM     23  C   UNL     1       8.058   8.787  17.704  0.00  0.00    +0.000 A 
ATOM     24  C   UNL     1       7.817  10.072  17.198  0.00  0.00    +0.000 A 
ATOM     25  C   UNL     1       8.329  11.187  17.882  0.00  0.00    +0.000 A 
ATOM     26  S   UNL     1       8.170  12.855  17.496  0.00  0.00    +0.000 S 
ENDBRANCH  15  23
ENDBRANCH   1  15
BRANCH   2  27
ATOM     27  C   UNL     1       7.132   4.981  16.581  0.00  0.00    +0.000 C 
ATOM     28  O   UNL     1       8.037   4.463  17.233  0.00  0.00    +0.000 OA
BRANCH  27  29
ATOM     29  C   UNL     1       7.018   4.733  15.124  0.00  0.00    +0.000 A 
ATOM     30  C   UNL     1       6.052   3.815  14.690  0.00  0.00    +0.000 A 
ATOM     31  C   UNL     1       5.892   3.555  13.330  0.00  0.00    +0.000 A 
ATOM     32  C   UNL     1       6.694   4.212  12.397  0.00  0.00    +0.000 A 
ATOM     33  C   UNL     1       7.654   5.129  12.824  0.00  0.00    +0.000 A 
ATOM     34  C   UNL     1       7.815   5.398  14.186  0.00  0.00    +0.000 A 
ENDBRANCH  27  29
ENDBRANCH   2  27
TORSDOF 6
ENDMDL
MODEL 3
REMARK VINA RESULT:      -8.5      2.507      5.430
REMARK  Name = 
REMARK  7 active torsions:
REMARK  status: ('A' for Active; 'I' for Inactive)
REMARK    1  A    between atoms: C_1  and  C_2
REMARK    2  A    between atoms: C_7  and  N_8
REMARK    3  A    between atoms: N_8  and  N_9
REMARK    4  A    between atoms: C_10  and  C_11
REMARK    5  A    between atoms: C_10  and  C_22
REMARK    6  A    between atoms: N_13  and  C_14
REMARK    7  A    between atoms: C_22  and  C_24
REMARK                            x       y       z     vdW  Elec       q    Type
REMARK                         _______ _______ _______ _____ _____    ______ ____
ROOT
ATOM      1  N   UNL     1       7.700   8.116  17.199  0.00  0.00    +0.000 NA
ATOM      2  C   UNL     1       7.140   6.933  17.246  0.00  0.00    +0.000 C 
ENDROOT
BRANCH   2   3
ATOM      3  C   UNL     1       6.638   6.356  15.935  0.00  0.00    +0.000 C 
ATOM      4  O   UNL     1       5.557   6.732  15.518  0.00  0.00    +0.000 OA
ATOM      5  N   UNL     1       7.455   5.394  15.363  0.00  0.00    +0.000 N 
ATOM      6  H   UNL     1       7.983   4.858  16.050  0.00  0.00    +0.000 HD
BRANCH   5   7
ATOM      7  C   UNL     1       7.054   4.730  14.171  0.00  0.00    +0.000 A 
ATOM      8  C   UNL     1       7.623   5.022  12.915  0.00  0.00    +0.000 A 
ATOM      9 CL   UNL     1       9.045   5.998  12.743  0.00  0.00    +0.000 Cl
ATOM     10  C   UNL     1       7.126   4.422  11.752  0.00  0.00    +0.000 A 
ATOM     11  C   UNL     1       6.073   3.513  11.825  0.00  0.00    +0.000 A 
ATOM     12  C   UNL     1       5.545   3.168  13.067  0.00  0.00    +0.000 A 
ATOM     13  C   UNL     1       6.045   3.756  14.234  0.00  0.00    +0.000 A 
ATOM     14 CL   UNL     1       5.338   3.302  15.746  0.00  0.00    +0.000 Cl
ENDBRANCH   5   7
ENDBRANCH   2   3
BRANCH   1  15
ATOM     15  N   UNL     1       8.198   8.599  18.368  0.00  0.00    +0.000 N 
ATOM     16  H   UNL     1       8.351   7.983  19.177  0.00  0.00    +0.000 HD
BRANCH  15  23
ATOM     17  C   UNL     1      12.126  14.918  19.807  0.00  0.00    +0.000 C 
ATOM     18  C   UNL     1      11.267  13.759  19.446  0.00  0.00    +0.000 A 
ATOM     19  N   UNL     1      10.277  13.806  18.583  0.00  0.00    +0.000 NA
ATOM     20  C   UNL     1       9.678  12.560  18.486  0.00  0.00    +0.000 A 
ATOM     21  C   UNL     1       8.582  12.226  17.667  0.00  0.00    +0.000 A 
ATOM     22  C   UNL     1       8.092  10.911  17.667  0.00  0.00    +0.000 A 
ATOM     23  C   UNL     1       8.668   9.917  18.467  0.00  0.00    +0.000 A 
ATOM     24  C   UNL     1       9.748  10.251  19.295  0.00  0.00    +0.000 A 
ATOM     25  C   UNL     1      10.238  11.567  19.289  0.00  0.00    +0.000 A 
ATOM     26  S   UNL     1      11.546  12.236  20.183  0.00  0.00    +0.000 S 
ENDBRANCH  15  23
ENDBRANCH   1  15
BRANCH   2  27
ATOM     27  C   UNL     1       6.982   6.147  18.536  0.00  0.00    +0.000 C 
ATOM     28  O   UNL     1       7.934   6.092  19.313  0.00  0.00    +0.000 OA
BRANCH  27  29
ATOM     29  C   UNL     1       5.700   5.484  18.871  0.00  0.00    +0.000 A 
ATOM     30  C   UNL     1       4.538   6.268  18.871  0.00  0.00    +0.000 A 
ATOM     31  C   UNL     1       3.302   5.691  19.164  0.00  0.00    +0.000 A 
ATOM     32  C   UNL     1       3.222   4.330  19.455  0.00  0.00    +0.000 A 
ATOM     33  C   UNL     1       4.375   3.545  19.453  0.00  0.00    +0.000 A 
ATOM     34  C   UNL     1       5.615   4.117  19.153  0.00  0.00    +0.000 A 
ENDBRANCH  27  29
ENDBRANCH   2  27
TORSDOF 6
ENDMDL
MODEL 4
REMARK VINA RESULT:      -8.4      2.506      5.368
REMARK  Name = 
REMARK  7 active torsions:
REMARK  status: ('A' for Active; 'I' for Inactive)
REMARK    1  A    between atoms: C_1  and  C_2
REMARK    2  A    between atoms: C_7  and  N_8
REMARK    3  A    between atoms: N_8  and  N_9
REMARK    4  A    between atoms: C_10  and  C_11
REMARK    5  A    between atoms: C_10  and  C_22
REMARK    6  A    between atoms: N_13  and  C_14
REMARK    7  A    between atoms: C_22  and  C_24
REMARK                            x       y       z     vdW  Elec       q    Type
REMARK                         _______ _______ _______ _____ _____    ______ ____
ROOT
ATOM      1  N   UNL     1       7.724   8.119  17.188  0.00  0.00    +0.000 NA
ATOM      2  C   UNL     1       7.140   6.948  17.243  0.00  0.00    +0.000 C 
ENDROOT
BRANCH   2   3
ATOM      3  C   UNL     1       6.592   6.390  15.942  0.00  0.00    +0.000 C 
ATOM      4  O   UNL     1       5.538   6.837  15.525  0.00  0.00    +0.000 OA
ATOM      5  N   UNL     1       7.334   5.364  15.381  0.00  0.00    +0.000 N 
ATOM      6  H   UNL     1       7.827   4.801  16.074  0.00  0.00    +0.000 HD
BRANCH   5   7
ATOM      7  C   UNL     1       6.881   4.714  14.200  0.00  0.00    +0.000 A 
ATOM      8  C   UNL     1       5.777   3.838  14.194  0.00  0.00    +0.000 A 
ATOM      9 CL   UNL     1       4.703   3.688  15.546  0.00  0.00    +0.000 Cl
ATOM     10  C   UNL     1       5.430   3.138  13.033  0.00  0.00    +0.000 A 
ATOM     11  C   UNL     1       6.162   3.314  11.861  0.00  0.00    +0.000 A 
ATOM     12  C   UNL     1       7.215   4.226  11.836  0.00  0.00    +0.000 A 
ATOM     13  C   UNL     1       7.560   4.936  12.991  0.00  0.00    +0.000 A 
ATOM     14 CL   UNL     1       8.888   6.042  12.905  0.00  0.00    +0.000 Cl
ENDBRANCH   5   7
ENDBRANCH   2   3
BRANCH   1  15
ATOM     15  N   UNL     1       8.263   8.583  18.347  0.00  0.00    +0.000 N 
ATOM     16  H   UNL     1       8.466   7.951  19.131  0.00  0.00    +0.000 HD
BRANCH  15  23
ATOM     17  C   UNL     1      12.070  14.962  19.850  0.00  0.00    +0.000 C 
ATOM     18  C   UNL     1      11.233  13.790  19.477  0.00  0.00    +0.000 A 
ATOM     19  N   UNL     1      10.242  13.827  18.615  0.00  0.00    +0.000 NA
ATOM     20  C   UNL     1       9.667  12.571  18.505  0.00  0.00    +0.000 A 
ATOM     21  C   UNL     1       8.577  12.224  17.684  0.00  0.00    +0.000 A 
ATOM     22  C   UNL     1       8.112  10.901  17.670  0.00  0.00    +0.000 A 
ATOM     23  C   UNL     1       8.708   9.909  18.459  0.00  0.00    +0.000 A 
ATOM     24  C   UNL     1       9.783  10.255  19.290  0.00  0.00    +0.000 A 
ATOM     25  C   UNL     1      10.246  11.581  19.298  0.00  0.00    +0.000 A 
ATOM     26  S   UNL     1      11.542  12.264  20.197  0.00  0.00    +0.000 S 
ENDBRANCH  15  23
ENDBRANCH   1  15
BRANCH   2  27
ATOM     27  C   UNL     1       7.000   6.157  18.532  0.00  0.00    +0.000 C 
ATOM     28  O   UNL     1       7.960   6.105  19.299  0.00  0.00    +0.000 OA
BRANCH  27  29
ATOM     29  C   UNL     1       5.725   5.485  18.878  0.00  0.00    +0.000 A 
ATOM     30  C   UNL     1       5.743   4.094  19.049  0.00  0.00    +0.000 A 
ATOM     31  C   UNL     1       4.575   3.414  19.390  0.00  0.00    +0.000 A 
ATOM     32  C   UNL     1       3.385   4.119  19.564  0.00  0.00    +0.000 A 
ATOM     33  C   UNL     1       3.363   5.504  19.399  0.00  0.00    +0.000 A 
ATOM     34  C   UNL     1       4.532   6.192  19.063  0.00  0.00    +0.000 A 
ENDBRANCH  27  29
ENDBRANCH   2  27
TORSDOF 6
ENDMDL
MODEL 5
REMARK VINA RESULT:      -8.4      0.641      1.633
REMARK  Name = 
REMARK  7 active torsions:
REMARK  status: ('A' for Active; 'I' for Inactive)
REMARK    1  A    between atoms: C_1  and  C_2
REMARK    2  A    between atoms: C_7  and  N_8
REMARK    3  A    between atoms: N_8  and  N_9
REMARK    4  A    between atoms: C_10  and  C_11
REMARK    5  A    between atoms: C_10  and  C_22
REMARK    6  A    between atoms: N_13  and  C_14
REMARK    7  A    between atoms: C_22  and  C_24
REMARK                            x       y       z     vdW  Elec       q    Type
REMARK                         _______ _______ _______ _____ _____    ______ ____
ROOT
ATOM      1  N   UNL     1       6.312   7.332  17.587  0.00  0.00    +0.000 NA
ATOM      2  C   UNL     1       6.006   6.097  17.276  0.00  0.00    +0.000 C 
ENDROOT
BRANCH   2   3
ATOM      3  C   UNL     1       4.600   5.632  17.609  0.00  0.00    +0.000 C 
ATOM      4  O   UNL     1       3.675   6.092  16.963  0.00  0.00    +0.000 OA
ATOM      5  N   UNL     1       4.506   4.758  18.680  0.00  0.00    +0.000 N 
ATOM      6  H   UNL     1       5.234   4.901  19.378  0.00  0.00    +0.000 HD
BRANCH   5   7
ATOM      7  C   UNL     1       3.233   4.311  19.130  0.00  0.00    +0.000 A 
ATOM      8  C   UNL     1       2.369   5.127  19.887  0.00  0.00    +0.000 A 
ATOM      9 CL   UNL     1       2.642   6.825  20.098  0.00  0.00    +0.000 Cl
ATOM     10  C   UNL     1       1.172   4.613  20.401  0.00  0.00    +0.000 A 
ATOM     11  C   UNL     1       0.812   3.290  20.152  0.00  0.00    +0.000 A 
ATOM     12  C   UNL     1       1.627   2.492  19.352  0.00  0.00    +0.000 A 
ATOM     13  C   UNL     1       2.819   3.004  18.827  0.00  0.00    +0.000 A 
ATOM     14 CL   UNL     1       3.798   1.961  17.854  0.00  0.00    +0.000 Cl
ENDBRANCH   5   7
ENDBRANCH   2   3
BRANCH   1  15
ATOM     15  N   UNL     1       7.554   7.757  17.233  0.00  0.00    +0.000 N 
ATOM     16  H   UNL     1       8.069   7.314  16.461  0.00  0.00    +0.000 HD
BRANCH  15  23
ATOM     17  C   UNL     1       9.419  14.851  19.140  0.00  0.00    +0.000 C 
ATOM     18  C   UNL     1       9.139  13.415  18.873  0.00  0.00    +0.000 A 
ATOM     19  N   UNL     1       9.554  12.422  19.627  0.00  0.00    +0.000 NA
ATOM     20  C   UNL     1       9.130  11.216  19.092  0.00  0.00    +0.000 A 
ATOM     21  C   UNL     1       9.387   9.935  19.618  0.00  0.00    +0.000 A 
ATOM     22  C   UNL     1       8.876   8.802  18.968  0.00  0.00    +0.000 A 
ATOM     23  C   UNL     1       8.114   8.913  17.799  0.00  0.00    +0.000 A 
ATOM     24  C   UNL     1       7.870  10.185  17.263  0.00  0.00    +0.000 A 
ATOM     25  C   UNL     1       8.380  11.316  17.920  0.00  0.00    +0.000 A 
ATOM     26  S   UNL     1       8.218  12.974  17.495  0.00  0.00    +0.000 S 
ENDBRANCH  15  23
ENDBRANCH   1  15
BRANCH   2  27
ATOM     27  C   UNL     1       6.988   5.147  16.614  0.00  0.00    +0.000 C 
ATOM     28  O   UNL     1       7.879   4.649  17.298  0.00  0.00    +0.000 OA
BRANCH  27  29
ATOM     29  C   UNL     1       6.859   4.800  15.179  0.00  0.00    +0.000 A 
ATOM     30  C   UNL     1       7.757   5.391  14.279  0.00  0.00    +0.000 A 
ATOM     31  C   UNL     1       7.691   5.088  12.920  0.00  0.00    +0.000 A 
ATOM     32  C   UNL     1       6.731   4.191  12.454  0.00  0.00    +0.000 A 
ATOM     33  C   UNL     1       5.838   3.596  13.345  0.00  0.00    +0.000 A 
ATOM     34  C   UNL     1       5.904   3.892  14.710  0.00  0.00    +0.000 A 
ENDBRANCH  27  29
ENDBRANCH   2  27
TORSDOF 6
ENDMDL
MODEL 6
REMARK VINA RESULT:      -8.3      1.018      1.325
REMARK  Name = 
REMARK  7 active torsions:
REMARK  status: ('A' for Active; 'I' for Inactive)
REMARK    1  A    between atoms: C_1  and  C_2
REMARK    2  A    between atoms: C_7  and  N_8
REMARK    3  A    between atoms: N_8  and  N_9
REMARK    4  A    between atoms: C_10  and  C_11
REMARK    5  A    between atoms: C_10  and  C_22
REMARK    6  A    between atoms: N_13  and  C_14
REMARK    7  A    between atoms: C_22  and  C_24
REMARK                            x       y       z     vdW  Elec       q    Type
REMARK                         _______ _______ _______ _____ _____    ______ ____
ROOT
ATOM      1  N   UNL     1       6.270   6.906  17.951  0.00  0.00    +0.000 NA
ATOM      2  C   UNL     1       6.263   5.602  17.824  0.00  0.00    +0.000 C 
ENDROOT
BRANCH   2   3
ATOM      3  C   UNL     1       5.219   4.838  18.618  0.00  0.00    +0.000 C 
ATOM      4  O   UNL     1       5.596   4.144  19.546  0.00  0.00    +0.000 OA
ATOM      5  N   UNL     1       3.918   4.966  18.158  0.00  0.00    +0.000 N 
ATOM      6  H   UNL     1       3.863   5.119  17.152  0.00  0.00    +0.000 HD
BRANCH   5   7
ATOM      7  C   UNL     1       2.864   4.240  18.778  0.00  0.00    +0.000 A 
ATOM      8  C   UNL     1       2.616   2.881  18.501  0.00  0.00    +0.000 A 
ATOM      9 CL   UNL     1       3.730   1.897  17.608  0.00  0.00    +0.000 Cl
ATOM     10  C   UNL     1       1.505   2.233  19.051  0.00  0.00    +0.000 A 
ATOM     11  C   UNL     1       0.638   2.922  19.897  0.00  0.00    +0.000 A 
ATOM     12  C   UNL     1       0.907   4.248  20.230  0.00  0.00    +0.000 A 
ATOM     13  C   UNL     1       2.023   4.897  19.691  0.00  0.00    +0.000 A 
ATOM     14 CL   UNL     1       2.298   6.548  20.126  0.00  0.00    +0.000 Cl
ENDBRANCH   5   7
ENDBRANCH   2   3
BRANCH   1  15
ATOM     15  N   UNL     1       7.171   7.584  17.192  0.00  0.00    +0.000 N 
ATOM     16  H   UNL     1       7.292   7.374  16.194  0.00  0.00    +0.000 HD
BRANCH  15  23
ATOM     17  C   UNL     1       9.628  14.540  18.933  0.00  0.00    +0.000 C 
ATOM     18  C   UNL     1       9.240  13.125  18.687  0.00  0.00    +0.000 A 
ATOM     19  N   UNL     1       9.679  12.100  19.384  0.00  0.00    +0.000 NA
ATOM     20  C   UNL     1       9.132  10.927  18.890  0.00  0.00    +0.000 A 
ATOM     21  C   UNL     1       9.373   9.627  19.377  0.00  0.00    +0.000 A 
ATOM     22  C   UNL     1       8.732   8.533  18.779  0.00  0.00    +0.000 A 
ATOM     23  C   UNL     1       7.853   8.700  17.701  0.00  0.00    +0.000 A 
ATOM     24  C   UNL     1       7.624   9.990  17.204  0.00  0.00    +0.000 A 
ATOM     25  C   UNL     1       8.265  11.084  17.809  0.00  0.00    +0.000 A 
ATOM     26  S   UNL     1       8.150  12.754  17.416  0.00  0.00    +0.000 S 
ENDBRANCH  15  23
ENDBRANCH   1  15
BRANCH   2  27
ATOM     27  C   UNL     1       7.240   4.856  16.933  0.00  0.00    +0.000 C 
ATOM     28  O   UNL     1       8.285   4.435  17.426  0.00  0.00    +0.000 OA
BRANCH  27  29
ATOM     29  C   UNL     1       6.932   4.611  15.504  0.00  0.00    +0.000 A 
ATOM     30  C   UNL     1       5.805   3.835  15.202  0.00  0.00    +0.000 A 
ATOM     31  C   UNL     1       5.460   3.585  13.874  0.00  0.00    +0.000 A 
ATOM     32  C   UNL     1       6.237   4.112  12.843  0.00  0.00    +0.000 A 
ATOM     33  C   UNL     1       7.358   4.888  13.139  0.00  0.00    +0.000 A 
ATOM     34  C   UNL     1       7.704   5.146  14.468  0.00  0.00    +0.000 A 
ENDBRANCH  27  29
ENDBRANCH   2  27
TORSDOF 6
ENDMDL
MODEL 7
REMARK VINA RESULT:      -8.2      6.409     10.159
REMARK  Name = 
REMARK  7 active torsions:
REMARK  status: ('A' for Active; 'I' for Inactive)
REMARK    1  A    between atoms: C_1  and  C_2
REMARK    2  A    between atoms: C_7  and  N_8
REMARK    3  A    between atoms: N_8  and  N_9
REMARK    4  A    between atoms: C_10  and  C_11
REMARK    5  A    between atoms: C_10  and  C_22
REMARK    6  A    between atoms: N_13  and  C_14
REMARK    7  A    between atoms: C_22  and  C_24
REMARK                            x       y       z     vdW  Elec       q    Type
REMARK                         _______ _______ _______ _____ _____    ______ ____
ROOT
ATOM      1  N   UNL     1       2.023  10.137  18.175  0.00  0.00    +0.000 NA
ATOM      2  C   UNL     1       1.113  10.776  18.868  0.00  0.00    +0.000 C 
ENDROOT
BRANCH   2   3
ATOM      3  C   UNL     1       1.452  12.187  19.314  0.00  0.00    +0.000 C 
ATOM      4  O   UNL     1       1.736  12.367  20.485  0.00  0.00    +0.000 OA
ATOM      5  N   UNL     1       1.343  13.158  18.332  0.00  0.00    +0.000 N 
ATOM      6  H   UNL     1       0.634  12.942  17.632  0.00  0.00    +0.000 HD
BRANCH   5   7
ATOM      7  C   UNL     1       1.565  14.527  18.649  0.00  0.00    +0.000 A 
ATOM      8  C   UNL     1       0.541  15.370  19.123  0.00  0.00    +0.000 A 
ATOM      9 CL   UNL     1      -1.001  14.763  19.631  0.00  0.00    +0.000 Cl
ATOM     10  C   UNL     1       0.777  16.735  19.323  0.00  0.00    +0.000 A 
ATOM     11  C   UNL     1       2.038  17.273  19.071  0.00  0.00    +0.000 A 
ATOM     12  C   UNL     1       3.076  16.439  18.664  0.00  0.00    +0.000 A 
ATOM     13  C   UNL     1       2.847  15.071  18.474  0.00  0.00    +0.000 A 
ATOM     14 CL   UNL     1       4.170  14.087  17.951  0.00  0.00    +0.000 Cl
ENDBRANCH   5   7
ENDBRANCH   2   3
BRANCH   1  15
ATOM     15  N   UNL     1       1.688   8.897  17.731  0.00  0.00    +0.000 N 
ATOM     16  H   UNL     1       0.910   8.758  17.075  0.00  0.00    +0.000 HD
BRANCH  15  23
ATOM     17  C   UNL     1       4.469   2.273  20.147  0.00  0.00    +0.000 C 
ATOM     18  C   UNL     1       4.047   3.592  19.604  0.00  0.00    +0.000 A 
ATOM     19  N   UNL     1       4.733   4.290  18.726  0.00  0.00    +0.000 NA
ATOM     20  C   UNL     1       4.067   5.471  18.440  0.00  0.00    +0.000 A 
ATOM     21  C   UNL     1       4.497   6.474  17.550  0.00  0.00    +0.000 A 
ATOM     22  C   UNL     1       3.704   7.614  17.353  0.00  0.00    +0.000 A 
ATOM     23  C   UNL     1       2.487   7.781  18.025  0.00  0.00    +0.000 A 
ATOM     24  C   UNL     1       2.064   6.792  18.924  0.00  0.00    +0.000 A 
ATOM     25  C   UNL     1       2.860   5.651  19.114  0.00  0.00    +0.000 A 
ATOM     26  S   UNL     1       2.574   4.294  20.130  0.00  0.00    +0.000 S 
ENDBRANCH  15  23
ENDBRANCH   1  15
BRANCH   2  27
ATOM     27  C   UNL     1      -0.230  10.164  19.225  0.00  0.00    +0.000 C 
ATOM     28  O   UNL     1      -0.302   9.442  20.218  0.00  0.00    +0.000 OA
BRANCH  27  29
ATOM     29  C   UNL     1      -1.437  10.454  18.417  0.00  0.00    +0.000 A 
ATOM     30  C   UNL     1      -2.346  11.398  18.912  0.00  0.00    +0.000 A 
ATOM     31  C   UNL     1      -3.491  11.720  18.185  0.00  0.00    +0.000 A 
ATOM     32  C   UNL     1      -3.732  11.101  16.959  0.00  0.00    +0.000 A 
ATOM     33  C   UNL     1      -2.829  10.163  16.459  0.00  0.00    +0.000 A 
ATOM     34  C   UNL     1      -1.677   9.842  17.182  0.00  0.00    +0.000 A 
ENDBRANCH  27  29
ENDBRANCH   2  27
TORSDOF 6
ENDMDL
MODEL 8
REMARK VINA RESULT:      -8.1      6.272     10.062
REMARK  Name = 
REMARK  7 active torsions:
REMARK  status: ('A' for Active; 'I' for Inactive)
REMARK    1  A    between atoms: C_1  and  C_2
REMARK    2  A    between atoms: C_7  and  N_8
REMARK    3  A    between atoms: N_8  and  N_9
REMARK    4  A    between atoms: C_10  and  C_11
REMARK    5  A    between atoms: C_10  and  C_22
REMARK    6  A    between atoms: N_13  and  C_14
REMARK    7  A    between atoms: C_22  and  C_24
REMARK                            x       y       z     vdW  Elec       q    Type
REMARK                         _______ _______ _______ _____ _____    ______ ____
ROOT
ATOM      1  N   UNL     1       2.175  10.211  18.099  0.00  0.00    +0.000 NA
ATOM      2  C   UNL     1       1.299  10.838  18.845  0.00  0.00    +0.000 C 
ENDROOT
BRANCH   2   3
ATOM      3  C   UNL     1       1.660  12.242  19.294  0.00  0.00    +0.000 C 
ATOM      4  O   UNL     1       1.741  12.460  20.490  0.00  0.00    +0.000 OA
ATOM      5  N   UNL     1       1.803  13.170  18.275  0.00  0.00    +0.000 N 
ATOM      6  H   UNL     1       1.218  12.968  17.465  0.00  0.00    +0.000 HD
BRANCH   5   7
ATOM      7  C   UNL     1       2.069  14.533  18.578  0.00  0.00    +0.000 A 
ATOM      8  C   UNL     1       3.371  15.072  18.563  0.00  0.00    +0.000 A 
ATOM      9 CL   UNL     1       4.725  14.212  17.906  0.00  0.00    +0.000 Cl
ATOM     10  C   UNL     1       3.601  16.391  18.971  0.00  0.00    +0.000 A 
ATOM     11  C   UNL     1       2.538  17.195  19.379  0.00  0.00    +0.000 A 
ATOM     12  C   UNL     1       1.239  16.695  19.337  0.00  0.00    +0.000 A 
ATOM     13  C   UNL     1       1.003  15.380  18.920  0.00  0.00    +0.000 A 
ATOM     14 CL   UNL     1      -0.630  14.808  18.905  0.00  0.00    +0.000 Cl
ENDBRANCH   5   7
ENDBRANCH   2   3
BRANCH   1  15
ATOM     15  N   UNL     1       1.819   8.977  17.653  0.00  0.00    +0.000 N 
ATOM     16  H   UNL     1       1.044   8.853  16.989  0.00  0.00    +0.000 HD
BRANCH  15  23
ATOM     17  C   UNL     1       4.446   2.313  20.130  0.00  0.00    +0.000 C 
ATOM     18  C   UNL     1       4.055   3.636  19.574  0.00  0.00    +0.000 A 
ATOM     19  N   UNL     1       4.756   4.309  18.689  0.00  0.00    +0.000 NA
ATOM     20  C   UNL     1       4.118   5.503  18.392  0.00  0.00    +0.000 A 
ATOM     21  C   UNL     1       4.570   6.487  17.493  0.00  0.00    +0.000 A 
ATOM     22  C   UNL     1       3.804   7.643  17.286  0.00  0.00    +0.000 A 
ATOM     23  C   UNL     1       2.591   7.845  17.957  0.00  0.00    +0.000 A 
ATOM     24  C   UNL     1       2.146   6.875  18.865  0.00  0.00    +0.000 A 
ATOM     25  C   UNL     1       2.915   5.717  19.066  0.00  0.00    +0.000 A 
ATOM     26  S   UNL     1       2.598   4.377  20.095  0.00  0.00    +0.000 S 
ENDBRANCH  15  23
ENDBRANCH   1  15
BRANCH   2  27
ATOM     27  C   UNL     1      -0.024  10.219  19.259  0.00  0.00    +0.000 C 
ATOM     28  O   UNL     1      -0.038   9.441  20.211  0.00  0.00    +0.000 OA
BRANCH  27  29
ATOM     29  C   UNL     1      -1.280  10.566  18.554  0.00  0.00    +0.000 A 
ATOM     30  C   UNL     1      -1.564   9.898  17.355  0.00  0.00    +0.000 A 
ATOM     31  C   UNL     1      -2.740  10.174  16.659  0.00  0.00    +0.000 A 
ATOM     32  C   UNL     1      -3.637  11.117  17.157  0.00  0.00    +0.000 A 
ATOM     33  C   UNL     1      -3.361  11.783  18.351  0.00  0.00    +0.000 A 
ATOM     34  C   UNL     1      -2.187  11.505  19.057  0.00  0.00    +0.000 A 
ENDBRANCH  27  29
ENDBRANCH   2  27
TORSDOF 6
ENDMDL
MODEL 9
REMARK VINA RESULT:      -7.9      7.654     10.613
REMARK  Name = 
REMARK  7 active torsions:
REMARK  status: ('A' for Active; 'I' for Inactive)
REMARK    1  A    between atoms: C_1  and  C_2
REMARK    2  A    between atoms: C_7  and  N_8
REMARK    3  A    between atoms: N_8  and  N_9
REMARK    4  A    between atoms: C_10  and  C_11
REMARK    5  A    between atoms: C_10  and  C_22
REMARK    6  A    between atoms: N_13  and  C_14
REMARK    7  A    between atoms: C_22  and  C_24
REMARK                            x       y       z     vdW  Elec       q    Type
REMARK                         _______ _______ _______ _____ _____    ______ ____
ROOT
ATOM      1  N   UNL     1       0.861  10.359  20.330  0.00  0.00    +0.000 NA
ATOM      2  C   UNL     1       0.033  11.373  20.284  0.00  0.00    +0.000 C 
ENDROOT
BRANCH   2   3
ATOM      3  C   UNL     1      -0.336  12.021  21.606  0.00  0.00    +0.000 C 
ATOM      4  O   UNL     1      -0.064  11.425  22.634  0.00  0.00    +0.000 OA
ATOM      5  N   UNL     1      -1.015  13.224  21.505  0.00  0.00    +0.000 N 
ATOM      6  H   UNL     1      -1.586  13.291  20.663  0.00  0.00    +0.000 HD
BRANCH   5   7
ATOM      7  C   UNL     1      -1.476  13.888  22.675  0.00  0.00    +0.000 A 
ATOM      8  C   UNL     1      -0.706  14.858  23.347  0.00  0.00    +0.000 A 
ATOM      9 CL   UNL     1       0.736  15.536  22.666  0.00  0.00    +0.000 Cl
ATOM     10  C   UNL     1      -1.152  15.410  24.554  0.00  0.00    +0.000 A 
ATOM     11  C   UNL     1      -2.375  15.019  25.095  0.00  0.00    +0.000 A 
ATOM     12  C   UNL     1      -3.174  14.109  24.408  0.00  0.00    +0.000 A 
ATOM     13  C   UNL     1      -2.738  13.562  23.196  0.00  0.00    +0.000 A 
ATOM     14 CL   UNL     1      -3.766  12.424  22.395  0.00  0.00    +0.000 Cl
ENDBRANCH   5   7
ENDBRANCH   2   3
BRANCH   1  15
ATOM     15  N   UNL     1       1.230   9.823  19.137  0.00  0.00    +0.000 N 
ATOM     16  H   UNL     1       1.151  10.360  18.264  0.00  0.00    +0.000 HD
BRANCH  15  23
ATOM     17  C   UNL     1       3.570   2.683  20.133  0.00  0.00    +0.000 C 
ATOM     18  C   UNL     1       3.200   4.090  19.824  0.00  0.00    +0.000 A 
ATOM     19  N   UNL     1       3.598   4.749  18.759  0.00  0.00    +0.000 NA
ATOM     20  C   UNL     1       3.083   6.035  18.782  0.00  0.00    +0.000 A 
ATOM     21  C   UNL     1       3.296   7.035  17.813  0.00  0.00    +0.000 A 
ATOM     22  C   UNL     1       2.693   8.291  17.967  0.00  0.00    +0.000 A 
ATOM     23  C   UNL     1       1.880   8.581  19.070  0.00  0.00    +0.000 A 
ATOM     24  C   UNL     1       1.678   7.594  20.045  0.00  0.00    +0.000 A 
ATOM     25  C   UNL     1       2.281   6.336  19.883  0.00  0.00    +0.000 A 
ATOM     26  S   UNL     1       2.187   4.956  20.905  0.00  0.00    +0.000 S 
ENDBRANCH  15  23
ENDBRANCH   1  15
BRANCH   2  27
ATOM     27  C   UNL     1      -0.550  11.902  18.986  0.00  0.00    +0.000 C 
ATOM     28  O   UNL     1       0.064  12.777  18.377  0.00  0.00    +0.000 OA
BRANCH  27  29
ATOM     29  C   UNL     1      -1.817  11.357  18.443  0.00  0.00    +0.000 A 
ATOM     30  C   UNL     1      -3.016  11.955  18.853  0.00  0.00    +0.000 A 
ATOM     31  C   UNL     1      -4.236  11.492  18.362  0.00  0.00    +0.000 A 
ATOM     32  C   UNL     1      -4.263  10.432  17.456  0.00  0.00    +0.000 A 
ATOM     33  C   UNL     1      -3.072   9.836  17.042  0.00  0.00    +0.000 A 
ATOM     34  C   UNL     1      -1.847  10.300  17.527  0.00  0.00    +0.000 A 
ENDBRANCH  27  29
ENDBRANCH   2  27
TORSDOF 6
ENDMDL
