MODEL 1
REMARK VINA RESULT:      -7.0      0.000      0.000
REMARK  Name = 
REMARK  3 active torsions:
REMARK  status: ('A' for Active; 'I' for Inactive)
REMARK    1  A    between atoms: C_2  and  C_14
REMARK    2  A    between atoms: N_3  and  N_4
REMARK    3  A    between atoms: C_5  and  C_6
REMARK                            x       y       z     vdW  Elec       q    Type
REMARK                         _______ _______ _______ _____ _____    ______ ____
ROOT
ATOM      1  O   UNL     1       1.115   9.782  18.308  0.00  0.00    +0.000 OA
ATOM      2  C   UNL     1       1.231   9.188  19.372  0.00  0.00    +0.000 C 
ATOM      3  N   UNL     1       1.988   8.040  19.582  0.00  0.00    +0.000 N 
ATOM      4  H   UNL     1       1.918   7.520  20.449  0.00  0.00    +0.000 HD
ENDROOT
BRANCH   2   5
ATOM      5  C   UNL     1       0.503   9.682  20.573  0.00  0.00    +0.000 A 
ATOM      6  C   UNL     1       0.533   8.922  21.749  0.00  0.00    +0.000 A 
ATOM      7  C   UNL     1      -0.154   9.364  22.882  0.00  0.00    +0.000 A 
ATOM      8  C   UNL     1      -0.878  10.556  22.839  0.00  0.00    +0.000 A 
ATOM      9  C   UNL     1      -0.913  11.312  21.668  0.00  0.00    +0.000 A 
ATOM     10  C   UNL     1      -0.229  10.875  20.533  0.00  0.00    +0.000 A 
ENDBRANCH   2   5
BRANCH   3  11
ATOM     11  N   UNL     1       2.662   7.495  18.540  0.00  0.00    +0.000 NA
ATOM     12  C   UNL     1       3.417   6.476  18.801  0.00  0.00    +0.000 C 
BRANCH  12  13
ATOM     13  C   UNL     1       4.120   5.786  17.695  0.00  0.00    +0.000 A 
ATOM     14  C   UNL     1       4.687   6.575  16.680  0.00  0.00    +0.000 A 
ATOM     15  C   UNL     1       5.305   5.979  15.582  0.00  0.00    +0.000 A 
ATOM     16  C   UNL     1       5.358   4.592  15.495  0.00  0.00    +0.000 A 
ATOM     17 CL   UNL     1       6.091   3.854  14.125  0.00  0.00    +0.000 Cl
ATOM     18  C   UNL     1       4.814   3.797  16.503  0.00  0.00    +0.000 A 
ATOM     19  C   UNL     1       4.195   4.392  17.609  0.00  0.00    +0.000 A 
ATOM     20 CL   UNL     1       3.539   3.342  18.814  0.00  0.00    +0.000 Cl
ENDBRANCH  12  13
ENDBRANCH   3  11
TORSDOF 3
ENDMDL
MODEL 2
REMARK VINA RESULT:      -6.9      6.612      9.121
REMARK  Name = 
REMARK  3 active torsions:
REMARK  status: ('A' for Active; 'I' for Inactive)
REMARK    1  A    between atoms: C_2  and  C_14
REMARK    2  A    between atoms: N_3  and  N_4
REMARK    3  A    between atoms: C_5  and  C_6
REMARK                            x       y       z     vdW  Elec       q    Type
REMARK                         _______ _______ _______ _____ _____    ______ ____
ROOT
ATOM      1  O   UNL     1       8.104   6.305  19.047  0.00  0.00    +0.000 OA
ATOM      2  C   UNL     1       7.516   6.683  18.041  0.00  0.00    +0.000 C 
ATOM      3  N   UNL     1       7.601   7.953  17.481  0.00  0.00    +0.000 N 
ATOM      4  H   UNL     1       6.974   8.239  16.739  0.00  0.00    +0.000 HD
ENDROOT
BRANCH   2   5
ATOM      5  C   UNL     1       6.599   5.749  17.331  0.00  0.00    +0.000 A 
ATOM      6  C   UNL     1       5.237   5.752  17.656  0.00  0.00    +0.000 A 
ATOM      7  C   UNL     1       4.364   4.875  17.009  0.00  0.00    +0.000 A 
ATOM      8  C   UNL     1       4.851   3.990  16.046  0.00  0.00    +0.000 A 
ATOM      9  C   UNL     1       6.208   3.981  15.724  0.00  0.00    +0.000 A 
ATOM     10  C   UNL     1       7.084   4.855  16.368  0.00  0.00    +0.000 A 
ENDBRANCH   2   5
BRANCH   3  11
ATOM     11  N   UNL     1       8.386   8.885  18.076  0.00  0.00    +0.000 NA
ATOM     12  C   UNL     1       8.250  10.107  17.672  0.00  0.00    +0.000 C 
BRANCH  12  13
ATOM     13  C   UNL     1       9.021  11.184  18.334  0.00  0.00    +0.000 A 
ATOM     14  C   UNL     1      10.055  10.813  19.209  0.00  0.00    +0.000 A 
ATOM     15  C   UNL     1      10.772  11.782  19.910  0.00  0.00    +0.000 A 
ATOM     16  C   UNL     1      10.457  13.126  19.736  0.00  0.00    +0.000 A 
ATOM     17 CL   UNL     1      11.319  14.321  20.624  0.00  0.00    +0.000 Cl
ATOM     18  C   UNL     1       9.445  13.510  18.858  0.00  0.00    +0.000 A 
ATOM     19  C   UNL     1       8.724  12.539  18.151  0.00  0.00    +0.000 A 
ATOM     20 CL   UNL     1       7.480  13.091  17.088  0.00  0.00    +0.000 Cl
ENDBRANCH  12  13
ENDBRANCH   3  11
TORSDOF 3
ENDMDL
MODEL 3
REMARK VINA RESULT:      -6.9      0.214      1.111
REMARK  Name = 
REMARK  3 active torsions:
REMARK  status: ('A' for Active; 'I' for Inactive)
REMARK    1  A    between atoms: C_2  and  C_14
REMARK    2  A    between atoms: N_3  and  N_4
REMARK    3  A    between atoms: C_5  and  C_6
REMARK                            x       y       z     vdW  Elec       q    Type
REMARK                         _______ _______ _______ _____ _____    ______ ____
ROOT
ATOM      1  O   UNL     1       1.109   9.763  18.331  0.00  0.00    +0.000 OA
ATOM      2  C   UNL     1       1.202   9.146  19.385  0.00  0.00    +0.000 C 
ATOM      3  N   UNL     1       1.879   7.945  19.565  0.00  0.00    +0.000 N 
ATOM      4  H   UNL     1       1.788   7.418  20.426  0.00  0.00    +0.000 HD
ENDROOT
BRANCH   2   5
ATOM      5  C   UNL     1       0.533   9.673  20.606  0.00  0.00    +0.000 A 
ATOM      6  C   UNL     1       0.148  11.019  20.646  0.00  0.00    +0.000 A 
ATOM      7  C   UNL     1      -0.471  11.533  21.788  0.00  0.00    +0.000 A 
ATOM      8  C   UNL     1      -0.696  10.709  22.891  0.00  0.00    +0.000 A 
ATOM      9  C   UNL     1      -0.309   9.370  22.856  0.00  0.00    +0.000 A 
ATOM     10  C   UNL     1       0.309   8.851  21.718  0.00  0.00    +0.000 A 
ENDBRANCH   2   5
BRANCH   3  11
ATOM     11  N   UNL     1       2.494   7.369  18.502  0.00  0.00    +0.000 NA
ATOM     12  C   UNL     1       3.500   6.595  18.758  0.00  0.00    +0.000 C 
BRANCH  12  13
ATOM     13  C   UNL     1       4.167   5.875  17.649  0.00  0.00    +0.000 A 
ATOM     14  C   UNL     1       4.840   6.636  16.679  0.00  0.00    +0.000 A 
ATOM     15  C   UNL     1       5.431   6.017  15.578  0.00  0.00    +0.000 A 
ATOM     16  C   UNL     1       5.351   4.635  15.445  0.00  0.00    +0.000 A 
ATOM     17 CL   UNL     1       6.052   3.872  14.072  0.00  0.00    +0.000 Cl
ATOM     18  C   UNL     1       4.701   3.866  16.410  0.00  0.00    +0.000 A 
ATOM     19  C   UNL     1       4.109   4.484  17.517  0.00  0.00    +0.000 A 
ATOM     20 CL   UNL     1       3.316   3.466  18.666  0.00  0.00    +0.000 Cl
ENDBRANCH  12  13
ENDBRANCH   3  11
TORSDOF 3
ENDMDL
MODEL 4
REMARK VINA RESULT:      -6.9      6.188      8.011
REMARK  Name = 
REMARK  3 active torsions:
REMARK  status: ('A' for Active; 'I' for Inactive)
REMARK    1  A    between atoms: C_2  and  C_14
REMARK    2  A    between atoms: N_3  and  N_4
REMARK    3  A    between atoms: C_5  and  C_6
REMARK                            x       y       z     vdW  Elec       q    Type
REMARK                         _______ _______ _______ _____ _____    ______ ____
ROOT
ATOM      1  O   UNL     1       9.014   9.796  20.137  0.00  0.00    +0.000 OA
ATOM      2  C   UNL     1       9.210  10.300  19.039  0.00  0.00    +0.000 C 
ATOM      3  N   UNL     1       8.515  10.001  17.872  0.00  0.00    +0.000 N 
ATOM      4  H   UNL     1       8.830  10.347  16.974  0.00  0.00    +0.000 HD
ENDROOT
BRANCH   2   5
ATOM      5  C   UNL     1      10.291  11.312  18.877  0.00  0.00    +0.000 A 
ATOM      6  C   UNL     1      10.612  11.767  17.592  0.00  0.00    +0.000 A 
ATOM      7  C   UNL     1      11.631  12.707  17.420  0.00  0.00    +0.000 A 
ATOM      8  C   UNL     1      12.333  13.185  18.527  0.00  0.00    +0.000 A 
ATOM      9  C   UNL     1      12.018  12.731  19.807  0.00  0.00    +0.000 A 
ATOM     10  C   UNL     1      11.002  11.792  19.984  0.00  0.00    +0.000 A 
ENDBRANCH   2   5
BRANCH   3  11
ATOM     11  N   UNL     1       7.533   9.067  17.911  0.00  0.00    +0.000 NA
ATOM     12  C   UNL     1       7.833   7.886  17.474  0.00  0.00    +0.000 C 
BRANCH  12  13
ATOM     13  C   UNL     1       6.831   6.799  17.561  0.00  0.00    +0.000 A 
ATOM     14  C   UNL     1       5.756   6.820  16.656  0.00  0.00    +0.000 A 
ATOM     15  C   UNL     1       4.747   5.860  16.732  0.00  0.00    +0.000 A 
ATOM     16  C   UNL     1       4.812   4.875  17.712  0.00  0.00    +0.000 A 
ATOM     17 CL   UNL     1       3.553   3.709  17.828  0.00  0.00    +0.000 Cl
ATOM     18  C   UNL     1       5.882   4.832  18.605  0.00  0.00    +0.000 A 
ATOM     19  C   UNL     1       6.898   5.793  18.530  0.00  0.00    +0.000 A 
ATOM     20 CL   UNL     1       8.186   5.679  19.675  0.00  0.00    +0.000 Cl
ENDBRANCH  12  13
ENDBRANCH   3  11
TORSDOF 3
ENDMDL
MODEL 5
REMARK VINA RESULT:      -6.9      6.204      7.982
REMARK  Name = 
REMARK  3 active torsions:
REMARK  status: ('A' for Active; 'I' for Inactive)
REMARK    1  A    between atoms: C_2  and  C_14
REMARK    2  A    between atoms: N_3  and  N_4
REMARK    3  A    between atoms: C_5  and  C_6
REMARK                            x       y       z     vdW  Elec       q    Type
REMARK                         _______ _______ _______ _____ _____    ______ ____
ROOT
ATOM      1  O   UNL     1       9.050   9.783  20.091  0.00  0.00    +0.000 OA
ATOM      2  C   UNL     1       9.238  10.296  18.995  0.00  0.00    +0.000 C 
ATOM      3  N   UNL     1       8.531  10.008  17.832  0.00  0.00    +0.000 N 
ATOM      4  H   UNL     1       8.839  10.360  16.933  0.00  0.00    +0.000 HD
ENDROOT
BRANCH   2   5
ATOM      5  C   UNL     1      10.320  11.306  18.832  0.00  0.00    +0.000 A 
ATOM      6  C   UNL     1      10.994  11.772  19.968  0.00  0.00    +0.000 A 
ATOM      7  C   UNL     1      12.003  12.728  19.836  0.00  0.00    +0.000 A 
ATOM      8  C   UNL     1      12.333  13.225  18.575  0.00  0.00    +0.000 A 
ATOM      9  C   UNL     1      11.661  12.766  17.443  0.00  0.00    +0.000 A 
ATOM     10  C   UNL     1      10.652  11.812  17.569  0.00  0.00    +0.000 A 
ENDBRANCH   2   5
BRANCH   3  11
ATOM     11  N   UNL     1       7.547   9.076  17.872  0.00  0.00    +0.000 NA
ATOM     12  C   UNL     1       7.853   7.886  17.467  0.00  0.00    +0.000 C 
BRANCH  12  13
ATOM     13  C   UNL     1       6.847   6.803  17.558  0.00  0.00    +0.000 A 
ATOM     14  C   UNL     1       5.764   6.833  16.664  0.00  0.00    +0.000 A 
ATOM     15  C   UNL     1       4.752   5.876  16.744  0.00  0.00    +0.000 A 
ATOM     16  C   UNL     1       4.822   4.887  17.719  0.00  0.00    +0.000 A 
ATOM     17 CL   UNL     1       3.560   3.725  17.841  0.00  0.00    +0.000 Cl
ATOM     18  C   UNL     1       5.900   4.835  18.602  0.00  0.00    +0.000 A 
ATOM     19  C   UNL     1       6.919   5.792  18.522  0.00  0.00    +0.000 A 
ATOM     20 CL   UNL     1       8.218   5.667  19.654  0.00  0.00    +0.000 Cl
ENDBRANCH  12  13
ENDBRANCH   3  11
TORSDOF 3
ENDMDL
MODEL 6
REMARK VINA RESULT:      -6.7      6.714      9.177
REMARK  Name = 
REMARK  3 active torsions:
REMARK  status: ('A' for Active; 'I' for Inactive)
REMARK    1  A    between atoms: C_2  and  C_14
REMARK    2  A    between atoms: N_3  and  N_4
REMARK    3  A    between atoms: C_5  and  C_6
REMARK                            x       y       z     vdW  Elec       q    Type
REMARK                         _______ _______ _______ _____ _____    ______ ____
ROOT
ATOM      1  O   UNL     1       7.388   6.116  19.093  0.00  0.00    +0.000 OA
ATOM      2  C   UNL     1       7.276   6.419  17.912  0.00  0.00    +0.000 C 
ATOM      3  N   UNL     1       7.707   7.608  17.334  0.00  0.00    +0.000 N 
ATOM      4  H   UNL     1       7.448   7.852  16.386  0.00  0.00    +0.000 HD
ENDROOT
BRANCH   2   5
ATOM      5  C   UNL     1       6.606   5.478  16.973  0.00  0.00    +0.000 A 
ATOM      6  C   UNL     1       7.205   5.209  15.735  0.00  0.00    +0.000 A 
ATOM      7  C   UNL     1       6.585   4.338  14.836  0.00  0.00    +0.000 A 
ATOM      8  C   UNL     1       5.367   3.744  15.167  0.00  0.00    +0.000 A 
ATOM      9  C   UNL     1       4.767   4.013  16.396  0.00  0.00    +0.000 A 
ATOM     10  C   UNL     1       5.381   4.882  17.298  0.00  0.00    +0.000 A 
ENDBRANCH   2   5
BRANCH   3  11
ATOM     11  N   UNL     1       8.300   8.544  18.117  0.00  0.00    +0.000 NA
ATOM     12  C   UNL     1       8.291   9.762  17.679  0.00  0.00    +0.000 C 
BRANCH  12  13
ATOM     13  C   UNL     1       8.853  10.844  18.520  0.00  0.00    +0.000 A 
ATOM     14  C   UNL     1       9.651  10.479  19.618  0.00  0.00    +0.000 A 
ATOM     15  C   UNL     1      10.154  11.451  20.482  0.00  0.00    +0.000 A 
ATOM     16  C   UNL     1       9.860  12.790  20.251  0.00  0.00    +0.000 A 
ATOM     17 CL   UNL     1      10.453  13.988  21.334  0.00  0.00    +0.000 Cl
ATOM     18  C   UNL     1       9.084  13.168  19.156  0.00  0.00    +0.000 A 
ATOM     19  C   UNL     1       8.580  12.195  18.284  0.00  0.00    +0.000 A 
ATOM     20 CL   UNL     1       7.620  12.739  16.955  0.00  0.00    +0.000 Cl
ENDBRANCH  12  13
ENDBRANCH   3  11
TORSDOF 3
ENDMDL
MODEL 7
REMARK VINA RESULT:      -6.7      2.415      3.029
REMARK  Name = 
REMARK  3 active torsions:
REMARK  status: ('A' for Active; 'I' for Inactive)
REMARK    1  A    between atoms: C_2  and  C_14
REMARK    2  A    between atoms: N_3  and  N_4
REMARK    3  A    between atoms: C_5  and  C_6
REMARK                            x       y       z     vdW  Elec       q    Type
REMARK                         _______ _______ _______ _____ _____    ______ ____
ROOT
ATOM      1  O   UNL     1       1.329  10.386  19.456  0.00  0.00    +0.000 OA
ATOM      2  C   UNL     1       0.628   9.935  18.559  0.00  0.00    +0.000 C 
ATOM      3  N   UNL     1       1.010   8.962  17.641  0.00  0.00    +0.000 N 
ATOM      4  H   UNL     1       0.432   8.746  16.838  0.00  0.00    +0.000 HD
ENDROOT
BRANCH   2   5
ATOM      5  C   UNL     1      -0.756  10.453  18.377  0.00  0.00    +0.000 A 
ATOM      6  C   UNL     1      -1.232  11.445  19.244  0.00  0.00    +0.000 A 
ATOM      7  C   UNL     1      -2.532  11.934  19.096  0.00  0.00    +0.000 A 
ATOM      8  C   UNL     1      -3.357  11.429  18.091  0.00  0.00    +0.000 A 
ATOM      9  C   UNL     1      -2.888  10.438  17.230  0.00  0.00    +0.000 A 
ATOM     10  C   UNL     1      -1.591   9.945  17.374  0.00  0.00    +0.000 A 
ENDBRANCH   2   5
BRANCH   3  11
ATOM     11  N   UNL     1       2.265   8.452  17.706  0.00  0.00    +0.000 NA
ATOM     12  C   UNL     1       2.378   7.230  18.118  0.00  0.00    +0.000 C 
BRANCH  12  13
ATOM     13  C   UNL     1       3.712   6.587  18.139  0.00  0.00    +0.000 A 
ATOM     14  C   UNL     1       4.653   6.991  17.177  0.00  0.00    +0.000 A 
ATOM     15  C   UNL     1       5.903   6.376  17.107  0.00  0.00    +0.000 A 
ATOM     16  C   UNL     1       6.214   5.355  17.999  0.00  0.00    +0.000 A 
ATOM     17 CL   UNL     1       7.743   4.573  17.894  0.00  0.00    +0.000 Cl
ATOM     18  C   UNL     1       5.296   4.956  18.970  0.00  0.00    +0.000 A 
ATOM     19  C   UNL     1       4.042   5.573  19.044  0.00  0.00    +0.000 A 
ATOM     20 CL   UNL     1       2.955   5.020  20.268  0.00  0.00    +0.000 Cl
ENDBRANCH  12  13
ENDBRANCH   3  11
TORSDOF 3
ENDMDL
MODEL 8
REMARK VINA RESULT:      -6.7      5.472      7.486
REMARK  Name = 
REMARK  3 active torsions:
REMARK  status: ('A' for Active; 'I' for Inactive)
REMARK    1  A    between atoms: C_2  and  C_14
REMARK    2  A    between atoms: N_3  and  N_4
REMARK    3  A    between atoms: C_5  and  C_6
REMARK                            x       y       z     vdW  Elec       q    Type
REMARK                         _______ _______ _______ _____ _____    ______ ____
ROOT
ATOM      1  O   UNL     1       7.563  10.651  17.538  0.00  0.00    +0.000 OA
ATOM      2  C   UNL     1       8.460  10.022  18.084  0.00  0.00    +0.000 C 
ATOM      3  N   UNL     1       8.480   8.646  18.287  0.00  0.00    +0.000 N 
ATOM      4  H   UNL     1       9.182   8.215  18.877  0.00  0.00    +0.000 HD
ENDROOT
BRANCH   2   5
ATOM      5  C   UNL     1       9.648  10.746  18.614  0.00  0.00    +0.000 A 
ATOM      6  C   UNL     1      10.650  11.154  17.725  0.00  0.00    +0.000 A 
ATOM      7  C   UNL     1      11.777  11.825  18.206  0.00  0.00    +0.000 A 
ATOM      8  C   UNL     1      11.908  12.079  19.572  0.00  0.00    +0.000 A 
ATOM      9  C   UNL     1      10.914  11.670  20.460  0.00  0.00    +0.000 A 
ATOM     10  C   UNL     1       9.787  10.999  19.985  0.00  0.00    +0.000 A 
ENDBRANCH   2   5
BRANCH   3  11
ATOM     11  N   UNL     1       7.426   7.903  17.868  0.00  0.00    +0.000 NA
ATOM     12  C   UNL     1       7.438   6.645  18.176  0.00  0.00    +0.000 C 
BRANCH  12  13
ATOM     13  C   UNL     1       6.281   5.794  17.815  0.00  0.00    +0.000 A 
ATOM     14  C   UNL     1       5.233   5.679  18.744  0.00  0.00    +0.000 A 
ATOM     15  C   UNL     1       4.149   4.841  18.487  0.00  0.00    +0.000 A 
ATOM     16  C   UNL     1       4.109   4.117  17.300  0.00  0.00    +0.000 A 
ATOM     17 CL   UNL     1       2.788   3.058  16.995  0.00  0.00    +0.000 Cl
ATOM     18  C   UNL     1       5.134   4.235  16.362  0.00  0.00    +0.000 A 
ATOM     19  C   UNL     1       6.223   5.077  16.616  0.00  0.00    +0.000 A 
ATOM     20 CL   UNL     1       7.458   5.166  15.410  0.00  0.00    +0.000 Cl
ENDBRANCH  12  13
ENDBRANCH   3  11
TORSDOF 3
ENDMDL
MODEL 9
REMARK VINA RESULT:      -6.6      3.579      8.291
REMARK  Name = 
REMARK  3 active torsions:
REMARK  status: ('A' for Active; 'I' for Inactive)
REMARK    1  A    between atoms: C_2  and  C_14
REMARK    2  A    between atoms: N_3  and  N_4
REMARK    3  A    between atoms: C_5  and  C_6
REMARK                            x       y       z     vdW  Elec       q    Type
REMARK                         _______ _______ _______ _____ _____    ______ ____
ROOT
ATOM      1  O   UNL     1       2.392   7.271  18.059  0.00  0.00    +0.000 OA
ATOM      2  C   UNL     1       2.429   6.446  18.963  0.00  0.00    +0.000 C 
ATOM      3  N   UNL     1       2.098   6.683  20.293  0.00  0.00    +0.000 N 
ATOM      4  H   UNL     1       2.295   5.995  21.010  0.00  0.00    +0.000 HD
ENDROOT
BRANCH   2   5
ATOM      5  C   UNL     1       2.882   5.057  18.672  0.00  0.00    +0.000 A 
ATOM      6  C   UNL     1       2.137   4.270  17.784  0.00  0.00    +0.000 A 
ATOM      7  C   UNL     1       2.540   2.961  17.508  0.00  0.00    +0.000 A 
ATOM      8  C   UNL     1       3.677   2.437  18.123  0.00  0.00    +0.000 A 
ATOM      9  C   UNL     1       4.417   3.216  19.011  0.00  0.00    +0.000 A 
ATOM     10  C   UNL     1       4.019   4.524  19.291  0.00  0.00    +0.000 A 
ENDBRANCH   2   5
BRANCH   3  11
ATOM     11  N   UNL     1       1.706   7.927  20.663  0.00  0.00    +0.000 NA
ATOM     12  C   UNL     1       0.456   8.079  20.967  0.00  0.00    +0.000 C 
BRANCH  12  13
ATOM     13  C   UNL     1      -0.021   9.393  21.453  0.00  0.00    +0.000 A 
ATOM     14  C   UNL     1      -0.451   9.486  22.788  0.00  0.00    +0.000 A 
ATOM     15  C   UNL     1      -0.972  10.682  23.282  0.00  0.00    +0.000 A 
ATOM     16  C   UNL     1      -1.063  11.787  22.444  0.00  0.00    +0.000 A 
ATOM     17 CL   UNL     1      -1.734  13.254  23.043  0.00  0.00    +0.000 Cl
ATOM     18  C   UNL     1      -0.624  11.714  21.122  0.00  0.00    +0.000 A 
ATOM     19  C   UNL     1      -0.099  10.517  20.623  0.00  0.00    +0.000 A 
ATOM     20 CL   UNL     1       0.417  10.500  18.974  0.00  0.00    +0.000 Cl
ENDBRANCH  12  13
ENDBRANCH   3  11
TORSDOF 3
ENDMDL
