MODEL 1
REMARK VINA RESULT:      -7.2      0.000      0.000
REMARK  Name = 
REMARK  5 active torsions:
REMARK  status: ('A' for Active; 'I' for Inactive)
REMARK    1  A    between atoms: C_1  and  O_2
REMARK    2  A    between atoms: O_2  and  C_3
REMARK    3  A    between atoms: C_7  and  C_8
REMARK    4  A    between atoms: C_9  and  C_10
REMARK    5  A    between atoms: C_15  and  N_16
REMARK                            x       y       z     vdW  Elec       q    Type
REMARK                         _______ _______ _______ _____ _____    ______ ____
ROOT
ATOM      1  C   UNL     1       8.477   9.385  18.252  0.00  0.00    +0.000 C 
ATOM      2  C   UNL     1       8.490   8.109  18.680  0.00  0.00    +0.000 C 
ENDROOT
BRANCH   1   7
ATOM      3  C   UNL     1      11.079  12.146  18.454  0.00  0.00    +0.000 A 
ATOM      4  C   UNL     1      11.070  12.407  19.824  0.00  0.00    +0.000 A 
ATOM      5  C   UNL     1      10.220  11.701  20.673  0.00  0.00    +0.000 A 
ATOM      6  C   UNL     1       9.377  10.712  20.155  0.00  0.00    +0.000 A 
ATOM      7  C   UNL     1       9.383  10.420  18.788  0.00  0.00    +0.000 A 
ATOM      8  C   UNL     1      10.225  11.164  17.943  0.00  0.00    +0.000 A 
BRANCH   3  10
ATOM      9  C   UNL     1      11.461  13.471  16.519  0.00  0.00    +0.000 C 
ATOM     10  O   UNL     1      11.958  12.897  17.722  0.00  0.00    +0.000 OA
ENDBRANCH   3  10
ENDBRANCH   1   7
BRANCH   2  11
ATOM     11  C   UNL     1       7.635   7.046  18.140  0.00  0.00    +0.000 A 
ATOM     12  C   UNL     1       6.801   7.347  17.054  0.00  0.00    +0.000 A 
ATOM     13  C   UNL     1       5.883   6.407  16.585  0.00  0.00    +0.000 A 
ATOM     14  C   UNL     1       5.796   5.158  17.196  0.00  0.00    +0.000 A 
ATOM     15  C   UNL     1       6.635   4.847  18.268  0.00  0.00    +0.000 A 
ATOM     16  C   UNL     1       7.587   5.766  18.731  0.00  0.00    +0.000 A 
BRANCH  16  17
ATOM     17  N   UNL     1       8.284   5.471  19.921  0.00  0.00    +0.000 N 
ATOM     18  H   UNL     1       9.086   4.866  19.775  0.00  0.00    +0.000 HD
ATOM     19  H   UNL     1       8.526   6.306  20.449  0.00  0.00    +0.000 HD
ENDBRANCH  16  17
ENDBRANCH   2  11
TORSDOF 4
ENDMDL
MODEL 2
REMARK VINA RESULT:      -6.9      2.940      6.970
REMARK  Name = 
REMARK  5 active torsions:
REMARK  status: ('A' for Active; 'I' for Inactive)
REMARK    1  A    between atoms: C_1  and  O_2
REMARK    2  A    between atoms: O_2  and  C_3
REMARK    3  A    between atoms: C_7  and  C_8
REMARK    4  A    between atoms: C_9  and  C_10
REMARK    5  A    between atoms: C_15  and  N_16
REMARK                            x       y       z     vdW  Elec       q    Type
REMARK                         _______ _______ _______ _____ _____    ______ ____
ROOT
ATOM      1  C   UNL     1       8.256   9.031  17.950  0.00  0.00    +0.000 C 
ATOM      2  C   UNL     1       9.037   9.498  18.940  0.00  0.00    +0.000 C 
ENDROOT
BRANCH   1   7
ATOM      3  C   UNL     1       6.524   5.855  16.787  0.00  0.00    +0.000 A 
ATOM      4  C   UNL     1       6.900   4.973  17.800  0.00  0.00    +0.000 A 
ATOM      5  C   UNL     1       7.717   5.401  18.845  0.00  0.00    +0.000 A 
ATOM      6  C   UNL     1       8.154   6.730  18.891  0.00  0.00    +0.000 A 
ATOM      7  C   UNL     1       7.774   7.636  17.897  0.00  0.00    +0.000 A 
ATOM      8  C   UNL     1       6.975   7.177  16.835  0.00  0.00    +0.000 A 
BRANCH   3  10
ATOM      9  C   UNL     1       6.204   4.168  15.145  0.00  0.00    +0.000 C 
ATOM     10  O   UNL     1       5.717   5.323  15.819  0.00  0.00    +0.000 OA
ENDBRANCH   3  10
ENDBRANCH   1   7
BRANCH   2  11
ATOM     11  C   UNL     1       9.498  10.886  19.046  0.00  0.00    +0.000 A 
ATOM     12  C   UNL     1       9.956  11.529  17.887  0.00  0.00    +0.000 A 
ATOM     13  C   UNL     1      10.517  12.804  17.960  0.00  0.00    +0.000 A 
ATOM     14  C   UNL     1      10.621  13.447  19.191  0.00  0.00    +0.000 A 
ATOM     15  C   UNL     1      10.152  12.819  20.346  0.00  0.00    +0.000 A 
ATOM     16  C   UNL     1       9.554  11.553  20.289  0.00  0.00    +0.000 A 
BRANCH  16  17
ATOM     17  N   UNL     1       9.259  10.892  21.499  0.00  0.00    +0.000 N 
ATOM     18  H   UNL     1       8.522  11.342  22.031  0.00  0.00    +0.000 HD
ATOM     19  H   UNL     1       9.086   9.899  21.369  0.00  0.00    +0.000 HD
ENDBRANCH  16  17
ENDBRANCH   2  11
TORSDOF 4
ENDMDL
MODEL 3
REMARK VINA RESULT:      -6.9      6.439      8.171
REMARK  Name = 
REMARK  5 active torsions:
REMARK  status: ('A' for Active; 'I' for Inactive)
REMARK    1  A    between atoms: C_1  and  O_2
REMARK    2  A    between atoms: O_2  and  C_3
REMARK    3  A    between atoms: C_7  and  C_8
REMARK    4  A    between atoms: C_9  and  C_10
REMARK    5  A    between atoms: C_15  and  N_16
REMARK                            x       y       z     vdW  Elec       q    Type
REMARK                         _______ _______ _______ _____ _____    ______ ____
ROOT
ATOM      1  C   UNL     1       4.224   3.811  16.940  0.00  0.00    +0.000 C 
ATOM      2  C   UNL     1       4.331   4.094  18.250  0.00  0.00    +0.000 C 
ENDROOT
BRANCH   1   7
ATOM      3  C   UNL     1       6.208   4.014  13.707  0.00  0.00    +0.000 A 
ATOM      4  C   UNL     1       7.230   4.884  14.087  0.00  0.00    +0.000 A 
ATOM      5  C   UNL     1       7.269   5.408  15.378  0.00  0.00    +0.000 A 
ATOM      6  C   UNL     1       6.286   5.051  16.308  0.00  0.00    +0.000 A 
ATOM      7  C   UNL     1       5.263   4.166  15.954  0.00  0.00    +0.000 A 
ATOM      8  C   UNL     1       5.224   3.673  14.638  0.00  0.00    +0.000 A 
BRANCH   3  10
ATOM      9  C   UNL     1       5.058   3.133  11.824  0.00  0.00    +0.000 C 
ATOM     10  O   UNL     1       6.278   3.561  12.417  0.00  0.00    +0.000 OA
ENDBRANCH   3  10
ENDBRANCH   1   7
BRANCH   2  11
ATOM     11  C   UNL     1       3.338   3.718  19.263  0.00  0.00    +0.000 A 
ATOM     12  C   UNL     1       2.145   4.451  19.333  0.00  0.00    +0.000 A 
ATOM     13  C   UNL     1       1.226   4.211  20.355  0.00  0.00    +0.000 A 
ATOM     14  C   UNL     1       1.492   3.234  21.311  0.00  0.00    +0.000 A 
ATOM     15  C   UNL     1       2.671   2.489  21.237  0.00  0.00    +0.000 A 
ATOM     16  C   UNL     1       3.590   2.692  20.199  0.00  0.00    +0.000 A 
BRANCH  16  17
ATOM     17  N   UNL     1       4.839   2.042  20.268  0.00  0.00    +0.000 N 
ATOM     18  H   UNL     1       4.838   1.126  19.832  0.00  0.00    +0.000 HD
ATOM     19  H   UNL     1       5.602   2.624  19.932  0.00  0.00    +0.000 HD
ENDBRANCH  16  17
ENDBRANCH   2  11
TORSDOF 4
ENDMDL
MODEL 4
REMARK VINA RESULT:      -6.8      1.239      2.270
REMARK  Name = 
REMARK  5 active torsions:
REMARK  status: ('A' for Active; 'I' for Inactive)
REMARK    1  A    between atoms: C_1  and  O_2
REMARK    2  A    between atoms: O_2  and  C_3
REMARK    3  A    between atoms: C_7  and  C_8
REMARK    4  A    between atoms: C_9  and  C_10
REMARK    5  A    between atoms: C_15  and  N_16
REMARK                            x       y       z     vdW  Elec       q    Type
REMARK                         _______ _______ _______ _____ _____    ______ ____
ROOT
ATOM      1  C   UNL     1       8.430   9.345  18.109  0.00  0.00    +0.000 C 
ATOM      2  C   UNL     1       8.432   8.097  18.610  0.00  0.00    +0.000 C 
ENDROOT
BRANCH   1   7
ATOM      3  C   UNL     1      10.025  11.876  20.450  0.00  0.00    +0.000 A 
ATOM      4  C   UNL     1      10.981  12.440  19.606  0.00  0.00    +0.000 A 
ATOM      5  C   UNL     1      11.114  11.996  18.291  0.00  0.00    +0.000 A 
ATOM      6  C   UNL     1      10.275  10.986  17.806  0.00  0.00    +0.000 A 
ATOM      7  C   UNL     1       9.297  10.420  18.629  0.00  0.00    +0.000 A 
ATOM      8  C   UNL     1       9.200  10.860  19.961  0.00  0.00    +0.000 A 
BRANCH   3  10
ATOM      9  C   UNL     1       8.781  12.200  22.449  0.00  0.00    +0.000 C 
ATOM     10  O   UNL     1       9.984  12.396  21.715  0.00  0.00    +0.000 OA
ENDBRANCH   3  10
ENDBRANCH   1   7
BRANCH   2  11
ATOM     11  C   UNL     1       7.616   6.994  18.090  0.00  0.00    +0.000 A 
ATOM     12  C   UNL     1       6.800   7.235  16.975  0.00  0.00    +0.000 A 
ATOM     13  C   UNL     1       5.916   6.256  16.521  0.00  0.00    +0.000 A 
ATOM     14  C   UNL     1       5.844   5.029  17.175  0.00  0.00    +0.000 A 
ATOM     15  C   UNL     1       6.665   4.777  18.277  0.00  0.00    +0.000 A 
ATOM     16  C   UNL     1       7.584   5.735  18.727  0.00  0.00    +0.000 A 
BRANCH  16  17
ATOM     17  N   UNL     1       8.260   5.501  19.942  0.00  0.00    +0.000 N 
ATOM     18  H   UNL     1       9.088   4.925  19.834  0.00  0.00    +0.000 HD
ATOM     19  H   UNL     1       8.454   6.358  20.453  0.00  0.00    +0.000 HD
ENDBRANCH  16  17
ENDBRANCH   2  11
TORSDOF 4
ENDMDL
MODEL 5
REMARK VINA RESULT:      -6.7      7.407      8.857
REMARK  Name = 
REMARK  5 active torsions:
REMARK  status: ('A' for Active; 'I' for Inactive)
REMARK    1  A    between atoms: C_1  and  O_2
REMARK    2  A    between atoms: O_2  and  C_3
REMARK    3  A    between atoms: C_7  and  C_8
REMARK    4  A    between atoms: C_9  and  C_10
REMARK    5  A    between atoms: C_15  and  N_16
REMARK                            x       y       z     vdW  Elec       q    Type
REMARK                         _______ _______ _______ _____ _____    ______ ____
ROOT
ATOM      1  C   UNL     1       4.790   3.834  16.558  0.00  0.00    +0.000 C 
ATOM      2  C   UNL     1       4.887   4.718  15.549  0.00  0.00    +0.000 C 
ENDROOT
BRANCH   1   7
ATOM      3  C   UNL     1       3.098   3.353  19.925  0.00  0.00    +0.000 A 
ATOM      4  C   UNL     1       2.434   4.573  20.055  0.00  0.00    +0.000 A 
ATOM      5  C   UNL     1       2.542   5.546  19.063  0.00  0.00    +0.000 A 
ATOM      6  C   UNL     1       3.310   5.298  17.920  0.00  0.00    +0.000 A 
ATOM      7  C   UNL     1       3.969   4.076  17.761  0.00  0.00    +0.000 A 
ATOM      8  C   UNL     1       3.873   3.119  18.786  0.00  0.00    +0.000 A 
BRANCH   3  10
ATOM      9  C   UNL     1       1.776   2.693  21.786  0.00  0.00    +0.000 C 
ATOM     10  O   UNL     1       2.913   2.476  20.959  0.00  0.00    +0.000 OA
ENDBRANCH   3  10
ENDBRANCH   1   7
BRANCH   2  11
ATOM     11  C   UNL     1       5.658   4.492  14.321  0.00  0.00    +0.000 A 
ATOM     12  C   UNL     1       5.100   3.681  13.322  0.00  0.00    +0.000 A 
ATOM     13  C   UNL     1       5.844   3.338  12.193  0.00  0.00    +0.000 A 
ATOM     14  C   UNL     1       7.148   3.805  12.052  0.00  0.00    +0.000 A 
ATOM     15  C   UNL     1       7.703   4.626  13.036  0.00  0.00    +0.000 A 
ATOM     16  C   UNL     1       6.961   5.010  14.161  0.00  0.00    +0.000 A 
BRANCH  16  17
ATOM     17  N   UNL     1       7.622   5.691  15.204  0.00  0.00    +0.000 N 
ATOM     18  H   UNL     1       7.310   5.407  16.126  0.00  0.00    +0.000 HD
ATOM     19  H   UNL     1       8.634   5.655  15.114  0.00  0.00    +0.000 HD
ENDBRANCH  16  17
ENDBRANCH   2  11
TORSDOF 4
ENDMDL
MODEL 6
REMARK VINA RESULT:      -6.7      6.653      8.366
REMARK  Name = 
REMARK  5 active torsions:
REMARK  status: ('A' for Active; 'I' for Inactive)
REMARK    1  A    between atoms: C_1  and  O_2
REMARK    2  A    between atoms: O_2  and  C_3
REMARK    3  A    between atoms: C_7  and  C_8
REMARK    4  A    between atoms: C_9  and  C_10
REMARK    5  A    between atoms: C_15  and  N_16
REMARK                            x       y       z     vdW  Elec       q    Type
REMARK                         _______ _______ _______ _____ _____    ______ ____
ROOT
ATOM      1  C   UNL     1       4.736   3.933  17.152  0.00  0.00    +0.000 C 
ATOM      2  C   UNL     1       3.453   4.330  17.218  0.00  0.00    +0.000 C 
ENDROOT
BRANCH   1   7
ATOM      3  C   UNL     1       6.156   3.891  13.629  0.00  0.00    +0.000 A 
ATOM      4  C   UNL     1       7.236   4.762  13.776  0.00  0.00    +0.000 A 
ATOM      5  C   UNL     1       7.494   5.366  15.006  0.00  0.00    +0.000 A 
ATOM      6  C   UNL     1       6.676   5.089  16.107  0.00  0.00    +0.000 A 
ATOM      7  C   UNL     1       5.601   4.204  15.987  0.00  0.00    +0.000 A 
ATOM      8  C   UNL     1       5.338   3.630  14.730  0.00  0.00    +0.000 A 
BRANCH   3  10
ATOM      9  C   UNL     1       4.679   3.289  11.867  0.00  0.00    +0.000 C 
ATOM     10  O   UNL     1       6.006   3.356  12.378  0.00  0.00    +0.000 OA
ENDBRANCH   3  10
ENDBRANCH   1   7
BRANCH   2  11
ATOM     11  C   UNL     1       2.579   4.116  18.377  0.00  0.00    +0.000 A 
ATOM     12  C   UNL     1       2.399   5.171  19.283  0.00  0.00    +0.000 A 
ATOM     13  C   UNL     1       1.678   4.977  20.461  0.00  0.00    +0.000 A 
ATOM     14  C   UNL     1       1.127   3.729  20.740  0.00  0.00    +0.000 A 
ATOM     15  C   UNL     1       1.289   2.678  19.834  0.00  0.00    +0.000 A 
ATOM     16  C   UNL     1       1.981   2.863  18.629  0.00  0.00    +0.000 A 
BRANCH  16  17
ATOM     17  N   UNL     1       2.265   1.732  17.836  0.00  0.00    +0.000 N 
ATOM     18  H   UNL     1       2.179   0.857  18.342  0.00  0.00    +0.000 HD
ATOM     19  H   UNL     1       1.740   1.724  16.965  0.00  0.00    +0.000 HD
ENDBRANCH  16  17
ENDBRANCH   2  11
TORSDOF 4
ENDMDL
MODEL 7
REMARK VINA RESULT:      -6.7      2.951      7.188
REMARK  Name = 
REMARK  5 active torsions:
REMARK  status: ('A' for Active; 'I' for Inactive)
REMARK    1  A    between atoms: C_1  and  O_2
REMARK    2  A    between atoms: O_2  and  C_3
REMARK    3  A    between atoms: C_7  and  C_8
REMARK    4  A    between atoms: C_9  and  C_10
REMARK    5  A    between atoms: C_15  and  N_16
REMARK                            x       y       z     vdW  Elec       q    Type
REMARK                         _______ _______ _______ _____ _____    ______ ____
ROOT
ATOM      1  C   UNL     1       8.733   8.405  18.547  0.00  0.00    +0.000 C 
ATOM      2  C   UNL     1       8.573   9.737  18.448  0.00  0.00    +0.000 C 
ENDROOT
BRANCH   1   7
ATOM      3  C   UNL     1       6.499   5.333  18.474  0.00  0.00    +0.000 A 
ATOM      4  C   UNL     1       5.679   5.637  17.388  0.00  0.00    +0.000 A 
ATOM      5  C   UNL     1       5.843   6.833  16.691  0.00  0.00    +0.000 A 
ATOM      6  C   UNL     1       6.845   7.733  17.072  0.00  0.00    +0.000 A 
ATOM      7  C   UNL     1       7.690   7.440  18.146  0.00  0.00    +0.000 A 
ATOM      8  C   UNL     1       7.489   6.242  18.855  0.00  0.00    +0.000 A 
BRANCH   3  10
ATOM      9  C   UNL     1       4.883   3.745  19.191  0.00  0.00    +0.000 C 
ATOM     10  O   UNL     1       6.248   4.129  19.075  0.00  0.00    +0.000 OA
ENDBRANCH   3  10
ENDBRANCH   1   7
BRANCH   2  11
ATOM     11  C   UNL     1       9.602  10.722  18.796  0.00  0.00    +0.000 A 
ATOM     12  C   UNL     1      10.420  11.224  17.773  0.00  0.00    +0.000 A 
ATOM     13  C   UNL     1      11.490  12.067  18.073  0.00  0.00    +0.000 A 
ATOM     14  C   UNL     1      11.747  12.419  19.396  0.00  0.00    +0.000 A 
ATOM     15  C   UNL     1      10.926  11.936  20.417  0.00  0.00    +0.000 A 
ATOM     16  C   UNL     1       9.827  11.115  20.133  0.00  0.00    +0.000 A 
BRANCH  16  17
ATOM     17  N   UNL     1       9.139  10.515  21.208  0.00  0.00    +0.000 N 
ATOM     18  H   UNL     1       9.722   9.893  21.758  0.00  0.00    +0.000 HD
ATOM     19  H   UNL     1       8.650  11.193  21.786  0.00  0.00    +0.000 HD
ENDBRANCH  16  17
ENDBRANCH   2  11
TORSDOF 4
ENDMDL
MODEL 8
REMARK VINA RESULT:      -6.7      3.136      7.082
REMARK  Name = 
REMARK  5 active torsions:
REMARK  status: ('A' for Active; 'I' for Inactive)
REMARK    1  A    between atoms: C_1  and  O_2
REMARK    2  A    between atoms: O_2  and  C_3
REMARK    3  A    between atoms: C_7  and  C_8
REMARK    4  A    between atoms: C_9  and  C_10
REMARK    5  A    between atoms: C_15  and  N_16
REMARK                            x       y       z     vdW  Elec       q    Type
REMARK                         _______ _______ _______ _____ _____    ______ ____
ROOT
ATOM      1  C   UNL     1       8.601   8.765  18.690  0.00  0.00    +0.000 C 
ATOM      2  C   UNL     1       8.594   9.910  17.983  0.00  0.00    +0.000 C 
ENDROOT
BRANCH   1   7
ATOM      3  C   UNL     1       6.602   6.322  16.576  0.00  0.00    +0.000 A 
ATOM      4  C   UNL     1       6.756   5.152  17.321  0.00  0.00    +0.000 A 
ATOM      5  C   UNL     1       7.511   5.155  18.493  0.00  0.00    +0.000 A 
ATOM      6  C   UNL     1       8.109   6.339  18.938  0.00  0.00    +0.000 A 
ATOM      7  C   UNL     1       7.952   7.526  18.218  0.00  0.00    +0.000 A 
ATOM      8  C   UNL     1       7.213   7.497  17.022  0.00  0.00    +0.000 A 
BRANCH   3  10
ATOM      9  C   UNL     1       5.674   4.885  14.927  0.00  0.00    +0.000 C 
ATOM     10  O   UNL     1       5.837   6.199  15.449  0.00  0.00    +0.000 OA
ENDBRANCH   3  10
ENDBRANCH   1   7
BRANCH   2  11
ATOM     11  C   UNL     1       9.265  11.145  18.401  0.00  0.00    +0.000 A 
ATOM     12  C   UNL     1      10.268  11.063  19.378  0.00  0.00    +0.000 A 
ATOM     13  C   UNL     1      10.847  12.222  19.895  0.00  0.00    +0.000 A 
ATOM     14  C   UNL     1      10.432  13.470  19.438  0.00  0.00    +0.000 A 
ATOM     15  C   UNL     1       9.445  13.557  18.454  0.00  0.00    +0.000 A 
ATOM     16  C   UNL     1       8.875  12.404  17.897  0.00  0.00    +0.000 A 
BRANCH  16  17
ATOM     17  N   UNL     1       7.765  12.549  17.040  0.00  0.00    +0.000 N 
ATOM     18  H   UNL     1       6.937  12.066  17.373  0.00  0.00    +0.000 HD
ATOM     19  H   UNL     1       7.574  13.520  16.808  0.00  0.00    +0.000 HD
ENDBRANCH  16  17
ENDBRANCH   2  11
TORSDOF 4
ENDMDL
MODEL 9
REMARK VINA RESULT:      -6.7      4.262      7.382
REMARK  Name = 
REMARK  5 active torsions:
REMARK  status: ('A' for Active; 'I' for Inactive)
REMARK    1  A    between atoms: C_1  and  O_2
REMARK    2  A    between atoms: O_2  and  C_3
REMARK    3  A    between atoms: C_7  and  C_8
REMARK    4  A    between atoms: C_9  and  C_10
REMARK    5  A    between atoms: C_15  and  N_16
REMARK                            x       y       z     vdW  Elec       q    Type
REMARK                         _______ _______ _______ _____ _____    ______ ____
ROOT
ATOM      1  C   UNL     1       4.304   3.577  17.480  0.00  0.00    +0.000 C 
ATOM      2  C   UNL     1       3.991   4.142  18.660  0.00  0.00    +0.000 C 
ENDROOT
BRANCH   1   7
ATOM      3  C   UNL     1       7.085   5.747  16.071  0.00  0.00    +0.000 A 
ATOM      4  C   UNL     1       7.221   5.194  14.797  0.00  0.00    +0.000 A 
ATOM      5  C   UNL     1       6.425   4.120  14.403  0.00  0.00    +0.000 A 
ATOM      6  C   UNL     1       5.470   3.598  15.283  0.00  0.00    +0.000 A 
ATOM      7  C   UNL     1       5.303   4.148  16.557  0.00  0.00    +0.000 A 
ATOM      8  C   UNL     1       6.138   5.211  16.947  0.00  0.00    +0.000 A 
BRANCH   3  10
ATOM      9  C   UNL     1       7.609   7.578  17.492  0.00  0.00    +0.000 C 
ATOM     10  O   UNL     1       7.917   6.799  16.342  0.00  0.00    +0.000 OA
ENDBRANCH   3  10
ENDBRANCH   1   7
BRANCH   2  11
ATOM     11  C   UNL     1       3.036   3.580  19.621  0.00  0.00    +0.000 A 
ATOM     12  C   UNL     1       1.735   4.104  19.654  0.00  0.00    +0.000 A 
ATOM     13  C   UNL     1       0.830   3.688  20.631  0.00  0.00    +0.000 A 
ATOM     14  C   UNL     1       1.216   2.742  21.577  0.00  0.00    +0.000 A 
ATOM     15  C   UNL     1       2.505   2.204  21.539  0.00  0.00    +0.000 A 
ATOM     16  C   UNL     1       3.417   2.584  20.545  0.00  0.00    +0.000 A 
BRANCH  16  17
ATOM     17  N   UNL     1       4.753   2.147  20.655  0.00  0.00    +0.000 N 
ATOM     18  H   UNL     1       5.426   2.907  20.631  0.00  0.00    +0.000 HD
ATOM     19  H   UNL     1       4.899   1.533  21.452  0.00  0.00    +0.000 HD
ENDBRANCH  16  17
ENDBRANCH   2  11
TORSDOF 4
ENDMDL
