MODEL 1
REMARK VINA RESULT:      -5.5      0.000      0.000
REMARK  Name = 
REMARK  4 active torsions:
REMARK  status: ('A' for Active; 'I' for Inactive)
REMARK    1  A    between atoms: C_1  and  C_2
REMARK    2  A    between atoms: C_5  and  C_6
REMARK    3  A    between atoms: C_6  and  N_7
REMARK    4  A    between atoms: C_9  and  C_10
REMARK                            x       y       z     vdW  Elec       q    Type
REMARK                         _______ _______ _______ _____ _____    ______ ____
ROOT
ATOM      1  C   UNL     1       1.076   2.816  18.576  0.00  0.00    +0.000 C 
ATOM      2  C   UNL     1       2.191   3.694  18.088  0.00  0.00    +0.000 A 
ATOM      3  C   UNL     1       3.289   3.157  17.420  0.00  0.00    +0.000 A 
ATOM      4  C   UNL     1       4.307   3.995  16.955  0.00  0.00    +0.000 A 
ATOM      5  C   UNL     1       4.254   5.390  17.140  0.00  0.00    +0.000 A 
ATOM      6  C   UNL     1       3.145   5.944  17.815  0.00  0.00    +0.000 A 
ATOM      7  C   UNL     1       2.946   7.411  18.081  0.00  0.00    +0.000 C 
ATOM      8  C   UNL     1       2.139   5.077  18.298  0.00  0.00    +0.000 A 
ENDROOT
BRANCH   5   9
ATOM      9  C   UNL     1       5.377   6.207  16.573  0.00  0.00    +0.000 C 
ATOM     10  S   UNL     1       6.780   6.618  17.394  0.00  0.00    +0.000 S 
BRANCH   9  11
ATOM     11  N   UNL     1       5.239   6.687  15.299  0.00  0.00    +0.000 N 
ATOM     12  H   UNL     1       4.849   7.593  15.080  0.00  0.00    +0.000 HD
ATOM     13  H   UNL     1       5.627   6.141  14.537  0.00  0.00    +0.000 HD
ENDBRANCH   9  11
ENDBRANCH   5   9
TORSDOF 2
ENDMDL
MODEL 2
REMARK VINA RESULT:      -5.3      2.836      3.965
REMARK  Name = 
REMARK  4 active torsions:
REMARK  status: ('A' for Active; 'I' for Inactive)
REMARK    1  A    between atoms: C_1  and  C_2
REMARK    2  A    between atoms: C_5  and  C_6
REMARK    3  A    between atoms: C_6  and  N_7
REMARK    4  A    between atoms: C_9  and  C_10
REMARK                            x       y       z     vdW  Elec       q    Type
REMARK                         _______ _______ _______ _____ _____    ______ ____
ROOT
ATOM      1  C   UNL     1       2.439   8.840  17.932  0.00  0.00    +0.000 C 
ATOM      2  C   UNL     1       2.846   7.413  18.152  0.00  0.00    +0.000 A 
ATOM      3  C   UNL     1       3.766   6.791  17.312  0.00  0.00    +0.000 A 
ATOM      4  C   UNL     1       4.149   5.467  17.546  0.00  0.00    +0.000 A 
ATOM      5  C   UNL     1       3.628   4.730  18.628  0.00  0.00    +0.000 A 
ATOM      6  C   UNL     1       2.697   5.353  19.487  0.00  0.00    +0.000 A 
ATOM      7  C   UNL     1       2.061   4.700  20.683  0.00  0.00    +0.000 C 
ATOM      8  C   UNL     1       2.306   6.684  19.218  0.00  0.00    +0.000 A 
ENDROOT
BRANCH   5   9
ATOM      9  C   UNL     1       4.128   3.329  18.816  0.00  0.00    +0.000 C 
ATOM     10  S   UNL     1       3.314   1.943  18.341  0.00  0.00    +0.000 S 
BRANCH   9  11
ATOM     11  N   UNL     1       5.325   3.158  19.457  0.00  0.00    +0.000 N 
ATOM     12  H   UNL     1       6.089   2.613  19.084  0.00  0.00    +0.000 HD
ATOM     13  H   UNL     1       5.487   3.676  20.315  0.00  0.00    +0.000 HD
ENDBRANCH   9  11
ENDBRANCH   5   9
TORSDOF 2
ENDMDL
MODEL 3
REMARK VINA RESULT:      -5.2      1.644      1.738
REMARK  Name = 
REMARK  4 active torsions:
REMARK  status: ('A' for Active; 'I' for Inactive)
REMARK    1  A    between atoms: C_1  and  C_2
REMARK    2  A    between atoms: C_5  and  C_6
REMARK    3  A    between atoms: C_6  and  N_7
REMARK    4  A    between atoms: C_9  and  C_10
REMARK                            x       y       z     vdW  Elec       q    Type
REMARK                         _______ _______ _______ _____ _____    ______ ____
ROOT
ATOM      1  C   UNL     1       0.480   2.672  18.945  0.00  0.00    +0.000 C 
ATOM      2  C   UNL     1       1.795   3.136  18.390  0.00  0.00    +0.000 A 
ATOM      3  C   UNL     1       2.724   2.227  17.890  0.00  0.00    +0.000 A 
ATOM      4  C   UNL     1       3.935   2.680  17.358  0.00  0.00    +0.000 A 
ATOM      5  C   UNL     1       4.248   4.052  17.307  0.00  0.00    +0.000 A 
ATOM      6  C   UNL     1       3.313   4.981  17.810  0.00  0.00    +0.000 A 
ATOM      7  C   UNL     1       3.502   6.474  17.818  0.00  0.00    +0.000 C 
ATOM      8  C   UNL     1       2.105   4.500  18.365  0.00  0.00    +0.000 A 
ENDROOT
BRANCH   5   9
ATOM      9  C   UNL     1       5.557   4.441  16.685  0.00  0.00    +0.000 C 
ATOM     10  S   UNL     1       5.746   5.039  15.130  0.00  0.00    +0.000 S 
BRANCH   9  11
ATOM     11  N   UNL     1       6.694   4.263  17.425  0.00  0.00    +0.000 N 
ATOM     12  H   UNL     1       6.754   4.451  18.415  0.00  0.00    +0.000 HD
ATOM     13  H   UNL     1       7.498   3.838  16.973  0.00  0.00    +0.000 HD
ENDBRANCH   9  11
ENDBRANCH   5   9
TORSDOF 2
ENDMDL
MODEL 4
REMARK VINA RESULT:      -5.2      3.228      4.360
REMARK  Name = 
REMARK  4 active torsions:
REMARK  status: ('A' for Active; 'I' for Inactive)
REMARK    1  A    between atoms: C_1  and  C_2
REMARK    2  A    between atoms: C_5  and  C_6
REMARK    3  A    between atoms: C_6  and  N_7
REMARK    4  A    between atoms: C_9  and  C_10
REMARK                            x       y       z     vdW  Elec       q    Type
REMARK                         _______ _______ _______ _____ _____    ______ ____
ROOT
ATOM      1  C   UNL     1       1.528   8.139  20.330  0.00  0.00    +0.000 C 
ATOM      2  C   UNL     1       2.123   6.800  20.011  0.00  0.00    +0.000 A 
ATOM      3  C   UNL     1       2.986   6.636  18.930  0.00  0.00    +0.000 A 
ATOM      4  C   UNL     1       3.547   5.384  18.662  0.00  0.00    +0.000 A 
ATOM      5  C   UNL     1       3.266   4.264  19.467  0.00  0.00    +0.000 A 
ATOM      6  C   UNL     1       2.394   4.420  20.566  0.00  0.00    +0.000 A 
ATOM      7  C   UNL     1       2.005   3.321  21.517  0.00  0.00    +0.000 C 
ATOM      8  C   UNL     1       1.819   5.688  20.805  0.00  0.00    +0.000 A 
ENDROOT
BRANCH   5   9
ATOM      9  C   UNL     1       3.945   2.973  19.119  0.00  0.00    +0.000 C 
ATOM     10  S   UNL     1       3.304   1.783  18.127  0.00  0.00    +0.000 S 
BRANCH   9  11
ATOM     11  N   UNL     1       5.168   2.722  19.679  0.00  0.00    +0.000 N 
ATOM     12  H   UNL     1       5.293   2.294  20.585  0.00  0.00    +0.000 HD
ATOM     13  H   UNL     1       5.996   2.897  19.118  0.00  0.00    +0.000 HD
ENDBRANCH   9  11
ENDBRANCH   5   9
TORSDOF 2
ENDMDL
MODEL 5
REMARK VINA RESULT:      -5.2      3.221      4.790
REMARK  Name = 
REMARK  4 active torsions:
REMARK  status: ('A' for Active; 'I' for Inactive)
REMARK    1  A    between atoms: C_1  and  C_2
REMARK    2  A    between atoms: C_5  and  C_6
REMARK    3  A    between atoms: C_6  and  N_7
REMARK    4  A    between atoms: C_9  and  C_10
REMARK                            x       y       z     vdW  Elec       q    Type
REMARK                         _______ _______ _______ _____ _____    ______ ____
ROOT
ATOM      1  C   UNL     1       5.157   6.009  16.062  0.00  0.00    +0.000 C 
ATOM      2  C   UNL     1       4.282   5.332  17.076  0.00  0.00    +0.000 A 
ATOM      3  C   UNL     1       3.463   6.071  17.926  0.00  0.00    +0.000 A 
ATOM      4  C   UNL     1       2.639   5.420  18.850  0.00  0.00    +0.000 A 
ATOM      5  C   UNL     1       2.608   4.015  18.947  0.00  0.00    +0.000 A 
ATOM      6  C   UNL     1       3.435   3.258  18.089  0.00  0.00    +0.000 A 
ATOM      7  C   UNL     1       3.506   1.755  18.071  0.00  0.00    +0.000 C 
ATOM      8  C   UNL     1       4.277   3.936  17.179  0.00  0.00    +0.000 A 
ENDROOT
BRANCH   5   9
ATOM      9  C   UNL     1       1.666   3.411  19.945  0.00  0.00    +0.000 C 
ATOM     10  S   UNL     1       2.027   3.113  21.555  0.00  0.00    +0.000 S 
BRANCH   9  11
ATOM     11  N   UNL     1       0.425   3.037  19.507  0.00  0.00    +0.000 N 
ATOM     12  H   UNL     1       0.033   3.323  18.621  0.00  0.00    +0.000 HD
ATOM     13  H   UNL     1      -0.098   2.367  20.063  0.00  0.00    +0.000 HD
ENDBRANCH   9  11
ENDBRANCH   5   9
TORSDOF 2
ENDMDL
MODEL 6
REMARK VINA RESULT:      -5.2      3.187      4.686
REMARK  Name = 
REMARK  4 active torsions:
REMARK  status: ('A' for Active; 'I' for Inactive)
REMARK    1  A    between atoms: C_1  and  C_2
REMARK    2  A    between atoms: C_5  and  C_6
REMARK    3  A    between atoms: C_6  and  N_7
REMARK    4  A    between atoms: C_9  and  C_10
REMARK                            x       y       z     vdW  Elec       q    Type
REMARK                         _______ _______ _______ _____ _____    ______ ____
ROOT
ATOM      1  C   UNL     1       7.315   4.939  13.612  0.00  0.00    +0.000 C 
ATOM      2  C   UNL     1       6.666   4.768  14.954  0.00  0.00    +0.000 A 
ATOM      3  C   UNL     1       5.407   4.187  15.074  0.00  0.00    +0.000 A 
ATOM      4  C   UNL     1       4.828   4.017  16.336  0.00  0.00    +0.000 A 
ATOM      5  C   UNL     1       5.493   4.418  17.511  0.00  0.00    +0.000 A 
ATOM      6  C   UNL     1       6.770   5.008  17.399  0.00  0.00    +0.000 A 
ATOM      7  C   UNL     1       7.603   5.480  18.560  0.00  0.00    +0.000 C 
ATOM      8  C   UNL     1       7.327   5.192  16.113  0.00  0.00    +0.000 A 
ENDROOT
BRANCH   5   9
ATOM      9  C   UNL     1       4.805   4.161  18.818  0.00  0.00    +0.000 C 
ATOM     10  S   UNL     1       3.732   5.210  19.566  0.00  0.00    +0.000 S 
BRANCH   9  11
ATOM     11  N   UNL     1       5.097   2.998  19.476  0.00  0.00    +0.000 N 
ATOM     12  H   UNL     1       5.730   2.941  20.261  0.00  0.00    +0.000 HD
ATOM     13  H   UNL     1       4.585   2.160  19.217  0.00  0.00    +0.000 HD
ENDBRANCH   9  11
ENDBRANCH   5   9
TORSDOF 2
ENDMDL
MODEL 7
REMARK VINA RESULT:      -5.2      2.866      4.089
REMARK  Name = 
REMARK  4 active torsions:
REMARK  status: ('A' for Active; 'I' for Inactive)
REMARK    1  A    between atoms: C_1  and  C_2
REMARK    2  A    between atoms: C_5  and  C_6
REMARK    3  A    between atoms: C_6  and  N_7
REMARK    4  A    between atoms: C_9  and  C_10
REMARK                            x       y       z     vdW  Elec       q    Type
REMARK                         _______ _______ _______ _____ _____    ______ ____
ROOT
ATOM      1  C   UNL     1       2.449   8.692  17.859  0.00  0.00    +0.000 C 
ATOM      2  C   UNL     1       2.916   7.287  18.100  0.00  0.00    +0.000 A 
ATOM      3  C   UNL     1       2.449   6.552  19.187  0.00  0.00    +0.000 A 
ATOM      4  C   UNL     1       2.880   5.236  19.383  0.00  0.00    +0.000 A 
ATOM      5  C   UNL     1       3.783   4.618  18.497  0.00  0.00    +0.000 A 
ATOM      6  C   UNL     1       4.261   5.355  17.392  0.00  0.00    +0.000 A 
ATOM      7  C   UNL     1       5.222   4.830  16.360  0.00  0.00    +0.000 C 
ATOM      8  C   UNL     1       3.832   6.690  17.226  0.00  0.00    +0.000 A 
ENDROOT
BRANCH   5   9
ATOM      9  C   UNL     1       4.158   3.192  18.773  0.00  0.00    +0.000 C 
ATOM     10  S   UNL     1       3.291   1.851  18.262  0.00  0.00    +0.000 S 
BRANCH   9  11
ATOM     11  N   UNL     1       5.273   2.959  19.531  0.00  0.00    +0.000 N 
ATOM     12  H   UNL     1       6.121   2.547  19.169  0.00  0.00    +0.000 HD
ATOM     13  H   UNL     1       5.280   3.297  20.489  0.00  0.00    +0.000 HD
ENDBRANCH   9  11
ENDBRANCH   5   9
TORSDOF 2
ENDMDL
MODEL 8
REMARK VINA RESULT:      -5.2      2.063      2.601
REMARK  Name = 
REMARK  4 active torsions:
REMARK  status: ('A' for Active; 'I' for Inactive)
REMARK    1  A    between atoms: C_1  and  C_2
REMARK    2  A    between atoms: C_5  and  C_6
REMARK    3  A    between atoms: C_6  and  N_7
REMARK    4  A    between atoms: C_9  and  C_10
REMARK                            x       y       z     vdW  Elec       q    Type
REMARK                         _______ _______ _______ _____ _____    ______ ____
ROOT
ATOM      1  C   UNL     1       1.425   3.256  18.391  0.00  0.00    +0.000 C 
ATOM      2  C   UNL     1       2.821   3.787  18.250  0.00  0.00    +0.000 A 
ATOM      3  C   UNL     1       3.521   4.270  19.352  0.00  0.00    +0.000 A 
ATOM      4  C   UNL     1       4.829   4.741  19.204  0.00  0.00    +0.000 A 
ATOM      5  C   UNL     1       5.475   4.739  17.952  0.00  0.00    +0.000 A 
ATOM      6  C   UNL     1       4.774   4.250  16.828  0.00  0.00    +0.000 A 
ATOM      7  C   UNL     1       5.331   4.178  15.433  0.00  0.00    +0.000 C 
ATOM      8  C   UNL     1       3.445   3.801  16.997  0.00  0.00    +0.000 A 
ENDROOT
BRANCH   5   9
ATOM      9  C   UNL     1       6.890   5.231  17.902  0.00  0.00    +0.000 C 
ATOM     10  S   UNL     1       7.348   6.829  17.684  0.00  0.00    +0.000 S 
BRANCH   9  11
ATOM     11  N   UNL     1       7.893   4.306  18.006  0.00  0.00    +0.000 N 
ATOM     12  H   UNL     1       7.751   3.358  18.324  0.00  0.00    +0.000 HD
ATOM     13  H   UNL     1       8.815   4.560  17.665  0.00  0.00    +0.000 HD
ENDBRANCH   9  11
ENDBRANCH   5   9
TORSDOF 2
ENDMDL
MODEL 9
REMARK VINA RESULT:      -5.1      2.023      2.261
REMARK  Name = 
REMARK  4 active torsions:
REMARK  status: ('A' for Active; 'I' for Inactive)
REMARK    1  A    between atoms: C_1  and  C_2
REMARK    2  A    between atoms: C_5  and  C_6
REMARK    3  A    between atoms: C_6  and  N_7
REMARK    4  A    between atoms: C_9  and  C_10
REMARK                            x       y       z     vdW  Elec       q    Type
REMARK                         _______ _______ _______ _____ _____    ______ ____
ROOT
ATOM      1  C   UNL     1       1.146   3.120  20.440  0.00  0.00    +0.000 C 
ATOM      2  C   UNL     1       2.193   3.427  19.411  0.00  0.00    +0.000 A 
ATOM      3  C   UNL     1       1.995   3.115  18.068  0.00  0.00    +0.000 A 
ATOM      4  C   UNL     1       2.975   3.429  17.121  0.00  0.00    +0.000 A 
ATOM      5  C   UNL     1       4.176   4.067  17.489  0.00  0.00    +0.000 A 
ATOM      6  C   UNL     1       4.386   4.388  18.847  0.00  0.00    +0.000 A 
ATOM      7  C   UNL     1       5.611   5.073  19.389  0.00  0.00    +0.000 C 
ATOM      8  C   UNL     1       3.393   4.041  19.791  0.00  0.00    +0.000 A 
ENDROOT
BRANCH   5   9
ATOM      9  C   UNL     1       5.149   4.394  16.395  0.00  0.00    +0.000 C 
ATOM     10  S   UNL     1       5.344   5.906  15.698  0.00  0.00    +0.000 S 
BRANCH   9  11
ATOM     11  N   UNL     1       5.916   3.376  15.897  0.00  0.00    +0.000 N 
ATOM     12  H   UNL     1       6.137   2.536  16.412  0.00  0.00    +0.000 HD
ATOM     13  H   UNL     1       6.209   3.429  14.926  0.00  0.00    +0.000 HD
ENDBRANCH   9  11
ENDBRANCH   5   9
TORSDOF 2
ENDMDL
