MODEL 1
REMARK VINA RESULT:      -7.9      0.000      0.000
REMARK  Name = 
REMARK  4 active torsions:
REMARK  status: ('A' for Active; 'I' for Inactive)
REMARK    1  A    between atoms: C_1  and  C_2
REMARK    2  A    between atoms: C_2  and  N_3
REMARK    3  A    between atoms: N_6  and  C_7
REMARK    4  A    between atoms: C_7  and  C_8
REMARK                            x       y       z     vdW  Elec       q    Type
REMARK                         _______ _______ _______ _____ _____    ______ ____
ROOT
ATOM      1  C   UNL     1       3.750   5.850  18.842  0.00  0.00    +0.000 A 
ATOM      2  C   UNL     1       2.887   6.992  18.826  0.00  0.00    +0.000 A 
ATOM      3  C   UNL     1       2.952   8.024  17.865  0.00  0.00    +0.000 A 
ATOM      4  C   UNL     1       2.224   9.209  17.999  0.00  0.00    +0.000 A 
ATOM      5  C   UNL     1       1.382   9.379  19.089  0.00  0.00    +0.000 A 
ATOM      6  C   UNL     1       1.187   8.318  19.972  0.00  0.00    +0.000 A 
ATOM      7  C   UNL     1       1.894   7.116  19.828  0.00  0.00    +0.000 A 
ATOM      8  C   UNL     1       1.632   6.043  20.679  0.00  0.00    +0.000 A 
ATOM      9  C   UNL     1       2.353   4.845  20.593  0.00  0.00    +0.000 A 
ATOM     10  C   UNL     1       1.981   3.761  21.414  0.00  0.00    +0.000 A 
ATOM     11  C   UNL     1       2.696   2.571  21.400  0.00  0.00    +0.000 A 
ATOM     12  C   UNL     1       3.806   2.453  20.589  0.00  0.00    +0.000 A 
ATOM     13  C   UNL     1       4.178   3.517  19.754  0.00  0.00    +0.000 A 
ATOM     14  C   UNL     1       3.456   4.740  19.714  0.00  0.00    +0.000 A 
ENDROOT
BRANCH   1  15
ATOM     15  C   UNL     1       5.018   5.859  17.978  0.00  0.00    +0.000 C 
BRANCH  15  19
ATOM     16  N   UNL     1       6.539   5.223  14.612  0.00  0.00    +0.000 NA
ATOM     17  C   UNL     1       5.080   5.191  14.890  0.00  0.00    +0.000 C 
ATOM     18  C   UNL     1       4.643   4.304  16.085  0.00  0.00    +0.000 C 
ATOM     19  N   UNL     1       5.371   4.558  17.349  0.00  0.00    +0.000 NA
ATOM     20  C   UNL     1       6.818   4.482  17.040  0.00  0.00    +0.000 C 
ATOM     21  C   UNL     1       7.272   5.404  15.880  0.00  0.00    +0.000 C 
BRANCH  16  23
ATOM     22  C   UNL     1       5.943   3.601  12.765  0.00  0.00    +0.000 C 
ATOM     23  C   UNL     1       6.947   4.049  13.826  0.00  0.00    +0.000 C 
ENDBRANCH  16  23
ENDBRANCH  15  19
ENDBRANCH   1  15
TORSDOF 3
ENDMDL
MODEL 2
REMARK VINA RESULT:      -7.9      0.909      4.020
REMARK  Name = 
REMARK  4 active torsions:
REMARK  status: ('A' for Active; 'I' for Inactive)
REMARK    1  A    between atoms: C_1  and  C_2
REMARK    2  A    between atoms: C_2  and  N_3
REMARK    3  A    between atoms: N_6  and  C_7
REMARK    4  A    between atoms: C_7  and  C_8
REMARK                            x       y       z     vdW  Elec       q    Type
REMARK                         _______ _______ _______ _____ _____    ______ ____
ROOT
ATOM      1  C   UNL     1       3.193   5.551  18.543  0.00  0.00    +0.000 A 
ATOM      2  C   UNL     1       3.127   4.576  19.590  0.00  0.00    +0.000 A 
ATOM      3  C   UNL     1       3.866   3.373  19.604  0.00  0.00    +0.000 A 
ATOM      4  C   UNL     1       3.627   2.366  20.543  0.00  0.00    +0.000 A 
ATOM      5  C   UNL     1       2.658   2.553  21.519  0.00  0.00    +0.000 A 
ATOM      6  C   UNL     1       2.020   3.788  21.618  0.00  0.00    +0.000 A 
ATOM      7  C   UNL     1       2.275   4.812  20.695  0.00  0.00    +0.000 A 
ATOM      8  C   UNL     1       1.680   6.063  20.855  0.00  0.00    +0.000 A 
ATOM      9  C   UNL     1       1.875   7.093  19.926  0.00  0.00    +0.000 A 
ATOM     10  C   UNL     1       1.327   8.365  20.187  0.00  0.00    +0.000 A 
ATOM     11  C   UNL     1       1.452   9.403  19.273  0.00  0.00    +0.000 A 
ATOM     12  C   UNL     1       2.101   9.181  18.076  0.00  0.00    +0.000 A 
ATOM     13  C   UNL     1       2.667   7.925  17.809  0.00  0.00    +0.000 A 
ATOM     14  C   UNL     1       2.589   6.846  18.730  0.00  0.00    +0.000 A 
ENDROOT
BRANCH   1  15
ATOM     15  C   UNL     1       3.849   5.171  17.208  0.00  0.00    +0.000 C 
BRANCH  15  19
ATOM     16  N   UNL     1       6.196   4.472  14.372  0.00  0.00    +0.000 NA
ATOM     17  C   UNL     1       6.121   3.661  15.614  0.00  0.00    +0.000 C 
ATOM     18  C   UNL     1       6.207   4.459  16.943  0.00  0.00    +0.000 C 
ATOM     19  N   UNL     1       5.265   5.595  17.050  0.00  0.00    +0.000 NA
ATOM     20  C   UNL     1       5.448   6.427  15.836  0.00  0.00    +0.000 C 
ATOM     21  C   UNL     1       5.312   5.648  14.503  0.00  0.00    +0.000 C 
BRANCH  16  23
ATOM     22  C   UNL     1       7.811   5.336  12.628  0.00  0.00    +0.000 C 
ATOM     23  C   UNL     1       7.593   4.787  14.037  0.00  0.00    +0.000 C 
ENDBRANCH  16  23
ENDBRANCH  15  19
ENDBRANCH   1  15
TORSDOF 3
ENDMDL
MODEL 3
REMARK VINA RESULT:      -7.9      0.721      1.110
REMARK  Name = 
REMARK  4 active torsions:
REMARK  status: ('A' for Active; 'I' for Inactive)
REMARK    1  A    between atoms: C_1  and  C_2
REMARK    2  A    between atoms: C_2  and  N_3
REMARK    3  A    between atoms: N_6  and  C_7
REMARK    4  A    between atoms: C_7  and  C_8
REMARK                            x       y       z     vdW  Elec       q    Type
REMARK                         _______ _______ _______ _____ _____    ______ ____
ROOT
ATOM      1  C   UNL     1       3.613   5.856  18.839  0.00  0.00    +0.000 A 
ATOM      2  C   UNL     1       2.774   7.015  18.885  0.00  0.00    +0.000 A 
ATOM      3  C   UNL     1       2.804   8.056  17.932  0.00  0.00    +0.000 A 
ATOM      4  C   UNL     1       2.110   9.254  18.119  0.00  0.00    +0.000 A 
ATOM      5  C   UNL     1       1.337   9.429  19.259  0.00  0.00    +0.000 A 
ATOM      6  C   UNL     1       1.171   8.362  20.141  0.00  0.00    +0.000 A 
ATOM      7  C   UNL     1       1.844   7.148  19.944  0.00  0.00    +0.000 A 
ATOM      8  C   UNL     1       1.610   6.071  20.798  0.00  0.00    +0.000 A 
ATOM      9  C   UNL     1       2.300   4.859  20.659  0.00  0.00    +0.000 A 
ATOM     10  C   UNL     1       1.954   3.775  21.489  0.00  0.00    +0.000 A 
ATOM     11  C   UNL     1       2.642   2.570  21.422  0.00  0.00    +0.000 A 
ATOM     12  C   UNL     1       3.701   2.439  20.546  0.00  0.00    +0.000 A 
ATOM     13  C   UNL     1       4.045   3.505  19.702  0.00  0.00    +0.000 A 
ATOM     14  C   UNL     1       3.347   4.742  19.716  0.00  0.00    +0.000 A 
ENDROOT
BRANCH   1  15
ATOM     15  C   UNL     1       4.829   5.849  17.902  0.00  0.00    +0.000 C 
BRANCH  15  19
ATOM     16  N   UNL     1       7.164   4.716  15.199  0.00  0.00    +0.000 NA
ATOM     17  C   UNL     1       6.807   6.135  15.455  0.00  0.00    +0.000 C 
ATOM     18  C   UNL     1       5.288   6.440  15.540  0.00  0.00    +0.000 C 
ATOM     19  N   UNL     1       4.529   5.575  16.471  0.00  0.00    +0.000 NA
ATOM     20  C   UNL     1       4.841   4.172  16.113  0.00  0.00    +0.000 C 
ATOM     21  C   UNL     1       6.356   3.844  16.075  0.00  0.00    +0.000 C 
BRANCH  16  23
ATOM     22  C   UNL     1       7.916   5.292  12.854  0.00  0.00    +0.000 C 
ATOM     23  C   UNL     1       7.070   4.404  13.765  0.00  0.00    +0.000 C 
ENDBRANCH  16  23
ENDBRANCH  15  19
ENDBRANCH   1  15
TORSDOF 3
ENDMDL
MODEL 4
REMARK VINA RESULT:      -7.7      2.369      6.104
REMARK  Name = 
REMARK  4 active torsions:
REMARK  status: ('A' for Active; 'I' for Inactive)
REMARK    1  A    between atoms: C_1  and  C_2
REMARK    2  A    between atoms: C_2  and  N_3
REMARK    3  A    between atoms: N_6  and  C_7
REMARK    4  A    between atoms: C_7  and  C_8
REMARK                            x       y       z     vdW  Elec       q    Type
REMARK                         _______ _______ _______ _____ _____    ______ ____
ROOT
ATOM      1  C   UNL     1       2.750   5.673  18.186  0.00  0.00    +0.000 A 
ATOM      2  C   UNL     1       3.884   5.543  17.322  0.00  0.00    +0.000 A 
ATOM      3  C   UNL     1       4.451   6.608  16.589  0.00  0.00    +0.000 A 
ATOM      4  C   UNL     1       5.429   6.400  15.614  0.00  0.00    +0.000 A 
ATOM      5  C   UNL     1       5.892   5.114  15.368  0.00  0.00    +0.000 A 
ATOM      6  C   UNL     1       5.458   4.067  16.180  0.00  0.00    +0.000 A 
ATOM      7  C   UNL     1       4.496   4.275  17.178  0.00  0.00    +0.000 A 
ATOM      8  C   UNL     1       4.129   3.229  18.024  0.00  0.00    +0.000 A 
ATOM      9  C   UNL     1       3.137   3.389  19.001  0.00  0.00    +0.000 A 
ATOM     10  C   UNL     1       2.874   2.328  19.891  0.00  0.00    +0.000 A 
ATOM     11  C   UNL     1       1.867   2.422  20.843  0.00  0.00    +0.000 A 
ATOM     12  C   UNL     1       1.092   3.561  20.904  0.00  0.00    +0.000 A 
ATOM     13  C   UNL     1       1.353   4.632  20.036  0.00  0.00    +0.000 A 
ATOM     14  C   UNL     1       2.393   4.590  19.069  0.00  0.00    +0.000 A 
ENDROOT
BRANCH   1  15
ATOM     15  C   UNL     1       1.889   6.941  18.106  0.00  0.00    +0.000 C 
BRANCH  15  19
ATOM     16  N   UNL     1       0.088   9.883  19.570  0.00  0.00    +0.000 NA
ATOM     17  C   UNL     1       0.642   9.843  18.192  0.00  0.00    +0.000 C 
ATOM     18  C   UNL     1       2.127   9.407  18.078  0.00  0.00    +0.000 C 
ATOM     19  N   UNL     1       2.461   8.143  18.770  0.00  0.00    +0.000 NA
ATOM     20  C   UNL     1       1.977   8.270  20.165  0.00  0.00    +0.000 C 
ATOM     21  C   UNL     1       0.480   8.655  20.289  0.00  0.00    +0.000 C 
BRANCH  16  23
ATOM     22  C   UNL     1      -0.126  11.311  21.647  0.00  0.00    +0.000 C 
ATOM     23  C   UNL     1       0.457  11.136  20.245  0.00  0.00    +0.000 C 
ENDBRANCH  16  23
ENDBRANCH  15  19
ENDBRANCH   1  15
TORSDOF 3
ENDMDL
MODEL 5
REMARK VINA RESULT:      -7.5      2.345      6.642
REMARK  Name = 
REMARK  4 active torsions:
REMARK  status: ('A' for Active; 'I' for Inactive)
REMARK    1  A    between atoms: C_1  and  C_2
REMARK    2  A    between atoms: C_2  and  N_3
REMARK    3  A    between atoms: N_6  and  C_7
REMARK    4  A    between atoms: C_7  and  C_8
REMARK                            x       y       z     vdW  Elec       q    Type
REMARK                         _______ _______ _______ _____ _____    ______ ____
ROOT
ATOM      1  C   UNL     1       2.803   5.656  18.442  0.00  0.00    +0.000 A 
ATOM      2  C   UNL     1       2.520   4.572  19.334  0.00  0.00    +0.000 A 
ATOM      3  C   UNL     1       1.282   4.379  19.983  0.00  0.00    +0.000 A 
ATOM      4  C   UNL     1       1.112   3.424  20.989  0.00  0.00    +0.000 A 
ATOM      5  C   UNL     1       2.177   2.610  21.350  0.00  0.00    +0.000 A 
ATOM      6  C   UNL     1       3.365   2.678  20.623  0.00  0.00    +0.000 A 
ATOM      7  C   UNL     1       3.532   3.616  19.594  0.00  0.00    +0.000 A 
ATOM      8  C   UNL     1       4.700   3.620  18.834  0.00  0.00    +0.000 A 
ATOM      9  C   UNL     1       4.920   4.573  17.830  0.00  0.00    +0.000 A 
ATOM     10  C   UNL     1       6.075   4.471  17.029  0.00  0.00    +0.000 A 
ATOM     11  C   UNL     1       6.360   5.420  16.056  0.00  0.00    +0.000 A 
ATOM     12  C   UNL     1       5.514   6.496  15.885  0.00  0.00    +0.000 A 
ATOM     13  C   UNL     1       4.352   6.602  16.664  0.00  0.00    +0.000 A 
ATOM     14  C   UNL     1       4.006   5.637  17.648  0.00  0.00    +0.000 A 
ENDROOT
BRANCH   1  15
ATOM     15  C   UNL     1       1.849   6.858  18.400  0.00  0.00    +0.000 C 
BRANCH  15  19
ATOM     16  N   UNL     1      -0.047   9.878  19.552  0.00  0.00    +0.000 NA
ATOM     17  C   UNL     1       0.574   9.743  18.209  0.00  0.00    +0.000 C 
ATOM     18  C   UNL     1       2.067   9.318  18.200  0.00  0.00    +0.000 C 
ATOM     19  N   UNL     1       2.377   8.113  19.000  0.00  0.00    +0.000 NA
ATOM     20  C   UNL     1       1.824   8.337  20.357  0.00  0.00    +0.000 C 
ATOM     21  C   UNL     1       0.320   8.711  20.379  0.00  0.00    +0.000 C 
BRANCH  16  23
ATOM     22  C   UNL     1      -0.142  11.347  21.609  0.00  0.00    +0.000 C 
ATOM     23  C   UNL     1       0.278  11.183  20.149  0.00  0.00    +0.000 C 
ENDBRANCH  16  23
ENDBRANCH  15  19
ENDBRANCH   1  15
TORSDOF 3
ENDMDL
MODEL 6
REMARK VINA RESULT:      -7.3      1.048      1.285
REMARK  Name = 
REMARK  4 active torsions:
REMARK  status: ('A' for Active; 'I' for Inactive)
REMARK    1  A    between atoms: C_1  and  C_2
REMARK    2  A    between atoms: C_2  and  N_3
REMARK    3  A    between atoms: N_6  and  C_7
REMARK    4  A    between atoms: C_7  and  C_8
REMARK                            x       y       z     vdW  Elec       q    Type
REMARK                         _______ _______ _______ _____ _____    ______ ____
ROOT
ATOM      1  C   UNL     1       2.895   5.428  18.459  0.00  0.00    +0.000 A 
ATOM      2  C   UNL     1       2.323   6.725  18.663  0.00  0.00    +0.000 A 
ATOM      3  C   UNL     1       2.156   7.688  17.645  0.00  0.00    +0.000 A 
ATOM      4  C   UNL     1       1.775   9.003  17.924  0.00  0.00    +0.000 A 
ATOM      5  C   UNL     1       1.518   9.381  19.235  0.00  0.00    +0.000 A 
ATOM      6  C   UNL     1       1.530   8.413  20.238  0.00  0.00    +0.000 A 
ATOM      7  C   UNL     1       1.885   7.086  19.960  0.00  0.00    +0.000 A 
ATOM      8  C   UNL     1       1.823   6.120  20.963  0.00  0.00    +0.000 A 
ATOM      9  C   UNL     1       2.216   4.794  20.732  0.00  0.00    +0.000 A 
ATOM     10  C   UNL     1       2.041   3.840  21.753  0.00  0.00    +0.000 A 
ATOM     11  C   UNL     1       2.461   2.526  21.589  0.00  0.00    +0.000 A 
ATOM     12  C   UNL     1       3.084   2.152  20.416  0.00  0.00    +0.000 A 
ATOM     13  C   UNL     1       3.249   3.088  19.383  0.00  0.00    +0.000 A 
ATOM     14  C   UNL     1       2.806   4.433  19.498  0.00  0.00    +0.000 A 
ENDROOT
BRANCH   1  15
ATOM     15  C   UNL     1       3.658   5.143  17.158  0.00  0.00    +0.000 C 
BRANCH  15  19
ATOM     16  N   UNL     1       6.214   4.677  14.458  0.00  0.00    +0.000 NA
ATOM     17  C   UNL     1       6.016   3.739  15.592  0.00  0.00    +0.000 C 
ATOM     18  C   UNL     1       6.011   4.384  17.004  0.00  0.00    +0.000 C 
ATOM     19  N   UNL     1       5.093   5.534  17.161  0.00  0.00    +0.000 NA
ATOM     20  C   UNL     1       5.396   6.485  16.066  0.00  0.00    +0.000 C 
ATOM     21  C   UNL     1       5.352   5.861  14.648  0.00  0.00    +0.000 C 
BRANCH  16  23
ATOM     22  C   UNL     1       8.027   5.442  12.868  0.00  0.00    +0.000 C 
ATOM     23  C   UNL     1       7.642   4.979  14.272  0.00  0.00    +0.000 C 
ENDBRANCH  16  23
ENDBRANCH  15  19
ENDBRANCH   1  15
TORSDOF 3
ENDMDL
MODEL 7
REMARK VINA RESULT:      -7.2      2.407      5.996
REMARK  Name = 
REMARK  4 active torsions:
REMARK  status: ('A' for Active; 'I' for Inactive)
REMARK    1  A    between atoms: C_1  and  C_2
REMARK    2  A    between atoms: C_2  and  N_3
REMARK    3  A    between atoms: N_6  and  C_7
REMARK    4  A    between atoms: C_7  and  C_8
REMARK                            x       y       z     vdW  Elec       q    Type
REMARK                         _______ _______ _______ _____ _____    ______ ____
ROOT
ATOM      1  C   UNL     1       3.166   5.982  18.701  0.00  0.00    +0.000 A 
ATOM      2  C   UNL     1       4.083   5.802  17.616  0.00  0.00    +0.000 A 
ATOM      3  C   UNL     1       4.902   6.825  17.091  0.00  0.00    +0.000 A 
ATOM      4  C   UNL     1       5.635   6.657  15.913  0.00  0.00    +0.000 A 
ATOM      5  C   UNL     1       5.592   5.442  15.244  0.00  0.00    +0.000 A 
ATOM      6  C   UNL     1       4.911   4.370  15.821  0.00  0.00    +0.000 A 
ATOM      7  C   UNL     1       4.196   4.525  17.017  0.00  0.00    +0.000 A 
ATOM      8  C   UNL     1       3.582   3.424  17.612  0.00  0.00    +0.000 A 
ATOM      9  C   UNL     1       2.819   3.552  18.781  0.00  0.00    +0.000 A 
ATOM     10  C   UNL     1       2.302   2.393  19.392  0.00  0.00    +0.000 A 
ATOM     11  C   UNL     1       1.501   2.473  20.523  0.00  0.00    +0.000 A 
ATOM     12  C   UNL     1       1.182   3.710  21.045  0.00  0.00    +0.000 A 
ATOM     13  C   UNL     1       1.704   4.872  20.457  0.00  0.00    +0.000 A 
ATOM     14  C   UNL     1       2.553   4.833  19.319  0.00  0.00    +0.000 A 
ENDROOT
BRANCH   1  15
ATOM     15  C   UNL     1       2.797   7.405  19.142  0.00  0.00    +0.000 C 
BRANCH  15  19
ATOM     16  N   UNL     1       1.401  10.882  19.202  0.00  0.00    +0.000 NA
ATOM     17  C   UNL     1       1.209   9.885  20.286  0.00  0.00    +0.000 C 
ATOM     18  C   UNL     1       0.684   8.496  19.836  0.00  0.00    +0.000 C 
ATOM     19  N   UNL     1       1.445   7.870  18.732  0.00  0.00    +0.000 NA
ATOM     20  C   UNL     1       1.525   8.866  17.638  0.00  0.00    +0.000 C 
ATOM     21  C   UNL     1       2.097  10.241  18.069  0.00  0.00    +0.000 C 
BRANCH  16  23
ATOM     22  C   UNL     1      -0.730  11.949  20.050  0.00  0.00    +0.000 C 
ATOM     23  C   UNL     1       0.127  11.530  18.856  0.00  0.00    +0.000 C 
ENDBRANCH  16  23
ENDBRANCH  15  19
ENDBRANCH   1  15
TORSDOF 3
ENDMDL
MODEL 8
REMARK VINA RESULT:      -7.2      2.410      6.550
REMARK  Name = 
REMARK  4 active torsions:
REMARK  status: ('A' for Active; 'I' for Inactive)
REMARK    1  A    between atoms: C_1  and  C_2
REMARK    2  A    between atoms: C_2  and  N_3
REMARK    3  A    between atoms: N_6  and  C_7
REMARK    4  A    between atoms: C_7  and  C_8
REMARK                            x       y       z     vdW  Elec       q    Type
REMARK                         _______ _______ _______ _____ _____    ______ ____
ROOT
ATOM      1  C   UNL     1       3.103   6.034  18.682  0.00  0.00    +0.000 A 
ATOM      2  C   UNL     1       2.613   4.889  19.388  0.00  0.00    +0.000 A 
ATOM      3  C   UNL     1       1.595   4.932  20.364  0.00  0.00    +0.000 A 
ATOM      4  C   UNL     1       1.285   3.828  21.163  0.00  0.00    +0.000 A 
ATOM      5  C   UNL     1       1.970   2.635  20.981  0.00  0.00    +0.000 A 
ATOM      6  C   UNL     1       2.875   2.522  19.927  0.00  0.00    +0.000 A 
ATOM      7  C   UNL     1       3.170   3.618  19.104  0.00  0.00    +0.000 A 
ATOM      8  C   UNL     1       4.023   3.464  18.013  0.00  0.00    +0.000 A 
ATOM      9  C   UNL     1       4.377   4.549  17.199  0.00  0.00    +0.000 A 
ATOM     10  C   UNL     1       5.165   4.319  16.054  0.00  0.00    +0.000 A 
ATOM     11  C   UNL     1       5.582   5.367  15.245  0.00  0.00    +0.000 A 
ATOM     12  C   UNL     1       5.242   6.662  15.580  0.00  0.00    +0.000 A 
ATOM     13  C   UNL     1       4.443   6.905  16.707  0.00  0.00    +0.000 A 
ATOM     14  C   UNL     1       3.970   5.859  17.543  0.00  0.00    +0.000 A 
ENDROOT
BRANCH   1  15
ATOM     15  C   UNL     1       2.750   7.437  19.196  0.00  0.00    +0.000 C 
BRANCH  15  19
ATOM     16  N   UNL     1       1.448  10.950  19.265  0.00  0.00    +0.000 NA
ATOM     17  C   UNL     1       1.256   9.966  20.361  0.00  0.00    +0.000 C 
ATOM     18  C   UNL     1       0.684   8.588  19.934  0.00  0.00    +0.000 C 
ATOM     19  N   UNL     1       1.401   7.935  18.816  0.00  0.00    +0.000 NA
ATOM     20  C   UNL     1       1.480   8.921  17.713  0.00  0.00    +0.000 C 
ATOM     21  C   UNL     1       2.098  10.283  18.119  0.00  0.00    +0.000 C 
BRANCH  16  23
ATOM     22  C   UNL     1       0.325  13.089  18.516  0.00  0.00    +0.000 C 
ATOM     23  C   UNL     1       0.183  11.630  18.945  0.00  0.00    +0.000 C 
ENDBRANCH  16  23
ENDBRANCH  15  19
ENDBRANCH   1  15
TORSDOF 3
ENDMDL
MODEL 9
REMARK VINA RESULT:      -6.9      2.646      6.590
REMARK  Name = 
REMARK  4 active torsions:
REMARK  status: ('A' for Active; 'I' for Inactive)
REMARK    1  A    between atoms: C_1  and  C_2
REMARK    2  A    between atoms: C_2  and  N_3
REMARK    3  A    between atoms: N_6  and  C_7
REMARK    4  A    between atoms: C_7  and  C_8
REMARK                            x       y       z     vdW  Elec       q    Type
REMARK                         _______ _______ _______ _____ _____    ______ ____
ROOT
ATOM      1  C   UNL     1       3.084   5.663  17.996  0.00  0.00    +0.000 A 
ATOM      2  C   UNL     1       2.582   4.354  18.287  0.00  0.00    +0.000 A 
ATOM      3  C   UNL     1       1.213   4.011  18.293  0.00  0.00    +0.000 A 
ATOM      4  C   UNL     1       0.758   2.779  18.769  0.00  0.00    +0.000 A 
ATOM      5  C   UNL     1       1.673   1.839  19.225  0.00  0.00    +0.000 A 
ATOM      6  C   UNL     1       3.037   2.094  19.091  0.00  0.00    +0.000 A 
ATOM      7  C   UNL     1       3.499   3.318  18.588  0.00  0.00    +0.000 A 
ATOM      8  C   UNL     1       4.864   3.525  18.396  0.00  0.00    +0.000 A 
ATOM      9  C   UNL     1       5.364   4.753  17.941  0.00  0.00    +0.000 A 
ATOM     10  C   UNL     1       6.742   4.875  17.673  0.00  0.00    +0.000 A 
ATOM     11  C   UNL     1       7.291   6.085  17.268  0.00  0.00    +0.000 A 
ATOM     12  C   UNL     1       6.480   7.194  17.149  0.00  0.00    +0.000 A 
ATOM     13  C   UNL     1       5.103   7.084  17.395  0.00  0.00    +0.000 A 
ATOM     14  C   UNL     1       4.496   5.858  17.781  0.00  0.00    +0.000 A 
ENDROOT
BRANCH   1  15
ATOM     15  C   UNL     1       2.113   6.852  17.987  0.00  0.00    +0.000 C 
BRANCH  15  19
ATOM     16  N   UNL     1       0.108   9.665  19.438  0.00  0.00    +0.000 NA
ATOM     17  C   UNL     1       0.697   9.675  18.074  0.00  0.00    +0.000 C 
ATOM     18  C   UNL     1       2.207   9.327  17.993  0.00  0.00    +0.000 C 
ATOM     19  N   UNL     1       2.597   8.076  18.679  0.00  0.00    +0.000 NA
ATOM     20  C   UNL     1       2.072   8.157  20.063  0.00  0.00    +0.000 C 
ATOM     21  C   UNL     1       0.553   8.452  20.153  0.00  0.00    +0.000 C 
BRANCH  16  23
ATOM     22  C   UNL     1       0.022  10.940  21.621  0.00  0.00    +0.000 C 
ATOM     23  C   UNL     1       0.386  10.929  20.137  0.00  0.00    +0.000 C 
ENDBRANCH  16  23
ENDBRANCH  15  19
ENDBRANCH   1  15
TORSDOF 3
ENDMDL
