MODEL 1
REMARK VINA RESULT:      -5.8      0.000      0.000
REMARK  Name = 
REMARK  4 active torsions:
REMARK  status: ('A' for Active; 'I' for Inactive)
REMARK    1  A    between atoms: C_1  and  C_2
REMARK    2  A    between atoms: C_5  and  O_6
REMARK    3  A    between atoms: O_6  and  S_7
REMARK    4  A    between atoms: S_7  and  O_10
REMARK                            x       y       z     vdW  Elec       q    Type
REMARK                         _______ _______ _______ _____ _____    ______ ____
ROOT
ATOM      1  C   UNL     1       1.055   2.461  18.738  0.00  0.00    +0.000 C 
ATOM      2  C   UNL     1       2.340   3.197  18.502  0.00  0.00    +0.000 A 
ATOM      3  C   UNL     1       3.545   2.757  19.063  0.00  0.00    +0.000 A 
ATOM      4  C   UNL     1       4.726   3.471  18.842  0.00  0.00    +0.000 A 
ATOM      5  C   UNL     1       4.719   4.621  18.049  0.00  0.00    +0.000 A 
ATOM      6  C   UNL     1       3.521   5.069  17.494  0.00  0.00    +0.000 A 
ATOM      7  C   UNL     1       2.340   4.357  17.719  0.00  0.00    +0.000 A 
ENDROOT
BRANCH   5   8
ATOM      8  O   UNL     1       5.924   5.260  17.917  0.00  0.00    +0.000 OA
BRANCH   8   9
ATOM      9  S   UNL     1       6.939   4.920  16.691  0.00  0.00    +0.000 S 
ATOM     10  O   UNL     1       6.325   3.931  15.832  0.00  0.00    +0.000 OA
ATOM     11  O   UNL     1       7.501   6.147  16.168  0.00  0.00    +0.000 OA
BRANCH   9  12
ATOM     12  O   UNL     1       8.129   4.130  17.440  0.00  0.00    +0.000 OA
ATOM     13  H   UNL     1       8.071   4.348  18.392  0.00  0.00    +0.000 HD
ENDBRANCH   9  12
ENDBRANCH   8   9
ENDBRANCH   5   8
TORSDOF 3
ENDMDL
MODEL 2
REMARK VINA RESULT:      -5.6      1.197      1.745
REMARK  Name = 
REMARK  4 active torsions:
REMARK  status: ('A' for Active; 'I' for Inactive)
REMARK    1  A    between atoms: C_1  and  C_2
REMARK    2  A    between atoms: C_5  and  O_6
REMARK    3  A    between atoms: O_6  and  S_7
REMARK    4  A    between atoms: S_7  and  O_10
REMARK                            x       y       z     vdW  Elec       q    Type
REMARK                         _______ _______ _______ _____ _____    ______ ____
ROOT
ATOM      1  C   UNL     1       1.079   3.118  18.798  0.00  0.00    +0.000 C 
ATOM      2  C   UNL     1       2.262   3.791  18.168  0.00  0.00    +0.000 A 
ATOM      3  C   UNL     1       3.258   3.055  17.516  0.00  0.00    +0.000 A 
ATOM      4  C   UNL     1       4.359   3.705  16.953  0.00  0.00    +0.000 A 
ATOM      5  C   UNL     1       4.470   5.095  17.022  0.00  0.00    +0.000 A 
ATOM      6  C   UNL     1       3.486   5.835  17.676  0.00  0.00    +0.000 A 
ATOM      7  C   UNL     1       2.387   5.183  18.243  0.00  0.00    +0.000 A 
ENDROOT
BRANCH   5   8
ATOM      8  O   UNL     1       5.600   5.631  16.460  0.00  0.00    +0.000 OA
BRANCH   8   9
ATOM      9  S   UNL     1       7.036   5.586  17.226  0.00  0.00    +0.000 S 
ATOM     10  O   UNL     1       6.818   5.766  18.644  0.00  0.00    +0.000 OA
ATOM     11  O   UNL     1       7.833   4.496  16.704  0.00  0.00    +0.000 OA
BRANCH   9  12
ATOM     12  O   UNL     1       7.727   6.960  16.740  0.00  0.00    +0.000 OA
ATOM     13  H   UNL     1       7.897   7.500  17.537  0.00  0.00    +0.000 HD
ENDBRANCH   9  12
ENDBRANCH   8   9
ENDBRANCH   5   8
TORSDOF 3
ENDMDL
MODEL 3
REMARK VINA RESULT:      -5.6      1.173      2.046
REMARK  Name = 
REMARK  4 active torsions:
REMARK  status: ('A' for Active; 'I' for Inactive)
REMARK    1  A    between atoms: C_1  and  C_2
REMARK    2  A    between atoms: C_5  and  O_6
REMARK    3  A    between atoms: O_6  and  S_7
REMARK    4  A    between atoms: S_7  and  O_10
REMARK                            x       y       z     vdW  Elec       q    Type
REMARK                         _______ _______ _______ _____ _____    ______ ____
ROOT
ATOM      1  C   UNL     1       0.965   2.971  18.664  0.00  0.00    +0.000 C 
ATOM      2  C   UNL     1       2.166   3.698  18.137  0.00  0.00    +0.000 A 
ATOM      3  C   UNL     1       2.268   5.092  18.220  0.00  0.00    +0.000 A 
ATOM      4  C   UNL     1       3.390   5.747  17.706  0.00  0.00    +0.000 A 
ATOM      5  C   UNL     1       4.426   5.019  17.119  0.00  0.00    +0.000 A 
ATOM      6  C   UNL     1       4.329   3.631  17.026  0.00  0.00    +0.000 A 
ATOM      7  C   UNL     1       3.204   2.977  17.536  0.00  0.00    +0.000 A 
ENDROOT
BRANCH   5   8
ATOM      8  O   UNL     1       5.469   5.759  16.624  0.00  0.00    +0.000 OA
BRANCH   8   9
ATOM      9  S   UNL     1       6.967   5.646  17.249  0.00  0.00    +0.000 S 
ATOM     10  O   UNL     1       6.891   5.804  18.685  0.00  0.00    +0.000 OA
ATOM     11  O   UNL     1       7.669   4.539  16.636  0.00  0.00    +0.000 OA
BRANCH   9  12
ATOM     12  O   UNL     1       7.661   7.004  16.724  0.00  0.00    +0.000 OA
ATOM     13  H   UNL     1       8.349   7.251  17.374  0.00  0.00    +0.000 HD
ENDBRANCH   9  12
ENDBRANCH   8   9
ENDBRANCH   5   8
TORSDOF 3
ENDMDL
MODEL 4
REMARK VINA RESULT:      -5.6      0.536      1.146
REMARK  Name = 
REMARK  4 active torsions:
REMARK  status: ('A' for Active; 'I' for Inactive)
REMARK    1  A    between atoms: C_1  and  C_2
REMARK    2  A    between atoms: C_5  and  O_6
REMARK    3  A    between atoms: O_6  and  S_7
REMARK    4  A    between atoms: S_7  and  O_10
REMARK                            x       y       z     vdW  Elec       q    Type
REMARK                         _______ _______ _______ _____ _____    ______ ____
ROOT
ATOM      1  C   UNL     1       0.802   2.710  19.102  0.00  0.00    +0.000 C 
ATOM      2  C   UNL     1       2.142   3.306  18.787  0.00  0.00    +0.000 A 
ATOM      3  C   UNL     1       3.303   2.871  19.434  0.00  0.00    +0.000 A 
ATOM      4  C   UNL     1       4.537   3.454  19.135  0.00  0.00    +0.000 A 
ATOM      5  C   UNL     1       4.625   4.467  18.177  0.00  0.00    +0.000 A 
ATOM      6  C   UNL     1       3.472   4.911  17.533  0.00  0.00    +0.000 A 
ATOM      7  C   UNL     1       2.237   4.330  17.836  0.00  0.00    +0.000 A 
ENDROOT
BRANCH   5   8
ATOM      8  O   UNL     1       5.877   4.989  17.976  0.00  0.00    +0.000 OA
BRANCH   8   9
ATOM      9  S   UNL     1       6.693   4.740  16.590  0.00  0.00    +0.000 S 
ATOM     10  O   UNL     1       6.368   5.797  15.657  0.00  0.00    +0.000 OA
ATOM     11  O   UNL     1       8.060   4.373  16.888  0.00  0.00    +0.000 OA
BRANCH   9  12
ATOM     12  O   UNL     1       5.964   3.430  15.994  0.00  0.00    +0.000 OA
ATOM     13  H   UNL     1       5.992   3.498  15.019  0.00  0.00    +0.000 HD
ENDBRANCH   9  12
ENDBRANCH   8   9
ENDBRANCH   5   8
TORSDOF 3
ENDMDL
MODEL 5
REMARK VINA RESULT:      -5.5      0.397      1.843
REMARK  Name = 
REMARK  4 active torsions:
REMARK  status: ('A' for Active; 'I' for Inactive)
REMARK    1  A    between atoms: C_1  and  C_2
REMARK    2  A    between atoms: C_5  and  O_6
REMARK    3  A    between atoms: O_6  and  S_7
REMARK    4  A    between atoms: S_7  and  O_10
REMARK                            x       y       z     vdW  Elec       q    Type
REMARK                         _______ _______ _______ _____ _____    ______ ____
ROOT
ATOM      1  C   UNL     1       1.289   2.114  18.854  0.00  0.00    +0.000 C 
ATOM      2  C   UNL     1       2.452   3.027  18.598  0.00  0.00    +0.000 A 
ATOM      3  C   UNL     1       2.406   4.000  17.593  0.00  0.00    +0.000 A 
ATOM      4  C   UNL     1       3.509   4.827  17.364  0.00  0.00    +0.000 A 
ATOM      5  C   UNL     1       4.661   4.700  18.142  0.00  0.00    +0.000 A 
ATOM      6  C   UNL     1       4.717   3.728  19.140  0.00  0.00    +0.000 A 
ATOM      7  C   UNL     1       3.615   2.898  19.366  0.00  0.00    +0.000 A 
ENDROOT
BRANCH   5   8
ATOM      8  O   UNL     1       5.694   5.541  17.819  0.00  0.00    +0.000 OA
BRANCH   8   9
ATOM      9  S   UNL     1       7.057   4.989  17.121  0.00  0.00    +0.000 S 
ATOM     10  O   UNL     1       7.547   5.985  16.193  0.00  0.00    +0.000 OA
ATOM     11  O   UNL     1       7.911   4.390  18.125  0.00  0.00    +0.000 OA
BRANCH   9  12
ATOM     12  O   UNL     1       6.505   3.795  16.188  0.00  0.00    +0.000 OA
ATOM     13  H   UNL     1       5.553   3.687  16.384  0.00  0.00    +0.000 HD
ENDBRANCH   9  12
ENDBRANCH   8   9
ENDBRANCH   5   8
TORSDOF 3
ENDMDL
MODEL 6
REMARK VINA RESULT:      -5.5      0.362      1.289
REMARK  Name = 
REMARK  4 active torsions:
REMARK  status: ('A' for Active; 'I' for Inactive)
REMARK    1  A    between atoms: C_1  and  C_2
REMARK    2  A    between atoms: C_5  and  O_6
REMARK    3  A    between atoms: O_6  and  S_7
REMARK    4  A    between atoms: S_7  and  O_10
REMARK                            x       y       z     vdW  Elec       q    Type
REMARK                         _______ _______ _______ _____ _____    ______ ____
ROOT
ATOM      1  C   UNL     1       1.094   2.533  19.312  0.00  0.00    +0.000 C 
ATOM      2  C   UNL     1       2.319   3.301  18.915  0.00  0.00    +0.000 A 
ATOM      3  C   UNL     1       3.564   3.041  19.501  0.00  0.00    +0.000 A 
ATOM      4  C   UNL     1       4.687   3.783  19.126  0.00  0.00    +0.000 A 
ATOM      5  C   UNL     1       4.583   4.780  18.154  0.00  0.00    +0.000 A 
ATOM      6  C   UNL     1       3.346   5.050  17.571  0.00  0.00    +0.000 A 
ATOM      7  C   UNL     1       2.221   4.311  17.950  0.00  0.00    +0.000 A 
ENDROOT
BRANCH   5   8
ATOM      8  O   UNL     1       5.738   5.465  17.878  0.00  0.00    +0.000 OA
BRANCH   8   9
ATOM      9  S   UNL     1       6.925   4.808  16.979  0.00  0.00    +0.000 S 
ATOM     10  O   UNL     1       7.967   4.325  17.858  0.00  0.00    +0.000 OA
ATOM     11  O   UNL     1       6.349   3.977  15.943  0.00  0.00    +0.000 OA
BRANCH   9  12
ATOM     12  O   UNL     1       7.564   6.100  16.256  0.00  0.00    +0.000 OA
ATOM     13  H   UNL     1       7.730   6.770  16.949  0.00  0.00    +0.000 HD
ENDBRANCH   9  12
ENDBRANCH   8   9
ENDBRANCH   5   8
TORSDOF 3
ENDMDL
MODEL 7
REMARK VINA RESULT:      -5.5      1.353      1.498
REMARK  Name = 
REMARK  4 active torsions:
REMARK  status: ('A' for Active; 'I' for Inactive)
REMARK    1  A    between atoms: C_1  and  C_2
REMARK    2  A    between atoms: C_5  and  O_6
REMARK    3  A    between atoms: O_6  and  S_7
REMARK    4  A    between atoms: S_7  and  O_10
REMARK                            x       y       z     vdW  Elec       q    Type
REMARK                         _______ _______ _______ _____ _____    ______ ____
ROOT
ATOM      1  C   UNL     1       0.889   3.698  19.926  0.00  0.00    +0.000 C 
ATOM      2  C   UNL     1       2.013   4.111  19.023  0.00  0.00    +0.000 A 
ATOM      3  C   UNL     1       2.460   3.280  17.990  0.00  0.00    +0.000 A 
ATOM      4  C   UNL     1       3.520   3.681  17.173  0.00  0.00    +0.000 A 
ATOM      5  C   UNL     1       4.134   4.920  17.369  0.00  0.00    +0.000 A 
ATOM      6  C   UNL     1       3.699   5.750  18.401  0.00  0.00    +0.000 A 
ATOM      7  C   UNL     1       2.641   5.346  19.221  0.00  0.00    +0.000 A 
ENDROOT
BRANCH   5   8
ATOM      8  O   UNL     1       5.180   5.206  16.530  0.00  0.00    +0.000 OA
BRANCH   8   9
ATOM      9  S   UNL     1       6.719   5.224  17.061  0.00  0.00    +0.000 S 
ATOM     10  O   UNL     1       7.578   4.682  16.031  0.00  0.00    +0.000 OA
ATOM     11  O   UNL     1       6.997   6.489  17.705  0.00  0.00    +0.000 OA
BRANCH   9  12
ATOM     12  O   UNL     1       6.697   4.095  18.213  0.00  0.00    +0.000 OA
ATOM     13  H   UNL     1       6.568   4.551  19.068  0.00  0.00    +0.000 HD
ENDBRANCH   9  12
ENDBRANCH   8   9
ENDBRANCH   5   8
TORSDOF 3
ENDMDL
MODEL 8
REMARK VINA RESULT:      -5.5      1.202      1.629
REMARK  Name = 
REMARK  4 active torsions:
REMARK  status: ('A' for Active; 'I' for Inactive)
REMARK    1  A    between atoms: C_1  and  C_2
REMARK    2  A    between atoms: C_5  and  O_6
REMARK    3  A    between atoms: O_6  and  S_7
REMARK    4  A    between atoms: S_7  and  O_10
REMARK                            x       y       z     vdW  Elec       q    Type
REMARK                         _______ _______ _______ _____ _____    ______ ____
ROOT
ATOM      1  C   UNL     1       0.884   2.839  18.728  0.00  0.00    +0.000 C 
ATOM      2  C   UNL     1       2.121   3.523  18.226  0.00  0.00    +0.000 A 
ATOM      3  C   UNL     1       2.326   4.893  18.421  0.00  0.00    +0.000 A 
ATOM      4  C   UNL     1       3.479   5.510  17.929  0.00  0.00    +0.000 A 
ATOM      5  C   UNL     1       4.445   4.763  17.252  0.00  0.00    +0.000 A 
ATOM      6  C   UNL     1       4.246   3.398  17.048  0.00  0.00    +0.000 A 
ATOM      7  C   UNL     1       3.089   2.783  17.536  0.00  0.00    +0.000 A 
ENDROOT
BRANCH   5   8
ATOM      8  O   UNL     1       5.526   5.467  16.788  0.00  0.00    +0.000 OA
BRANCH   8   9
ATOM      9  S   UNL     1       7.026   5.204  17.363  0.00  0.00    +0.000 S 
ATOM     10  O   UNL     1       7.775   4.441  16.389  0.00  0.00    +0.000 OA
ATOM     11  O   UNL     1       7.545   6.422  17.947  0.00  0.00    +0.000 OA
BRANCH   9  12
ATOM     12  O   UNL     1       6.754   4.171  18.571  0.00  0.00    +0.000 OA
ATOM     13  H   UNL     1       7.617   3.965  18.980  0.00  0.00    +0.000 HD
ENDBRANCH   9  12
ENDBRANCH   8   9
ENDBRANCH   5   8
TORSDOF 3
ENDMDL
MODEL 9
REMARK VINA RESULT:      -5.5      1.037      2.043
REMARK  Name = 
REMARK  4 active torsions:
REMARK  status: ('A' for Active; 'I' for Inactive)
REMARK    1  A    between atoms: C_1  and  C_2
REMARK    2  A    between atoms: C_5  and  O_6
REMARK    3  A    between atoms: O_6  and  S_7
REMARK    4  A    between atoms: S_7  and  O_10
REMARK                            x       y       z     vdW  Elec       q    Type
REMARK                         _______ _______ _______ _____ _____    ______ ____
ROOT
ATOM      1  C   UNL     1       0.944   3.686  20.099  0.00  0.00    +0.000 C 
ATOM      2  C   UNL     1       2.197   3.766  19.279  0.00  0.00    +0.000 A 
ATOM      3  C   UNL     1       2.156   4.074  17.914  0.00  0.00    +0.000 A 
ATOM      4  C   UNL     1       3.336   4.125  17.169  0.00  0.00    +0.000 A 
ATOM      5  C   UNL     1       4.569   3.885  17.779  0.00  0.00    +0.000 A 
ATOM      6  C   UNL     1       4.618   3.571  19.137  0.00  0.00    +0.000 A 
ATOM      7  C   UNL     1       3.436   3.515  19.881  0.00  0.00    +0.000 A 
ENDROOT
BRANCH   5   8
ATOM      8  O   UNL     1       5.663   3.935  16.954  0.00  0.00    +0.000 OA
BRANCH   8   9
ATOM      9  S   UNL     1       6.884   4.978  17.220  0.00  0.00    +0.000 S 
ATOM     10  O   UNL     1       6.335   6.298  17.442  0.00  0.00    +0.000 OA
ATOM     11  O   UNL     1       7.844   4.384  18.125  0.00  0.00    +0.000 OA
BRANCH   9  12
ATOM     12  O   UNL     1       7.583   5.064  15.769  0.00  0.00    +0.000 OA
ATOM     13  H   UNL     1       7.900   4.167  15.543  0.00  0.00    +0.000 HD
ENDBRANCH   9  12
ENDBRANCH   8   9
ENDBRANCH   5   8
TORSDOF 3
ENDMDL
