MODEL 1
REMARK VINA RESULT:      -7.0      0.000      0.000
REMARK  Name = 
REMARK  2 active torsions:
REMARK  status: ('A' for Active; 'I' for Inactive)
REMARK    1  A    between atoms: C_1  and  C_2
REMARK    2  A    between atoms: C_6  and  C_7
REMARK                            x       y       z     vdW  Elec       q    Type
REMARK                         _______ _______ _______ _____ _____    ______ ____
ROOT
ATOM      1  C   UNL     1       7.866   7.082  18.213  0.00  0.00    +0.000 C 
ATOM      2  C   UNL     1       7.058   5.891  18.667  0.00  0.00    +0.000 C 
ATOM      3  O   UNL     1       7.469   5.250  19.637  0.00  0.00    +0.000 OA
ATOM      4  N   UNL     1       5.911   5.585  17.931  0.00  0.00    +0.000 N 
ATOM      5  C   UNL     1       5.473   6.349  16.750  0.00  0.00    +0.000 C 
ATOM      6  C   UNL     1       5.220   5.405  15.584  0.00  0.00    +0.000 C 
ATOM      7  O   UNL     1       4.192   4.462  15.889  0.00  0.00    +0.000 OA
ATOM      8  C   UNL     1       4.246   3.950  17.166  0.00  0.00    +0.000 A 
ATOM      9  C   UNL     1       3.399   2.856  17.383  0.00  0.00    +0.000 A 
ATOM     10  C   UNL     1       3.404   2.204  18.611  0.00  0.00    +0.000 A 
ATOM     11  C   UNL     1       4.246   2.651  19.623  0.00  0.00    +0.000 A 
ATOM     12  C   UNL     1       5.077   3.758  19.414  0.00  0.00    +0.000 A 
ATOM     13  C   UNL     1       5.091   4.431  18.186  0.00  0.00    +0.000 A 
ENDROOT
BRANCH   6  14
ATOM     14  C   UNL     1       6.544   4.785  15.111  0.00  0.00    +0.000 C 
ATOM     15  N   UNL     1       6.447   3.564  14.506  0.00  0.00    +0.000 N 
ATOM     16  O   UNL     1       7.628   5.356  15.187  0.00  0.00    +0.000 OA
ATOM     17  H   UNL     1       5.632   2.988  14.677  0.00  0.00    +0.000 HD
ATOM     18  H   UNL     1       7.321   3.094  14.302  0.00  0.00    +0.000 HD
ENDBRANCH   6  14
TORSDOF 1
ENDMDL
MODEL 2
REMARK VINA RESULT:      -6.9      2.409      4.064
REMARK  Name = 
REMARK  2 active torsions:
REMARK  status: ('A' for Active; 'I' for Inactive)
REMARK    1  A    between atoms: C_1  and  C_2
REMARK    2  A    between atoms: C_6  and  C_7
REMARK                            x       y       z     vdW  Elec       q    Type
REMARK                         _______ _______ _______ _____ _____    ______ ____
ROOT
ATOM      1  C   UNL     1       6.185   4.966  14.923  0.00  0.00    +0.000 C 
ATOM      2  C   UNL     1       5.268   5.901  15.673  0.00  0.00    +0.000 C 
ATOM      3  O   UNL     1       5.166   7.060  15.265  0.00  0.00    +0.000 OA
ATOM      4  N   UNL     1       4.622   5.387  16.799  0.00  0.00    +0.000 N 
ATOM      5  C   UNL     1       4.802   4.007  17.283  0.00  0.00    +0.000 C 
ATOM      6  C   UNL     1       5.151   4.016  18.765  0.00  0.00    +0.000 C 
ATOM      7  O   UNL     1       4.111   4.610  19.542  0.00  0.00    +0.000 OA
ATOM      8  C   UNL     1       3.547   5.733  18.980  0.00  0.00    +0.000 A 
ATOM      9  C   UNL     1       2.709   6.449  19.844  0.00  0.00    +0.000 A 
ATOM     10  C   UNL     1       2.126   7.639  19.423  0.00  0.00    +0.000 A 
ATOM     11  C   UNL     1       2.371   8.106  18.136  0.00  0.00    +0.000 A 
ATOM     12  C   UNL     1       3.190   7.379  17.264  0.00  0.00    +0.000 A 
ATOM     13  C   UNL     1       3.790   6.179  17.666  0.00  0.00    +0.000 A 
ENDROOT
BRANCH   6  14
ATOM     14  C   UNL     1       6.545   4.630  18.974  0.00  0.00    +0.000 C 
ATOM     15  N   UNL     1       7.497   4.267  18.065  0.00  0.00    +0.000 N 
ATOM     16  O   UNL     1       6.800   5.456  19.845  0.00  0.00    +0.000 OA
ATOM     17  H   UNL     1       7.376   3.414  17.533  0.00  0.00    +0.000 HD
ATOM     18  H   UNL     1       8.444   4.567  18.264  0.00  0.00    +0.000 HD
ENDBRANCH   6  14
TORSDOF 1
ENDMDL
MODEL 3
REMARK VINA RESULT:      -6.9      2.565      3.640
REMARK  Name = 
REMARK  2 active torsions:
REMARK  status: ('A' for Active; 'I' for Inactive)
REMARK    1  A    between atoms: C_1  and  C_2
REMARK    2  A    between atoms: C_6  and  C_7
REMARK                            x       y       z     vdW  Elec       q    Type
REMARK                         _______ _______ _______ _____ _____    ______ ____
ROOT
ATOM      1  C   UNL     1       3.108   7.974  17.647  0.00  0.00    +0.000 C 
ATOM      2  C   UNL     1       2.741   6.998  18.738  0.00  0.00    +0.000 C 
ATOM      3  O   UNL     1       2.124   7.430  19.714  0.00  0.00    +0.000 OA
ATOM      4  N   UNL     1       3.156   5.675  18.572  0.00  0.00    +0.000 N 
ATOM      5  C   UNL     1       3.930   5.204  17.411  0.00  0.00    +0.000 C 
ATOM      6  C   UNL     1       5.163   4.445  17.880  0.00  0.00    +0.000 C 
ATOM      7  O   UNL     1       4.807   3.298  18.652  0.00  0.00    +0.000 OA
ATOM      8  C   UNL     1       3.770   3.500  19.533  0.00  0.00    +0.000 A 
ATOM      9  C   UNL     1       3.586   2.461  20.454  0.00  0.00    +0.000 A 
ATOM     10  C   UNL     1       2.613   2.568  21.442  0.00  0.00    +0.000 A 
ATOM     11  C   UNL     1       1.818   3.707  21.502  0.00  0.00    +0.000 A 
ATOM     12  C   UNL     1       1.987   4.737  20.568  0.00  0.00    +0.000 A 
ATOM     13  C   UNL     1       2.960   4.653  19.565  0.00  0.00    +0.000 A 
ENDROOT
BRANCH   6  14
ATOM     14  C   UNL     1       6.144   5.408  18.569  0.00  0.00    +0.000 C 
ATOM     15  N   UNL     1       6.512   6.503  17.841  0.00  0.00    +0.000 N 
ATOM     16  O   UNL     1       6.531   5.271  19.726  0.00  0.00    +0.000 OA
ATOM     17  H   UNL     1       6.420   6.483  16.833  0.00  0.00    +0.000 HD
ATOM     18  H   UNL     1       7.248   7.076  18.235  0.00  0.00    +0.000 HD
ENDBRANCH   6  14
TORSDOF 1
ENDMDL
MODEL 4
REMARK VINA RESULT:      -6.9      3.019      4.897
REMARK  Name = 
REMARK  2 active torsions:
REMARK  status: ('A' for Active; 'I' for Inactive)
REMARK    1  A    between atoms: C_1  and  C_2
REMARK    2  A    between atoms: C_6  and  C_7
REMARK                            x       y       z     vdW  Elec       q    Type
REMARK                         _______ _______ _______ _____ _____    ______ ____
ROOT
ATOM      1  C   UNL     1       1.730   7.102  20.623  0.00  0.00    +0.000 C 
ATOM      2  C   UNL     1       2.529   7.014  19.346  0.00  0.00    +0.000 C 
ATOM      3  O   UNL     1       2.472   7.965  18.563  0.00  0.00    +0.000 OA
ATOM      4  N   UNL     1       3.256   5.841  19.131  0.00  0.00    +0.000 N 
ATOM      5  C   UNL     1       3.266   4.706  20.071  0.00  0.00    +0.000 C 
ATOM      6  C   UNL     1       2.943   3.416  19.331  0.00  0.00    +0.000 C 
ATOM      7  O   UNL     1       3.908   3.140  18.316  0.00  0.00    +0.000 OA
ATOM      8  C   UNL     1       4.312   4.241  17.596  0.00  0.00    +0.000 A 
ATOM      9  C   UNL     1       5.062   3.938  16.453  0.00  0.00    +0.000 A 
ATOM     10  C   UNL     1       5.477   4.956  15.601  0.00  0.00    +0.000 A 
ATOM     11  C   UNL     1       5.152   6.275  15.897  0.00  0.00    +0.000 A 
ATOM     12  C   UNL     1       4.421   6.581  17.051  0.00  0.00    +0.000 A 
ATOM     13  C   UNL     1       3.990   5.574  17.924  0.00  0.00    +0.000 A 
ENDROOT
BRANCH   6  14
ATOM     14  C   UNL     1       1.485   3.437  18.846  0.00  0.00    +0.000 C 
ATOM     15  N   UNL     1       0.533   3.460  19.825  0.00  0.00    +0.000 N 
ATOM     16  O   UNL     1       1.162   3.506  17.664  0.00  0.00    +0.000 OA
ATOM     17  H   UNL     1       0.770   3.139  20.756  0.00  0.00    +0.000 HD
ATOM     18  H   UNL     1      -0.426   3.350  19.520  0.00  0.00    +0.000 HD
ENDBRANCH   6  14
TORSDOF 1
ENDMDL
MODEL 5
REMARK VINA RESULT:      -6.7      2.613      4.608
REMARK  Name = 
REMARK  2 active torsions:
REMARK  status: ('A' for Active; 'I' for Inactive)
REMARK    1  A    between atoms: C_1  and  C_2
REMARK    2  A    between atoms: C_6  and  C_7
REMARK                            x       y       z     vdW  Elec       q    Type
REMARK                         _______ _______ _______ _____ _____    ______ ____
ROOT
ATOM      1  C   UNL     1       2.216   4.845  21.108  0.00  0.00    +0.000 C 
ATOM      2  C   UNL     1       2.809   5.492  19.880  0.00  0.00    +0.000 C 
ATOM      3  O   UNL     1       2.459   6.643  19.609  0.00  0.00    +0.000 OA
ATOM      4  N   UNL     1       3.693   4.722  19.122  0.00  0.00    +0.000 N 
ATOM      5  C   UNL     1       4.055   3.333  19.454  0.00  0.00    +0.000 C 
ATOM      6  C   UNL     1       3.860   2.440  18.237  0.00  0.00    +0.000 C 
ATOM      7  O   UNL     1       4.689   2.850  17.150  0.00  0.00    +0.000 OA
ATOM      8  C   UNL     1       4.769   4.212  16.974  0.00  0.00    +0.000 A 
ATOM      9  C   UNL     1       5.374   4.602  15.773  0.00  0.00    +0.000 A 
ATOM     10  C   UNL     1       5.461   5.950  15.441  0.00  0.00    +0.000 A 
ATOM     11  C   UNL     1       4.952   6.906  16.313  0.00  0.00    +0.000 A 
ATOM     12  C   UNL     1       4.367   6.518  17.524  0.00  0.00    +0.000 A 
ATOM     13  C   UNL     1       4.267   5.168  17.880  0.00  0.00    +0.000 A 
ENDROOT
BRANCH   6  14
ATOM     14  C   UNL     1       2.364   2.326  17.901  0.00  0.00    +0.000 C 
ATOM     15  N   UNL     1       1.632   1.507  18.713  0.00  0.00    +0.000 N 
ATOM     16  O   UNL     1       1.815   2.974  17.015  0.00  0.00    +0.000 OA
ATOM     17  H   UNL     1       2.104   0.789  19.249  0.00  0.00    +0.000 HD
ATOM     18  H   UNL     1       0.677   1.330  18.427  0.00  0.00    +0.000 HD
ENDBRANCH   6  14
TORSDOF 1
ENDMDL
MODEL 6
REMARK VINA RESULT:      -6.7      1.741      4.352
REMARK  Name = 
REMARK  2 active torsions:
REMARK  status: ('A' for Active; 'I' for Inactive)
REMARK    1  A    between atoms: C_1  and  C_2
REMARK    2  A    between atoms: C_6  and  C_7
REMARK                            x       y       z     vdW  Elec       q    Type
REMARK                         _______ _______ _______ _____ _____    ______ ____
ROOT
ATOM      1  C   UNL     1       3.550   4.998  18.750  0.00  0.00    +0.000 C 
ATOM      2  C   UNL     1       4.013   4.516  17.396  0.00  0.00    +0.000 C 
ATOM      3  O   UNL     1       3.510   3.484  16.947  0.00  0.00    +0.000 OA
ATOM      4  N   UNL     1       5.005   5.267  16.762  0.00  0.00    +0.000 N 
ATOM      5  C   UNL     1       5.615   6.473  17.348  0.00  0.00    +0.000 C 
ATOM      6  C   UNL     1       7.132   6.357  17.318  0.00  0.00    +0.000 C 
ATOM      7  O   UNL     1       7.619   6.238  15.982  0.00  0.00    +0.000 OA
ATOM      8  C   UNL     1       6.869   5.419  15.170  0.00  0.00    +0.000 A 
ATOM      9  C   UNL     1       7.476   5.109  13.947  0.00  0.00    +0.000 A 
ATOM     10  C   UNL     1       6.853   4.237  13.060  0.00  0.00    +0.000 A 
ATOM     11  C   UNL     1       5.621   3.686  13.391  0.00  0.00    +0.000 A 
ATOM     12  C   UNL     1       5.003   4.012  14.604  0.00  0.00    +0.000 A 
ATOM     13  C   UNL     1       5.610   4.886  15.514  0.00  0.00    +0.000 A 
ENDROOT
BRANCH   6  14
ATOM     14  C   UNL     1       7.595   5.247  18.276  0.00  0.00    +0.000 C 
ATOM     15  N   UNL     1       7.172   5.363  19.569  0.00  0.00    +0.000 N 
ATOM     16  O   UNL     1       8.240   4.266  17.918  0.00  0.00    +0.000 OA
ATOM     17  H   UNL     1       6.886   6.269  19.918  0.00  0.00    +0.000 HD
ATOM     18  H   UNL     1       7.571   4.708  20.231  0.00  0.00    +0.000 HD
ENDBRANCH   6  14
TORSDOF 1
ENDMDL
MODEL 7
REMARK VINA RESULT:      -6.6      3.104      4.816
REMARK  Name = 
REMARK  2 active torsions:
REMARK  status: ('A' for Active; 'I' for Inactive)
REMARK    1  A    between atoms: C_1  and  C_2
REMARK    2  A    between atoms: C_6  and  C_7
REMARK                            x       y       z     vdW  Elec       q    Type
REMARK                         _______ _______ _______ _____ _____    ______ ____
ROOT
ATOM      1  C   UNL     1       2.427   2.735  21.509  0.00  0.00    +0.000 C 
ATOM      2  C   UNL     1       2.242   4.091  20.871  0.00  0.00    +0.000 C 
ATOM      3  O   UNL     1       1.254   4.752  21.195  0.00  0.00    +0.000 OA
ATOM      4  N   UNL     1       3.199   4.484  19.932  0.00  0.00    +0.000 N 
ATOM      5  C   UNL     1       4.346   3.648  19.537  0.00  0.00    +0.000 C 
ATOM      6  C   UNL     1       4.408   3.532  18.021  0.00  0.00    +0.000 C 
ATOM      7  O   UNL     1       4.578   4.809  17.407  0.00  0.00    +0.000 OA
ATOM      8  C   UNL     1       3.833   5.819  17.971  0.00  0.00    +0.000 A 
ATOM      9  C   UNL     1       3.810   7.003  17.224  0.00  0.00    +0.000 A 
ATOM     10  C   UNL     1       3.041   8.082  17.648  0.00  0.00    +0.000 A 
ATOM     11  C   UNL     1       2.306   7.980  18.824  0.00  0.00    +0.000 A 
ATOM     12  C   UNL     1       2.345   6.804  19.583  0.00  0.00    +0.000 A 
ATOM     13  C   UNL     1       3.110   5.704  19.175  0.00  0.00    +0.000 A 
ENDROOT
BRANCH   6  14
ATOM     14  C   UNL     1       3.208   2.722  17.504  0.00  0.00    +0.000 C 
ATOM     15  N   UNL     1       3.055   1.477  18.044  0.00  0.00    +0.000 N 
ATOM     16  O   UNL     1       2.379   3.164  16.715  0.00  0.00    +0.000 OA
ATOM     17  H   UNL     1       3.851   1.018  18.470  0.00  0.00    +0.000 HD
ATOM     18  H   UNL     1       2.344   0.891  17.623  0.00  0.00    +0.000 HD
ENDBRANCH   6  14
TORSDOF 1
ENDMDL
MODEL 8
REMARK VINA RESULT:      -6.5      3.188      4.428
REMARK  Name = 
REMARK  2 active torsions:
REMARK  status: ('A' for Active; 'I' for Inactive)
REMARK    1  A    between atoms: C_1  and  C_2
REMARK    2  A    between atoms: C_6  and  C_7
REMARK                            x       y       z     vdW  Elec       q    Type
REMARK                         _______ _______ _______ _____ _____    ______ ____
ROOT
ATOM      1  C   UNL     1       5.180   4.010  15.866  0.00  0.00    +0.000 C 
ATOM      2  C   UNL     1       4.579   4.864  16.956  0.00  0.00    +0.000 C 
ATOM      3  O   UNL     1       5.195   5.874  17.303  0.00  0.00    +0.000 OA
ATOM      4  N   UNL     1       3.375   4.426  17.513  0.00  0.00    +0.000 N 
ATOM      5  C   UNL     1       2.689   3.189  17.102  0.00  0.00    +0.000 C 
ATOM      6  C   UNL     1       2.368   2.341  18.324  0.00  0.00    +0.000 C 
ATOM      7  O   UNL     1       1.503   3.031  19.226  0.00  0.00    +0.000 OA
ATOM      8  C   UNL     1       1.799   4.364  19.395  0.00  0.00    +0.000 A 
ATOM      9  C   UNL     1       1.115   4.975  20.454  0.00  0.00    +0.000 A 
ATOM     10  C   UNL     1       1.370   6.304  20.775  0.00  0.00    +0.000 A 
ATOM     11  C   UNL     1       2.300   7.023  20.032  0.00  0.00    +0.000 A 
ATOM     12  C   UNL     1       2.968   6.419  18.960  0.00  0.00    +0.000 A 
ATOM     13  C   UNL     1       2.729   5.083  18.618  0.00  0.00    +0.000 A 
ENDROOT
BRANCH   6  14
ATOM     14  C   UNL     1       3.667   1.811  18.953  0.00  0.00    +0.000 C 
ATOM     15  N   UNL     1       4.233   0.735  18.332  0.00  0.00    +0.000 N 
ATOM     16  O   UNL     1       4.227   2.344  19.907  0.00  0.00    +0.000 OA
ATOM     17  H   UNL     1       3.660   0.146  17.740  0.00  0.00    +0.000 HD
ATOM     18  H   UNL     1       5.017   0.304  18.807  0.00  0.00    +0.000 HD
ENDBRANCH   6  14
TORSDOF 1
ENDMDL
MODEL 9
REMARK VINA RESULT:      -6.5      2.815      4.797
REMARK  Name = 
REMARK  2 active torsions:
REMARK  status: ('A' for Active; 'I' for Inactive)
REMARK    1  A    between atoms: C_1  and  C_2
REMARK    2  A    between atoms: C_6  and  C_7
REMARK                            x       y       z     vdW  Elec       q    Type
REMARK                         _______ _______ _______ _____ _____    ______ ____
ROOT
ATOM      1  C   UNL     1       2.024   3.650  21.637  0.00  0.00    +0.000 C 
ATOM      2  C   UNL     1       2.376   4.713  20.625  0.00  0.00    +0.000 C 
ATOM      3  O   UNL     1       1.751   5.774  20.661  0.00  0.00    +0.000 OA
ATOM      4  N   UNL     1       3.373   4.400  19.698  0.00  0.00    +0.000 N 
ATOM      5  C   UNL     1       4.071   3.103  19.658  0.00  0.00    +0.000 C 
ATOM      6  C   UNL     1       4.023   2.529  18.249  0.00  0.00    +0.000 C 
ATOM      7  O   UNL     1       4.669   3.392  17.313  0.00  0.00    +0.000 OA
ATOM      8  C   UNL     1       4.416   4.731  17.499  0.00  0.00    +0.000 A 
ATOM      9  C   UNL     1       4.843   5.550  16.446  0.00  0.00    +0.000 A 
ATOM     10  C   UNL     1       4.590   6.917  16.478  0.00  0.00    +0.000 A 
ATOM     11  C   UNL     1       3.921   7.466  17.566  0.00  0.00    +0.000 A 
ATOM     12  C   UNL     1       3.512   6.652  18.629  0.00  0.00    +0.000 A 
ATOM     13  C   UNL     1       3.754   5.273  18.620  0.00  0.00    +0.000 A 
ENDROOT
BRANCH   6  14
ATOM     14  C   UNL     1       2.580   2.146  17.884  0.00  0.00    +0.000 C 
ATOM     15  N   UNL     1       1.919   1.378  18.800  0.00  0.00    +0.000 N 
ATOM     16  O   UNL     1       2.002   2.549  16.879  0.00  0.00    +0.000 OA
ATOM     17  H   UNL     1       2.451   0.836  19.470  0.00  0.00    +0.000 HD
ATOM     18  H   UNL     1       1.016   1.020  18.516  0.00  0.00    +0.000 HD
ENDBRANCH   6  14
TORSDOF 1
ENDMDL
