MODEL 1
REMARK VINA RESULT:      -8.6      0.000      0.000
REMARK  Name = 
REMARK  4 active torsions:
REMARK  status: ('A' for Active; 'I' for Inactive)
REMARK    1  A    between atoms: C_1  and  C_2
REMARK    2  A    between atoms: C_4  and  C_5
REMARK    3  A    between atoms: C_12  and  C_14
REMARK    4  A    between atoms: C_16  and  C_17
REMARK                            x       y       z     vdW  Elec       q    Type
REMARK                         _______ _______ _______ _____ _____    ______ ____
ROOT
ATOM      1  C   UNL     1       2.202   6.070  21.080  0.00  0.00    +0.000 C 
ATOM      2  C   UNL     1       1.696   7.452  20.735  0.00  0.00    +0.000 C 
ATOM      3  C   UNL     1       0.192   7.553  21.081  0.00  0.00    +0.000 C 
ATOM      4  C   UNL     1      -0.180   9.021  21.333  0.00  0.00    +0.000 C 
ATOM      5  C   UNL     1       0.271   9.468  22.726  0.00  0.00    +0.000 C 
ATOM      6  N   UNL     1       0.396   9.852  20.285  0.00  0.00    +0.000 N 
ATOM      7  N   UNL     1       0.011  11.126  20.121  0.00  0.00    +0.000 NA
ATOM      8  C   UNL     1       0.702  11.515  19.048  0.00  0.00    +0.000 A 
ATOM      9  C   UNL     1       1.527  10.491  18.534  0.00  0.00    +0.000 A 
ATOM     10  C   UNL     1       1.313   9.404  19.362  0.00  0.00    +0.000 A 
ATOM     11  N   UNL     1       1.863   8.087  19.375  0.00  0.00    +0.000 N 
ATOM     12  C   UNL     1       2.520   7.618  18.145  0.00  0.00    +0.000 C 
ATOM     13  O   UNL     1       2.570   8.374  17.179  0.00  0.00    +0.000 OA
ENDROOT
BRANCH  12  14
ATOM     14  C   UNL     1       3.049   6.256  17.927  0.00  0.00    +0.000 A 
ATOM     15  C   UNL     1       2.137   5.214  17.872  0.00  0.00    +0.000 A 
ATOM     16  C   UNL     1       2.593   3.910  17.816  0.00  0.00    +0.000 A 
ATOM     17  N   UNL     1       3.886   3.653  17.542  0.00  0.00    +0.000 NA
ATOM     18  C   UNL     1       4.743   4.663  17.339  0.00  0.00    +0.000 A 
ATOM     19  C   UNL     1       6.002   4.347  16.844  0.00  0.00    +0.000 A 
ATOM     20  C   UNL     1       6.959   5.325  16.583  0.00  0.00    +0.000 A 
ATOM     21  C   UNL     1       6.679   6.647  16.887  0.00  0.00    +0.000 A 
ATOM     22  C   UNL     1       5.427   6.987  17.402  0.00  0.00    +0.000 A 
ATOM     23  C   UNL     1       4.407   6.009  17.581  0.00  0.00    +0.000 A 
BRANCH  16  24
ATOM     24  C   UNL     1       1.680   2.761  18.149  0.00  0.00    +0.000 C 
ATOM     25  C   UNL     1       1.788   2.048  19.475  0.00  0.00    +0.000 C 
ATOM     26  C   UNL     1       0.609   2.931  19.192  0.00  0.00    +0.000 C 
ENDBRANCH  16  24
ENDBRANCH  12  14
TORSDOF 2
ENDMDL
MODEL 2
REMARK VINA RESULT:      -7.8      1.378      4.187
REMARK  Name = 
REMARK  4 active torsions:
REMARK  status: ('A' for Active; 'I' for Inactive)
REMARK    1  A    between atoms: C_1  and  C_2
REMARK    2  A    between atoms: C_4  and  C_5
REMARK    3  A    between atoms: C_12  and  C_14
REMARK    4  A    between atoms: C_16  and  C_17
REMARK                            x       y       z     vdW  Elec       q    Type
REMARK                         _______ _______ _______ _____ _____    ______ ____
ROOT
ATOM      1  C   UNL     1       1.549   8.786  17.384  0.00  0.00    +0.000 C 
ATOM      2  C   UNL     1       1.092   9.323  18.721  0.00  0.00    +0.000 C 
ATOM      3  C   UNL     1       1.720  10.716  18.961  0.00  0.00    +0.000 C 
ATOM      4  C   UNL     1       0.840  11.516  19.932  0.00  0.00    +0.000 C 
ATOM      5  C   UNL     1      -0.388  12.083  19.216  0.00  0.00    +0.000 C 
ATOM      6  N   UNL     1       0.467  10.668  21.056  0.00  0.00    +0.000 N 
ATOM      7  N   UNL     1      -0.075  11.189  22.167  0.00  0.00    +0.000 NA
ATOM      8  C   UNL     1      -0.209  10.128  22.964  0.00  0.00    +0.000 A 
ATOM      9  C   UNL     1       0.245   8.935  22.360  0.00  0.00    +0.000 A 
ATOM     10  C   UNL     1       0.685   9.310  21.104  0.00  0.00    +0.000 A 
ATOM     11  N   UNL     1       1.235   8.563  20.020  0.00  0.00    +0.000 N 
ATOM     12  C   UNL     1       1.763   7.224  20.322  0.00  0.00    +0.000 C 
ATOM     13  O   UNL     1       1.703   6.814  21.477  0.00  0.00    +0.000 OA
ENDROOT
BRANCH  12  14
ATOM     14  C   UNL     1       2.467   6.348  19.362  0.00  0.00    +0.000 A 
ATOM     15  C   UNL     1       3.648   6.818  18.809  0.00  0.00    +0.000 A 
ATOM     16  C   UNL     1       4.263   6.100  17.801  0.00  0.00    +0.000 A 
ATOM     17  N   UNL     1       3.886   4.834  17.541  0.00  0.00    +0.000 NA
ATOM     18  C   UNL     1       2.899   4.268  18.248  0.00  0.00    +0.000 A 
ATOM     19  C   UNL     1       2.701   2.902  18.095  0.00  0.00    +0.000 A 
ATOM     20  C   UNL     1       1.712   2.216  18.797  0.00  0.00    +0.000 A 
ATOM     21  C   UNL     1       0.853   2.921  19.624  0.00  0.00    +0.000 A 
ATOM     22  C   UNL     1       1.022   4.299  19.780  0.00  0.00    +0.000 A 
ATOM     23  C   UNL     1       2.089   4.994  19.143  0.00  0.00    +0.000 A 
BRANCH  16  24
ATOM     24  C   UNL     1       5.296   6.746  16.917  0.00  0.00    +0.000 C 
ATOM     25  C   UNL     1       6.746   6.794  17.334  0.00  0.00    +0.000 C 
ATOM     26  C   UNL     1       6.317   5.896  16.211  0.00  0.00    +0.000 C 
ENDBRANCH  16  24
ENDBRANCH  12  14
TORSDOF 2
ENDMDL
MODEL 3
REMARK VINA RESULT:      -7.6      1.525      4.119
REMARK  Name = 
REMARK  4 active torsions:
REMARK  status: ('A' for Active; 'I' for Inactive)
REMARK    1  A    between atoms: C_1  and  C_2
REMARK    2  A    between atoms: C_4  and  C_5
REMARK    3  A    between atoms: C_12  and  C_14
REMARK    4  A    between atoms: C_16  and  C_17
REMARK                            x       y       z     vdW  Elec       q    Type
REMARK                         _______ _______ _______ _____ _____    ______ ____
ROOT
ATOM      1  C   UNL     1       2.341   8.088  17.225  0.00  0.00    +0.000 C 
ATOM      2  C   UNL     1       1.649   8.673  18.435  0.00  0.00    +0.000 C 
ATOM      3  C   UNL     1       2.196  10.094  18.707  0.00  0.00    +0.000 C 
ATOM      4  C   UNL     1       1.145  10.912  19.471  0.00  0.00    +0.000 C 
ATOM      5  C   UNL     1       0.046  11.407  18.527  0.00  0.00    +0.000 C 
ATOM      6  N   UNL     1       0.602  10.106  20.557  0.00  0.00    +0.000 N 
ATOM      7  N   UNL     1      -0.135  10.662  21.530  0.00  0.00    +0.000 NA
ATOM      8  C   UNL     1      -0.382   9.635  22.346  0.00  0.00    +0.000 A 
ATOM      9  C   UNL     1       0.196   8.430  21.891  0.00  0.00    +0.000 A 
ATOM     10  C   UNL     1       0.838   8.759  20.711  0.00  0.00    +0.000 A 
ATOM     11  N   UNL     1       1.582   7.979  19.776  0.00  0.00    +0.000 N 
ATOM     12  C   UNL     1       2.080   6.673  20.232  0.00  0.00    +0.000 C 
ATOM     13  O   UNL     1       1.830   6.315  21.379  0.00  0.00    +0.000 OA
ENDROOT
BRANCH  12  14
ATOM     14  C   UNL     1       2.957   5.775  19.453  0.00  0.00    +0.000 A 
ATOM     15  C   UNL     1       4.301   6.105  19.366  0.00  0.00    +0.000 A 
ATOM     16  C   UNL     1       5.129   5.379  18.531  0.00  0.00    +0.000 A 
ATOM     17  N   UNL     1       4.718   4.204  18.018  0.00  0.00    +0.000 NA
ATOM     18  C   UNL     1       3.493   3.740  18.302  0.00  0.00    +0.000 A 
ATOM     19  C   UNL     1       3.203   2.431  17.936  0.00  0.00    +0.000 A 
ATOM     20  C   UNL     1       1.965   1.850  18.200  0.00  0.00    +0.000 A 
ATOM     21  C   UNL     1       0.967   2.611  18.785  0.00  0.00    +0.000 A 
ATOM     22  C   UNL     1       1.230   3.935  19.145  0.00  0.00    +0.000 A 
ATOM     23  C   UNL     1       2.521   4.509  18.969  0.00  0.00    +0.000 A 
BRANCH  16  24
ATOM     24  C   UNL     1       6.465   5.928  18.106  0.00  0.00    +0.000 C 
ATOM     25  C   UNL     1       7.679   5.775  18.989  0.00  0.00    +0.000 C 
ATOM     26  C   UNL     1       7.574   4.989  17.716  0.00  0.00    +0.000 C 
ENDBRANCH  16  24
ENDBRANCH  12  14
TORSDOF 2
ENDMDL
MODEL 4
REMARK VINA RESULT:      -7.6      0.917      3.458
REMARK  Name = 
REMARK  4 active torsions:
REMARK  status: ('A' for Active; 'I' for Inactive)
REMARK    1  A    between atoms: C_1  and  C_2
REMARK    2  A    between atoms: C_4  and  C_5
REMARK    3  A    between atoms: C_12  and  C_14
REMARK    4  A    between atoms: C_16  and  C_17
REMARK                            x       y       z     vdW  Elec       q    Type
REMARK                         _______ _______ _______ _____ _____    ______ ____
ROOT
ATOM      1  C   UNL     1       2.573   6.353  21.082  0.00  0.00    +0.000 C 
ATOM      2  C   UNL     1       1.766   7.578  20.720  0.00  0.00    +0.000 C 
ATOM      3  C   UNL     1       0.272   7.324  21.030  0.00  0.00    +0.000 C 
ATOM      4  C   UNL     1      -0.439   8.664  21.268  0.00  0.00    +0.000 C 
ATOM      5  C   UNL     1      -0.137   9.202  22.669  0.00  0.00    +0.000 C 
ATOM      6  N   UNL     1      -0.049   9.608  20.230  0.00  0.00    +0.000 N 
ATOM      7  N   UNL     1      -0.718  10.757  20.051  0.00  0.00    +0.000 NA
ATOM      8  C   UNL     1      -0.112  11.298  18.993  0.00  0.00    +0.000 A 
ATOM      9  C   UNL     1       0.940  10.495  18.501  0.00  0.00    +0.000 A 
ATOM     10  C   UNL     1       0.968   9.388  19.329  0.00  0.00    +0.000 A 
ATOM     11  N   UNL     1       1.811   8.237  19.360  0.00  0.00    +0.000 N 
ATOM     12  C   UNL     1       2.587   7.936  18.148  0.00  0.00    +0.000 C 
ATOM     13  O   UNL     1       2.481   8.683  17.180  0.00  0.00    +0.000 OA
ENDROOT
BRANCH  12  14
ATOM     14  C   UNL     1       3.425   6.735  17.948  0.00  0.00    +0.000 A 
ATOM     15  C   UNL     1       4.798   6.881  18.075  0.00  0.00    +0.000 A 
ATOM     16  C   UNL     1       5.630   5.825  17.755  0.00  0.00    +0.000 A 
ATOM     17  N   UNL     1       5.124   4.588  17.587  0.00  0.00    +0.000 NA
ATOM     18  C   UNL     1       3.806   4.379  17.712  0.00  0.00    +0.000 A 
ATOM     19  C   UNL     1       3.367   3.062  17.750  0.00  0.00    +0.000 A 
ATOM     20  C   UNL     1       2.019   2.738  17.894  0.00  0.00    +0.000 A 
ATOM     21  C   UNL     1       1.077   3.752  17.934  0.00  0.00    +0.000 A 
ATOM     22  C   UNL     1       1.494   5.084  17.880  0.00  0.00    +0.000 A 
ATOM     23  C   UNL     1       2.875   5.428  17.830  0.00  0.00    +0.000 A 
BRANCH  16  24
ATOM     24  C   UNL     1       7.096   6.050  17.499  0.00  0.00    +0.000 C 
ATOM     25  C   UNL     1       7.667   7.446  17.467  0.00  0.00    +0.000 C 
ATOM     26  C   UNL     1       7.987   6.531  18.611  0.00  0.00    +0.000 C 
ENDBRANCH  16  24
ENDBRANCH  12  14
TORSDOF 2
ENDMDL
MODEL 5
REMARK VINA RESULT:      -7.3      0.665      3.419
REMARK  Name = 
REMARK  4 active torsions:
REMARK  status: ('A' for Active; 'I' for Inactive)
REMARK    1  A    between atoms: C_1  and  C_2
REMARK    2  A    between atoms: C_4  and  C_5
REMARK    3  A    between atoms: C_12  and  C_14
REMARK    4  A    between atoms: C_16  and  C_17
REMARK                            x       y       z     vdW  Elec       q    Type
REMARK                         _______ _______ _______ _____ _____    ______ ____
ROOT
ATOM      1  C   UNL     1       2.553   5.963  21.102  0.00  0.00    +0.000 C 
ATOM      2  C   UNL     1       1.926   7.273  20.687  0.00  0.00    +0.000 C 
ATOM      3  C   UNL     1       0.419   7.260  21.038  0.00  0.00    +0.000 C 
ATOM      4  C   UNL     1      -0.080   8.701  21.214  0.00  0.00    +0.000 C 
ATOM      5  C   UNL     1       0.334   9.261  22.577  0.00  0.00    +0.000 C 
ATOM      6  N   UNL     1       0.417   9.522  20.118  0.00  0.00    +0.000 N 
ATOM      7  N   UNL     1      -0.080  10.746  19.888  0.00  0.00    +0.000 NA
ATOM      8  C   UNL     1       0.571  11.136  18.791  0.00  0.00    +0.000 A 
ATOM      9  C   UNL     1       1.481  10.161  18.326  0.00  0.00    +0.000 A 
ATOM     10  C   UNL     1       1.367   9.107  19.213  0.00  0.00    +0.000 A 
ATOM     11  N   UNL     1       2.032   7.846  19.292  0.00  0.00    +0.000 N 
ATOM     12  C   UNL     1       2.724   7.371  18.085  0.00  0.00    +0.000 C 
ATOM     13  O   UNL     1       2.704   8.074  17.079  0.00  0.00    +0.000 OA
ENDROOT
BRANCH  12  14
ATOM     14  C   UNL     1       3.371   6.051  17.936  0.00  0.00    +0.000 A 
ATOM     15  C   UNL     1       4.757   6.012  17.926  0.00  0.00    +0.000 A 
ATOM     16  C   UNL     1       5.404   4.823  17.644  0.00  0.00    +0.000 A 
ATOM     17  N   UNL     1       4.724   3.661  17.650  0.00  0.00    +0.000 NA
ATOM     18  C   UNL     1       3.410   3.653  17.912  0.00  0.00    +0.000 A 
ATOM     19  C   UNL     1       2.806   2.420  18.125  0.00  0.00    +0.000 A 
ATOM     20  C   UNL     1       1.449   2.305  18.421  0.00  0.00    +0.000 A 
ATOM     21  C   UNL     1       0.659   3.442  18.439  0.00  0.00    +0.000 A 
ATOM     22  C   UNL     1       1.241   4.691  18.210  0.00  0.00    +0.000 A 
ATOM     23  C   UNL     1       2.643   4.830  18.003  0.00  0.00    +0.000 A 
BRANCH  16  24
ATOM     24  C   UNL     1       6.853   4.815  17.237  0.00  0.00    +0.000 C 
ATOM     25  C   UNL     1       7.246   4.859  15.781  0.00  0.00    +0.000 C 
ATOM     26  C   UNL     1       7.477   6.054  16.658  0.00  0.00    +0.000 C 
ENDBRANCH  16  24
ENDBRANCH  12  14
TORSDOF 2
ENDMDL
MODEL 6
REMARK VINA RESULT:      -7.1      0.917      1.071
REMARK  Name = 
REMARK  4 active torsions:
REMARK  status: ('A' for Active; 'I' for Inactive)
REMARK    1  A    between atoms: C_1  and  C_2
REMARK    2  A    between atoms: C_4  and  C_5
REMARK    3  A    between atoms: C_12  and  C_14
REMARK    4  A    between atoms: C_16  and  C_17
REMARK                            x       y       z     vdW  Elec       q    Type
REMARK                         _______ _______ _______ _____ _____    ______ ____
ROOT
ATOM      1  C   UNL     1       1.493   7.070  21.303  0.00  0.00    +0.000 C 
ATOM      2  C   UNL     1       1.166   8.455  20.793  0.00  0.00    +0.000 C 
ATOM      3  C   UNL     1      -0.340   8.740  20.999  0.00  0.00    +0.000 C 
ATOM      4  C   UNL     1      -0.568  10.256  21.086  0.00  0.00    +0.000 C 
ATOM      5  C   UNL     1      -0.176  10.790  22.465  0.00  0.00    +0.000 C 
ATOM      6  N   UNL     1       0.172  10.918  20.019  0.00  0.00    +0.000 N 
ATOM      7  N   UNL     1      -0.060  12.201  19.708  0.00  0.00    +0.000 NA
ATOM      8  C   UNL     1       0.748  12.411  18.667  0.00  0.00    +0.000 A 
ATOM      9  C   UNL     1       1.492  11.263  18.319  0.00  0.00    +0.000 A 
ATOM     10  C   UNL     1       1.101  10.290  19.221  0.00  0.00    +0.000 A 
ATOM     11  N   UNL     1       1.503   8.932  19.399  0.00  0.00    +0.000 N 
ATOM     12  C   UNL     1       2.195   8.280  18.277  0.00  0.00    +0.000 C 
ATOM     13  O   UNL     1       2.398   8.928  17.255  0.00  0.00    +0.000 OA
ENDROOT
BRANCH  12  14
ATOM     14  C   UNL     1       2.588   6.857  18.229  0.00  0.00    +0.000 A 
ATOM     15  C   UNL     1       1.622   5.912  18.539  0.00  0.00    +0.000 A 
ATOM     16  C   UNL     1       1.979   4.582  18.650  0.00  0.00    +0.000 A 
ATOM     17  N   UNL     1       3.175   4.159  18.199  0.00  0.00    +0.000 NA
ATOM     18  C   UNL     1       4.034   5.032  17.655  0.00  0.00    +0.000 A 
ATOM     19  C   UNL     1       5.149   4.515  17.008  0.00  0.00    +0.000 A 
ATOM     20  C   UNL     1       6.094   5.337  16.396  0.00  0.00    +0.000 A 
ATOM     21  C   UNL     1       5.959   6.712  16.489  0.00  0.00    +0.000 A 
ATOM     22  C   UNL     1       4.855   7.255  17.150  0.00  0.00    +0.000 A 
ATOM     23  C   UNL     1       3.834   6.425  17.694  0.00  0.00    +0.000 A 
BRANCH  16  24
ATOM     24  C   UNL     1       1.081   3.601  19.356  0.00  0.00    +0.000 C 
ATOM     25  C   UNL     1       0.732   2.278  18.720  0.00  0.00    +0.000 C 
ATOM     26  C   UNL     1       1.651   2.321  19.904  0.00  0.00    +0.000 C 
ENDBRANCH  16  24
ENDBRANCH  12  14
TORSDOF 2
ENDMDL
MODEL 7
REMARK VINA RESULT:      -7.0      5.765      8.288
REMARK  Name = 
REMARK  4 active torsions:
REMARK  status: ('A' for Active; 'I' for Inactive)
REMARK    1  A    between atoms: C_1  and  C_2
REMARK    2  A    between atoms: C_4  and  C_5
REMARK    3  A    between atoms: C_12  and  C_14
REMARK    4  A    between atoms: C_16  and  C_17
REMARK                            x       y       z     vdW  Elec       q    Type
REMARK                         _______ _______ _______ _____ _____    ______ ____
ROOT
ATOM      1  C   UNL     1      -2.914  13.738  21.955  0.00  0.00    +0.000 C 
ATOM      2  C   UNL     1      -4.018  13.340  21.002  0.00  0.00    +0.000 C 
ATOM      3  C   UNL     1      -5.142  12.620  21.783  0.00  0.00    +0.000 C 
ATOM      4  C   UNL     1      -6.469  12.764  21.024  0.00  0.00    +0.000 C 
ATOM      5  C   UNL     1      -7.073  14.154  21.240  0.00  0.00    +0.000 C 
ATOM      6  N   UNL     1      -6.251  12.483  19.612  0.00  0.00    +0.000 N 
ATOM      7  N   UNL     1      -7.282  12.283  18.778  0.00  0.00    +0.000 NA
ATOM      8  C   UNL     1      -6.684  11.998  17.620  0.00  0.00    +0.000 A 
ATOM      9  C   UNL     1      -5.276  12.017  17.718  0.00  0.00    +0.000 A 
ATOM     10  C   UNL     1      -5.009  12.340  19.036  0.00  0.00    +0.000 A 
ATOM     11  N   UNL     1      -3.786  12.530  19.747  0.00  0.00    +0.000 N 
ATOM     12  C   UNL     1      -2.561  11.987  19.140  0.00  0.00    +0.000 C 
ATOM     13  O   UNL     1      -2.646  11.409  18.060  0.00  0.00    +0.000 OA
ENDROOT
BRANCH  12  14
ATOM     14  C   UNL     1      -1.225  11.986  19.770  0.00  0.00    +0.000 A 
ATOM     15  C   UNL     1      -0.763  10.788  20.294  0.00  0.00    +0.000 A 
ATOM     16  C   UNL     1       0.413  10.770  21.020  0.00  0.00    +0.000 A 
ATOM     17  N   UNL     1       1.245  11.828  20.994  0.00  0.00    +0.000 NA
ATOM     18  C   UNL     1       0.927  12.914  20.277  0.00  0.00    +0.000 A 
ATOM     19  C   UNL     1       1.912  13.879  20.104  0.00  0.00    +0.000 A 
ATOM     20  C   UNL     1       1.687  15.037  19.362  0.00  0.00    +0.000 A 
ATOM     21  C   UNL     1       0.429  15.272  18.834  0.00  0.00    +0.000 A 
ATOM     22  C   UNL     1      -0.581  14.324  19.009  0.00  0.00    +0.000 A 
ATOM     23  C   UNL     1      -0.336  13.093  19.683  0.00  0.00    +0.000 A 
BRANCH  16  24
ATOM     24  C   UNL     1       0.742   9.610  21.921  0.00  0.00    +0.000 C 
ATOM     25  C   UNL     1       0.070   9.461  23.264  0.00  0.00    +0.000 C 
ATOM     26  C   UNL     1      -0.273   8.522  22.146  0.00  0.00    +0.000 C 
ENDBRANCH  16  24
ENDBRANCH  12  14
TORSDOF 2
ENDMDL
MODEL 8
REMARK VINA RESULT:      -7.0      3.146      5.719
REMARK  Name = 
REMARK  4 active torsions:
REMARK  status: ('A' for Active; 'I' for Inactive)
REMARK    1  A    between atoms: C_1  and  C_2
REMARK    2  A    between atoms: C_4  and  C_5
REMARK    3  A    between atoms: C_12  and  C_14
REMARK    4  A    between atoms: C_16  and  C_17
REMARK                            x       y       z     vdW  Elec       q    Type
REMARK                         _______ _______ _______ _____ _____    ______ ____
ROOT
ATOM      1  C   UNL     1       4.096   6.978  17.797  0.00  0.00    +0.000 C 
ATOM      2  C   UNL     1       3.241   5.849  18.324  0.00  0.00    +0.000 C 
ATOM      3  C   UNL     1       3.283   5.847  19.870  0.00  0.00    +0.000 C 
ATOM      4  C   UNL     1       2.014   5.177  20.418  0.00  0.00    +0.000 C 
ATOM      5  C   UNL     1       0.820   6.132  20.353  0.00  0.00    +0.000 C 
ATOM      6  N   UNL     1       1.762   3.945  19.682  0.00  0.00    +0.000 N 
ATOM      7  N   UNL     1       0.876   3.042  20.126  0.00  0.00    +0.000 NA
ATOM      8  C   UNL     1       0.979   2.054  19.235  0.00  0.00    +0.000 A 
ATOM      9  C   UNL     1       1.927   2.331  18.226  0.00  0.00    +0.000 A 
ATOM     10  C   UNL     1       2.431   3.581  18.536  0.00  0.00    +0.000 A 
ATOM     11  N   UNL     1       3.399   4.410  17.892  0.00  0.00    +0.000 N 
ATOM     12  C   UNL     1       4.299   3.768  16.923  0.00  0.00    +0.000 C 
ATOM     13  O   UNL     1       4.174   2.566  16.709  0.00  0.00    +0.000 OA
ENDROOT
BRANCH  12  14
ATOM     14  C   UNL     1       5.430   4.431  16.241  0.00  0.00    +0.000 A 
ATOM     15  C   UNL     1       6.377   5.062  17.032  0.00  0.00    +0.000 A 
ATOM     16  C   UNL     1       7.370   5.817  16.437  0.00  0.00    +0.000 A 
ATOM     17  N   UNL     1       7.591   5.727  15.112  0.00  0.00    +0.000 NA
ATOM     18  C   UNL     1       6.837   4.915  14.359  0.00  0.00    +0.000 A 
ATOM     19  C   UNL     1       7.246   4.689  13.051  0.00  0.00    +0.000 A 
ATOM     20  C   UNL     1       6.540   3.849  12.192  0.00  0.00    +0.000 A 
ATOM     21  C   UNL     1       5.358   3.271  12.626  0.00  0.00    +0.000 A 
ATOM     22  C   UNL     1       4.918   3.498  13.932  0.00  0.00    +0.000 A 
ATOM     23  C   UNL     1       5.682   4.276  14.849  0.00  0.00    +0.000 A 
BRANCH  16  24
ATOM     24  C   UNL     1       8.158   6.819  17.238  0.00  0.00    +0.000 C 
ATOM     25  C   UNL     1       7.535   8.123  17.671  0.00  0.00    +0.000 C 
ATOM     26  C   UNL     1       7.822   7.056  18.684  0.00  0.00    +0.000 C 
ENDBRANCH  16  24
ENDBRANCH  12  14
TORSDOF 2
ENDMDL
MODEL 9
REMARK VINA RESULT:      -6.9      4.023      7.641
REMARK  Name = 
REMARK  4 active torsions:
REMARK  status: ('A' for Active; 'I' for Inactive)
REMARK    1  A    between atoms: C_1  and  C_2
REMARK    2  A    between atoms: C_4  and  C_5
REMARK    3  A    between atoms: C_12  and  C_14
REMARK    4  A    between atoms: C_16  and  C_17
REMARK                            x       y       z     vdW  Elec       q    Type
REMARK                         _______ _______ _______ _____ _____    ______ ____
ROOT
ATOM      1  C   UNL     1       0.580  14.113  18.892  0.00  0.00    +0.000 C 
ATOM      2  C   UNL     1       0.229  14.481  20.315  0.00  0.00    +0.000 C 
ATOM      3  C   UNL     1       1.497  14.976  21.049  0.00  0.00    +0.000 C 
ATOM      4  C   UNL     1       1.094  15.900  22.207  0.00  0.00    +0.000 C 
ATOM      5  C   UNL     1       0.728  17.294  21.691  0.00  0.00    +0.000 C 
ATOM      6  N   UNL     1      -0.002  15.294  22.950  0.00  0.00    +0.000 N 
ATOM      7  N   UNL     1      -0.367  15.762  24.152  0.00  0.00    +0.000 NA
ATOM      8  C   UNL     1      -1.335  14.922  24.523  0.00  0.00    +0.000 A 
ATOM      9  C   UNL     1      -1.586  13.923  23.557  0.00  0.00    +0.000 A 
ATOM     10  C   UNL     1      -0.700  14.185  22.527  0.00  0.00    +0.000 A 
ATOM     11  N   UNL     1      -0.478  13.547  21.270  0.00  0.00    +0.000 N 
ATOM     12  C   UNL     1      -1.000  12.183  21.104  0.00  0.00    +0.000 C 
ATOM     13  O   UNL     1      -1.601  11.664  22.040  0.00  0.00    +0.000 OA
ENDROOT
BRANCH  12  14
ATOM     14  C   UNL     1      -0.777  11.322  19.924  0.00  0.00    +0.000 A 
ATOM     15  C   UNL     1       0.323  10.478  19.942  0.00  0.00    +0.000 A 
ATOM     16  C   UNL     1       0.655   9.764  18.807  0.00  0.00    +0.000 A 
ATOM     17  N   UNL     1      -0.218   9.666  17.786  0.00  0.00    +0.000 NA
ATOM     18  C   UNL     1      -1.408  10.276  17.860  0.00  0.00    +0.000 A 
ATOM     19  C   UNL     1      -2.351   9.963  16.888  0.00  0.00    +0.000 A 
ATOM     20  C   UNL     1      -3.623  10.531  16.886  0.00  0.00    +0.000 A 
ATOM     21  C   UNL     1      -3.943  11.486  17.836  0.00  0.00    +0.000 A 
ATOM     22  C   UNL     1      -3.005  11.830  18.811  0.00  0.00    +0.000 A 
ATOM     23  C   UNL     1      -1.737  11.186  18.883  0.00  0.00    +0.000 A 
BRANCH  16  24
ATOM     24  C   UNL     1       2.025   9.162  18.650  0.00  0.00    +0.000 C 
ATOM     25  C   UNL     1       2.279   7.717  19.004  0.00  0.00    +0.000 C 
ATOM     26  C   UNL     1       2.282   8.149  17.568  0.00  0.00    +0.000 C 
ENDBRANCH  16  24
ENDBRANCH  12  14
TORSDOF 2
ENDMDL
