MODEL 1
REMARK VINA RESULT:      -8.3      0.000      0.000
REMARK  Name = 
REMARK  9 active torsions:
REMARK  status: ('A' for Active; 'I' for Inactive)
REMARK    1  A    between atoms: C_1  and  C_2
REMARK    2  A    between atoms: C_2  and  C_3
REMARK    3  A    between atoms: C_6  and  N_7
REMARK    4  A    between atoms: C_17  and  C_18
REMARK    5  A    between atoms: C_21  and  O_22
REMARK    6  A    between atoms: O_22  and  C_23
REMARK    7  A    between atoms: C_23  and  C_24
REMARK    8  A    between atoms: C_24  and  C_25
REMARK    9  A    between atoms: C_24  and  C_26
REMARK                            x       y       z     vdW  Elec       q    Type
REMARK                         _______ _______ _______ _____ _____    ______ ____
ROOT
ATOM      1  N   UNL     1       2.948   6.105  18.764  0.00  0.00    +0.000 N 
ATOM      2  C   UNL     1       2.173   5.014  18.331  0.00  0.00    +0.000 C 
ATOM      3  O   UNL     1       1.079   5.082  17.781  0.00  0.00    +0.000 OA
ATOM      4  C   UNL     1       2.766   3.666  18.524  0.00  0.00    +0.000 A 
ATOM      5  C   UNL     1       2.212   2.540  17.906  0.00  0.00    +0.000 A 
ATOM      6  C   UNL     1       2.775   1.286  18.134  0.00  0.00    +0.000 A 
ATOM      7  C   UNL     1       3.860   1.160  19.000  0.00  0.00    +0.000 A 
ATOM      8  C   UNL     1       4.404   2.288  19.622  0.00  0.00    +0.000 A 
ATOM      9  C   UNL     1       3.889   3.555  19.350  0.00  0.00    +0.000 A 
ATOM     10  N   UNL     1       4.441   4.704  19.944  0.00  0.00    +0.000 N 
ATOM     11  C   UNL     1       4.365   5.875  19.061  0.00  0.00    +0.000 C 
ATOM     12  H   UNL     1       5.367   4.551  20.322  0.00  0.00    +0.000 HD
ENDROOT
BRANCH   1  16
ATOM     13  C   UNL     1       1.168   9.997  18.903  0.00  0.00    +0.000 A 
ATOM     14  C   UNL     1       1.841   9.559  17.762  0.00  0.00    +0.000 A 
ATOM     15  C   UNL     1       2.452   8.298  17.737  0.00  0.00    +0.000 A 
ATOM     16  C   UNL     1       2.402   7.435  18.842  0.00  0.00    +0.000 A 
ATOM     17  C   UNL     1       1.750   7.903  19.994  0.00  0.00    +0.000 A 
ATOM     18  C   UNL     1       1.141   9.164  20.024  0.00  0.00    +0.000 A 
BRANCH  13  20
ATOM     19  C   UNL     1      -0.414  11.461  20.162  0.00  0.00    +0.000 C 
ATOM     20  C   UNL     1       0.427  11.307  18.901  0.00  0.00    +0.000 C 
ENDBRANCH  13  20
ENDBRANCH   1  16
BRANCH  11  21
ATOM     21  C   UNL     1       5.274   5.705  17.829  0.00  0.00    +0.000 A 
ATOM     22  C   UNL     1       4.858   6.119  16.557  0.00  0.00    +0.000 A 
ATOM     23  C   UNL     1       5.625   5.858  15.420  0.00  0.00    +0.000 A 
ATOM     24  C   UNL     1       6.845   5.190  15.511  0.00  0.00    +0.000 A 
ATOM     25  C   UNL     1       7.311   4.831  16.777  0.00  0.00    +0.000 A 
ATOM     26  C   UNL     1       6.538   5.088  17.926  0.00  0.00    +0.000 A 
BRANCH  24  27
ATOM     27  O   UNL     1       7.631   4.848  14.433  0.00  0.00    +0.000 OA
BRANCH  27  28
ATOM     28  C   UNL     1       6.951   4.875  13.172  0.00  0.00    +0.000 C 
BRANCH  28  29
ATOM     29  C   UNL     1       6.371   3.510  12.781  0.00  0.00    +0.000 C 
ATOM     30  C   UNL     1       4.898   3.611  12.386  0.00  0.00    +0.000 C 
ATOM     31  C   UNL     1       7.189   2.936  11.618  0.00  0.00    +0.000 C 
ENDBRANCH  28  29
ENDBRANCH  27  28
ENDBRANCH  24  27
ENDBRANCH  11  21
TORSDOF 6
ENDMDL
MODEL 2
REMARK VINA RESULT:      -8.1      2.208      7.583
REMARK  Name = 
REMARK  9 active torsions:
REMARK  status: ('A' for Active; 'I' for Inactive)
REMARK    1  A    between atoms: C_1  and  C_2
REMARK    2  A    between atoms: C_2  and  C_3
REMARK    3  A    between atoms: C_6  and  N_7
REMARK    4  A    between atoms: C_17  and  C_18
REMARK    5  A    between atoms: C_21  and  O_22
REMARK    6  A    between atoms: O_22  and  C_23
REMARK    7  A    between atoms: C_23  and  C_24
REMARK    8  A    between atoms: C_24  and  C_25
REMARK    9  A    between atoms: C_24  and  C_26
REMARK                            x       y       z     vdW  Elec       q    Type
REMARK                         _______ _______ _______ _____ _____    ______ ____
ROOT
ATOM      1  N   UNL     1       4.068   4.424  17.693  0.00  0.00    +0.000 N 
ATOM      2  C   UNL     1       4.354   3.793  18.917  0.00  0.00    +0.000 C 
ATOM      3  O   UNL     1       5.473   3.537  19.350  0.00  0.00    +0.000 OA
ATOM      4  C   UNL     1       3.188   3.453  19.773  0.00  0.00    +0.000 A 
ATOM      5  C   UNL     1       3.361   3.066  21.106  0.00  0.00    +0.000 A 
ATOM      6  C   UNL     1       2.248   2.723  21.870  0.00  0.00    +0.000 A 
ATOM      7  C   UNL     1       0.979   2.735  21.292  0.00  0.00    +0.000 A 
ATOM      8  C   UNL     1       0.814   3.113  19.956  0.00  0.00    +0.000 A 
ATOM      9  C   UNL     1       1.914   3.521  19.202  0.00  0.00    +0.000 A 
ATOM     10  N   UNL     1       1.763   3.933  17.865  0.00  0.00    +0.000 N 
ATOM     11  C   UNL     1       2.725   4.978  17.495  0.00  0.00    +0.000 C 
ATOM     12  H   UNL     1       0.808   4.168  17.627  0.00  0.00    +0.000 HD
ENDROOT
BRANCH   1  16
ATOM     13  C   UNL     1       6.930   5.013  14.564  0.00  0.00    +0.000 A 
ATOM     14  C   UNL     1       6.144   3.862  14.606  0.00  0.00    +0.000 A 
ATOM     15  C   UNL     1       5.235   3.660  15.652  0.00  0.00    +0.000 A 
ATOM     16  C   UNL     1       5.076   4.601  16.681  0.00  0.00    +0.000 A 
ATOM     17  C   UNL     1       5.898   5.738  16.644  0.00  0.00    +0.000 A 
ATOM     18  C   UNL     1       6.810   5.943  15.601  0.00  0.00    +0.000 A 
BRANCH  13  20
ATOM     19  C   UNL     1       7.331   4.581  12.138  0.00  0.00    +0.000 C 
ATOM     20  C   UNL     1       7.837   5.282  13.393  0.00  0.00    +0.000 C 
ENDBRANCH  13  20
ENDBRANCH   1  16
BRANCH  11  21
ATOM     21  C   UNL     1       2.440   6.291  18.251  0.00  0.00    +0.000 A 
ATOM     22  C   UNL     1       2.193   6.297  19.629  0.00  0.00    +0.000 A 
ATOM     23  C   UNL     1       1.816   7.464  20.296  0.00  0.00    +0.000 A 
ATOM     24  C   UNL     1       1.688   8.674  19.615  0.00  0.00    +0.000 A 
ATOM     25  C   UNL     1       1.998   8.704  18.254  0.00  0.00    +0.000 A 
ATOM     26  C   UNL     1       2.374   7.528  17.577  0.00  0.00    +0.000 A 
BRANCH  24  27
ATOM     27  O   UNL     1       1.268   9.853  20.189  0.00  0.00    +0.000 OA
BRANCH  27  28
ATOM     28  C   UNL     1      -0.002   9.772  20.848  0.00  0.00    +0.000 C 
BRANCH  28  29
ATOM     29  C   UNL     1      -0.008  10.470  22.214  0.00  0.00    +0.000 C 
ATOM     30  C   UNL     1      -1.171  11.453  22.344  0.00  0.00    +0.000 C 
ATOM     31  C   UNL     1      -0.093   9.406  23.315  0.00  0.00    +0.000 C 
ENDBRANCH  28  29
ENDBRANCH  27  28
ENDBRANCH  24  27
ENDBRANCH  11  21
TORSDOF 6
ENDMDL
MODEL 3
REMARK VINA RESULT:      -8.0      2.089      7.244
REMARK  Name = 
REMARK  9 active torsions:
REMARK  status: ('A' for Active; 'I' for Inactive)
REMARK    1  A    between atoms: C_1  and  C_2
REMARK    2  A    between atoms: C_2  and  C_3
REMARK    3  A    between atoms: C_6  and  N_7
REMARK    4  A    between atoms: C_17  and  C_18
REMARK    5  A    between atoms: C_21  and  O_22
REMARK    6  A    between atoms: O_22  and  C_23
REMARK    7  A    between atoms: C_23  and  C_24
REMARK    8  A    between atoms: C_24  and  C_25
REMARK    9  A    between atoms: C_24  and  C_26
REMARK                            x       y       z     vdW  Elec       q    Type
REMARK                         _______ _______ _______ _____ _____    ______ ____
ROOT
ATOM      1  N   UNL     1       4.079   4.396  17.691  0.00  0.00    +0.000 N 
ATOM      2  C   UNL     1       4.369   3.764  18.914  0.00  0.00    +0.000 C 
ATOM      3  O   UNL     1       5.488   3.508  19.343  0.00  0.00    +0.000 OA
ATOM      4  C   UNL     1       3.205   3.423  19.772  0.00  0.00    +0.000 A 
ATOM      5  C   UNL     1       3.382   3.035  21.104  0.00  0.00    +0.000 A 
ATOM      6  C   UNL     1       2.271   2.691  21.871  0.00  0.00    +0.000 A 
ATOM      7  C   UNL     1       1.001   2.704  21.297  0.00  0.00    +0.000 A 
ATOM      8  C   UNL     1       0.831   3.083  19.962  0.00  0.00    +0.000 A 
ATOM      9  C   UNL     1       1.929   3.492  19.205  0.00  0.00    +0.000 A 
ATOM     10  N   UNL     1       1.775   3.904  17.869  0.00  0.00    +0.000 N 
ATOM     11  C   UNL     1       2.736   4.950  17.497  0.00  0.00    +0.000 C 
ATOM     12  H   UNL     1       0.819   4.140  17.633  0.00  0.00    +0.000 HD
ENDROOT
BRANCH   1  16
ATOM     13  C   UNL     1       6.937   5.010  14.563  0.00  0.00    +0.000 A 
ATOM     14  C   UNL     1       6.055   3.930  14.523  0.00  0.00    +0.000 A 
ATOM     15  C   UNL     1       5.147   3.715  15.567  0.00  0.00    +0.000 A 
ATOM     16  C   UNL     1       5.084   4.574  16.676  0.00  0.00    +0.000 A 
ATOM     17  C   UNL     1       6.001   5.636  16.718  0.00  0.00    +0.000 A 
ATOM     18  C   UNL     1       6.912   5.852  15.677  0.00  0.00    +0.000 A 
BRANCH  13  20
ATOM     19  C   UNL     1       7.394   4.554  12.151  0.00  0.00    +0.000 C 
ATOM     20  C   UNL     1       7.846   5.301  13.399  0.00  0.00    +0.000 C 
ENDBRANCH  13  20
ENDBRANCH   1  16
BRANCH  11  21
ATOM     21  C   UNL     1       2.453   6.262  18.254  0.00  0.00    +0.000 A 
ATOM     22  C   UNL     1       2.192   6.265  19.630  0.00  0.00    +0.000 A 
ATOM     23  C   UNL     1       1.816   7.432  20.297  0.00  0.00    +0.000 A 
ATOM     24  C   UNL     1       1.704   8.646  19.620  0.00  0.00    +0.000 A 
ATOM     25  C   UNL     1       2.028   8.678  18.262  0.00  0.00    +0.000 A 
ATOM     26  C   UNL     1       2.402   7.502  17.585  0.00  0.00    +0.000 A 
BRANCH  24  27
ATOM     27  O   UNL     1       1.287   9.826  20.194  0.00  0.00    +0.000 OA
BRANCH  27  28
ATOM     28  C   UNL     1       0.615  10.717  19.295  0.00  0.00    +0.000 C 
BRANCH  28  29
ATOM     29  C   UNL     1      -0.909  10.537  19.310  0.00  0.00    +0.000 C 
ATOM     30  C   UNL     1      -1.621  11.773  19.859  0.00  0.00    +0.000 C 
ATOM     31  C   UNL     1      -1.389  10.243  17.884  0.00  0.00    +0.000 C 
ENDBRANCH  28  29
ENDBRANCH  27  28
ENDBRANCH  24  27
ENDBRANCH  11  21
TORSDOF 6
ENDMDL
MODEL 4
REMARK VINA RESULT:      -7.7      0.275      1.265
REMARK  Name = 
REMARK  9 active torsions:
REMARK  status: ('A' for Active; 'I' for Inactive)
REMARK    1  A    between atoms: C_1  and  C_2
REMARK    2  A    between atoms: C_2  and  C_3
REMARK    3  A    between atoms: C_6  and  N_7
REMARK    4  A    between atoms: C_17  and  C_18
REMARK    5  A    between atoms: C_21  and  O_22
REMARK    6  A    between atoms: O_22  and  C_23
REMARK    7  A    between atoms: C_23  and  C_24
REMARK    8  A    between atoms: C_24  and  C_25
REMARK    9  A    between atoms: C_24  and  C_26
REMARK                            x       y       z     vdW  Elec       q    Type
REMARK                         _______ _______ _______ _____ _____    ______ ____
ROOT
ATOM      1  N   UNL     1       2.942   6.023  18.705  0.00  0.00    +0.000 N 
ATOM      2  C   UNL     1       2.160   4.897  18.389  0.00  0.00    +0.000 C 
ATOM      3  O   UNL     1       1.039   4.916  17.891  0.00  0.00    +0.000 OA
ATOM      4  C   UNL     1       2.779   3.572  18.646  0.00  0.00    +0.000 A 
ATOM      5  C   UNL     1       2.210   2.399  18.137  0.00  0.00    +0.000 A 
ATOM      6  C   UNL     1       2.799   1.171  18.424  0.00  0.00    +0.000 A 
ATOM      7  C   UNL     1       3.928   1.115  19.240  0.00  0.00    +0.000 A 
ATOM      8  C   UNL     1       4.487   2.290  19.754  0.00  0.00    +0.000 A 
ATOM      9  C   UNL     1       3.943   3.530  19.419  0.00  0.00    +0.000 A 
ATOM     10  N   UNL     1       4.510   4.723  19.902  0.00  0.00    +0.000 N 
ATOM     11  C   UNL     1       4.374   5.828  18.945  0.00  0.00    +0.000 C 
ATOM     12  H   UNL     1       5.455   4.606  20.243  0.00  0.00    +0.000 HD
ENDROOT
BRANCH   1  16
ATOM     13  C   UNL     1       1.437  10.030  18.835  0.00  0.00    +0.000 A 
ATOM     14  C   UNL     1       1.298   9.178  19.931  0.00  0.00    +0.000 A 
ATOM     15  C   UNL     1       1.761   7.857  19.868  0.00  0.00    +0.000 A 
ATOM     16  C   UNL     1       2.383   7.350  18.717  0.00  0.00    +0.000 A 
ATOM     17  C   UNL     1       2.486   8.209  17.611  0.00  0.00    +0.000 A 
ATOM     18  C   UNL     1       2.022   9.529  17.669  0.00  0.00    +0.000 A 
BRANCH  13  20
ATOM     19  C   UNL     1      -0.405  11.610  19.420  0.00  0.00    +0.000 C 
ATOM     20  C   UNL     1       1.031  11.476  18.931  0.00  0.00    +0.000 C 
ENDBRANCH  13  20
ENDBRANCH   1  16
BRANCH  11  21
ATOM     21  C   UNL     1       5.223   5.580  17.683  0.00  0.00    +0.000 A 
ATOM     22  C   UNL     1       6.399   4.821  17.736  0.00  0.00    +0.000 A 
ATOM     23  C   UNL     1       7.234   4.694  16.625  0.00  0.00    +0.000 A 
ATOM     24  C   UNL     1       6.918   5.305  15.412  0.00  0.00    +0.000 A 
ATOM     25  C   UNL     1       5.715   6.007  15.318  0.00  0.00    +0.000 A 
ATOM     26  C   UNL     1       4.873   6.141  16.438  0.00  0.00    +0.000 A 
BRANCH  24  27
ATOM     27  O   UNL     1       7.715   5.271  14.289  0.00  0.00    +0.000 OA
BRANCH  27  28
ATOM     28  C   UNL     1       7.000   5.096  13.060  0.00  0.00    +0.000 C 
BRANCH  28  29
ATOM     29  C   UNL     1       6.501   3.659  12.863  0.00  0.00    +0.000 C 
ATOM     30  C   UNL     1       4.992   3.609  12.626  0.00  0.00    +0.000 C 
ATOM     31  C   UNL     1       7.240   3.034  11.674  0.00  0.00    +0.000 C 
ENDBRANCH  28  29
ENDBRANCH  27  28
ENDBRANCH  24  27
ENDBRANCH  11  21
TORSDOF 6
ENDMDL
MODEL 5
REMARK VINA RESULT:      -7.6      0.637      1.262
REMARK  Name = 
REMARK  9 active torsions:
REMARK  status: ('A' for Active; 'I' for Inactive)
REMARK    1  A    between atoms: C_1  and  C_2
REMARK    2  A    between atoms: C_2  and  C_3
REMARK    3  A    between atoms: C_6  and  N_7
REMARK    4  A    between atoms: C_17  and  C_18
REMARK    5  A    between atoms: C_21  and  O_22
REMARK    6  A    between atoms: O_22  and  C_23
REMARK    7  A    between atoms: C_23  and  C_24
REMARK    8  A    between atoms: C_24  and  C_25
REMARK    9  A    between atoms: C_24  and  C_26
REMARK                            x       y       z     vdW  Elec       q    Type
REMARK                         _______ _______ _______ _____ _____    ______ ____
ROOT
ATOM      1  N   UNL     1       2.745   6.303  18.866  0.00  0.00    +0.000 N 
ATOM      2  C   UNL     1       2.027   5.190  18.395  0.00  0.00    +0.000 C 
ATOM      3  O   UNL     1       0.947   5.223  17.813  0.00  0.00    +0.000 OA
ATOM      4  C   UNL     1       2.666   3.863  18.586  0.00  0.00    +0.000 A 
ATOM      5  C   UNL     1       2.176   2.725  17.936  0.00  0.00    +0.000 A 
ATOM      6  C   UNL     1       2.780   1.491  18.164  0.00  0.00    +0.000 A 
ATOM      7  C   UNL     1       3.844   1.394  19.059  0.00  0.00    +0.000 A 
ATOM      8  C   UNL     1       4.325   2.533  19.713  0.00  0.00    +0.000 A 
ATOM      9  C   UNL     1       3.769   3.783  19.443  0.00  0.00    +0.000 A 
ATOM     10  N   UNL     1       4.258   4.944  20.069  0.00  0.00    +0.000 N 
ATOM     11  C   UNL     1       4.161   6.124  19.201  0.00  0.00    +0.000 C 
ATOM     12  H   UNL     1       5.177   4.821  20.473  0.00  0.00    +0.000 HD
ENDROOT
BRANCH   1  16
ATOM     13  C   UNL     1       1.118  10.250  19.197  0.00  0.00    +0.000 A 
ATOM     14  C   UNL     1       1.040   9.352  20.262  0.00  0.00    +0.000 A 
ATOM     15  C   UNL     1       1.543   8.052  20.134  0.00  0.00    +0.000 A 
ATOM     16  C   UNL     1       2.145   7.609  18.946  0.00  0.00    +0.000 A 
ATOM     17  C   UNL     1       2.186   8.512  17.872  0.00  0.00    +0.000 A 
ATOM     18  C   UNL     1       1.682   9.813  17.996  0.00  0.00    +0.000 A 
BRANCH  13  20
ATOM     19  C   UNL     1       1.569  12.627  18.581  0.00  0.00    +0.000 C 
ATOM     20  C   UNL     1       0.669  11.677  19.361  0.00  0.00    +0.000 C 
ENDBRANCH  13  20
ENDBRANCH   1  16
BRANCH  11  21
ATOM     21  C   UNL     1       5.111   6.008  17.994  0.00  0.00    +0.000 A 
ATOM     22  C   UNL     1       4.679   6.313  16.697  0.00  0.00    +0.000 A 
ATOM     23  C   UNL     1       5.497   6.095  15.587  0.00  0.00    +0.000 A 
ATOM     24  C   UNL     1       6.784   5.580  15.730  0.00  0.00    +0.000 A 
ATOM     25  C   UNL     1       7.260   5.335  17.020  0.00  0.00    +0.000 A 
ATOM     26  C   UNL     1       6.436   5.550  18.141  0.00  0.00    +0.000 A 
BRANCH  24  27
ATOM     27  O   UNL     1       7.629   5.286  14.684  0.00  0.00    +0.000 OA
BRANCH  27  28
ATOM     28  C   UNL     1       7.274   4.107  13.949  0.00  0.00    +0.000 C 
BRANCH  28  29
ATOM     29  C   UNL     1       6.540   4.423  12.639  0.00  0.00    +0.000 C 
ATOM     30  C   UNL     1       7.507   4.855  11.537  0.00  0.00    +0.000 C 
ATOM     31  C   UNL     1       5.758   3.182  12.195  0.00  0.00    +0.000 C 
ENDBRANCH  28  29
ENDBRANCH  27  28
ENDBRANCH  24  27
ENDBRANCH  11  21
TORSDOF 6
ENDMDL
MODEL 6
REMARK VINA RESULT:      -7.3      7.349     10.221
REMARK  Name = 
REMARK  9 active torsions:
REMARK  status: ('A' for Active; 'I' for Inactive)
REMARK    1  A    between atoms: C_1  and  C_2
REMARK    2  A    between atoms: C_2  and  C_3
REMARK    3  A    between atoms: C_6  and  N_7
REMARK    4  A    between atoms: C_17  and  C_18
REMARK    5  A    between atoms: C_21  and  O_22
REMARK    6  A    between atoms: O_22  and  C_23
REMARK    7  A    between atoms: C_23  and  C_24
REMARK    8  A    between atoms: C_24  and  C_25
REMARK    9  A    between atoms: C_24  and  C_26
REMARK                            x       y       z     vdW  Elec       q    Type
REMARK                         _______ _______ _______ _____ _____    ______ ____
ROOT
ATOM      1  N   UNL     1       0.478  12.817  19.741  0.00  0.00    +0.000 N 
ATOM      2  C   UNL     1       0.264  12.537  21.103  0.00  0.00    +0.000 C 
ATOM      3  O   UNL     1       0.089  13.367  21.989  0.00  0.00    +0.000 OA
ATOM      4  C   UNL     1       0.206  11.102  21.481  0.00  0.00    +0.000 A 
ATOM      5  C   UNL     1      -0.254  10.706  22.741  0.00  0.00    +0.000 A 
ATOM      6  C   UNL     1      -0.266   9.354  23.073  0.00  0.00    +0.000 A 
ATOM      7  C   UNL     1       0.210   8.411  22.163  0.00  0.00    +0.000 A 
ATOM      8  C   UNL     1       0.677   8.813  20.907  0.00  0.00    +0.000 A 
ATOM      9  C   UNL     1       0.632  10.158  20.541  0.00  0.00    +0.000 A 
ATOM     10  N   UNL     1       1.070  10.578  19.272  0.00  0.00    +0.000 N 
ATOM     11  C   UNL     1       0.306  11.728  18.774  0.00  0.00    +0.000 C 
ATOM     12  H   UNL     1       1.133   9.822  18.602  0.00  0.00    +0.000 HD
ENDROOT
BRANCH   1  16
ATOM     13  C   UNL     1       1.379  16.706  18.195  0.00  0.00    +0.000 A 
ATOM     14  C   UNL     1       2.392  15.774  18.420  0.00  0.00    +0.000 A 
ATOM     15  C   UNL     1       2.094  14.517  18.960  0.00  0.00    +0.000 A 
ATOM     16  C   UNL     1       0.778  14.148  19.282  0.00  0.00    +0.000 A 
ATOM     17  C   UNL     1      -0.226  15.108  19.081  0.00  0.00    +0.000 A 
ATOM     18  C   UNL     1       0.069  16.367  18.544  0.00  0.00    +0.000 A 
BRANCH  13  20
ATOM     19  C   UNL     1       0.528  18.453  16.627  0.00  0.00    +0.000 C 
ATOM     20  C   UNL     1       1.679  18.021  17.526  0.00  0.00    +0.000 C 
ENDBRANCH  13  20
ENDBRANCH   1  16
BRANCH  11  21
ATOM     21  C   UNL     1      -1.156  11.340  18.477  0.00  0.00    +0.000 A 
ATOM     22  C   UNL     1      -1.465  10.269  17.630  0.00  0.00    +0.000 A 
ATOM     23  C   UNL     1      -2.782   9.989  17.261  0.00  0.00    +0.000 A 
ATOM     24  C   UNL     1      -3.843  10.758  17.739  0.00  0.00    +0.000 A 
ATOM     25  C   UNL     1      -3.563  11.786  18.640  0.00  0.00    +0.000 A 
ATOM     26  C   UNL     1      -2.235  12.074  19.010  0.00  0.00    +0.000 A 
BRANCH  24  27
ATOM     27  O   UNL     1      -5.160  10.579  17.380  0.00  0.00    +0.000 OA
BRANCH  27  28
ATOM     28  C   UNL     1      -6.027  11.660  17.748  0.00  0.00    +0.000 C 
BRANCH  28  29
ATOM     29  C   UNL     1      -7.171  11.217  18.667  0.00  0.00    +0.000 C 
ATOM     30  C   UNL     1      -6.905   9.843  19.283  0.00  0.00    +0.000 C 
ATOM     31  C   UNL     1      -7.355  12.262  19.773  0.00  0.00    +0.000 C 
ENDBRANCH  28  29
ENDBRANCH  27  28
ENDBRANCH  24  27
ENDBRANCH  11  21
TORSDOF 6
ENDMDL
MODEL 7
REMARK VINA RESULT:      -7.3      0.509      1.181
REMARK  Name = 
REMARK  9 active torsions:
REMARK  status: ('A' for Active; 'I' for Inactive)
REMARK    1  A    between atoms: C_1  and  C_2
REMARK    2  A    between atoms: C_2  and  C_3
REMARK    3  A    between atoms: C_6  and  N_7
REMARK    4  A    between atoms: C_17  and  C_18
REMARK    5  A    between atoms: C_21  and  O_22
REMARK    6  A    between atoms: O_22  and  C_23
REMARK    7  A    between atoms: C_23  and  C_24
REMARK    8  A    between atoms: C_24  and  C_25
REMARK    9  A    between atoms: C_24  and  C_26
REMARK                            x       y       z     vdW  Elec       q    Type
REMARK                         _______ _______ _______ _____ _____    ______ ____
ROOT
ATOM      1  N   UNL     1       2.991   6.077  18.858  0.00  0.00    +0.000 N 
ATOM      2  C   UNL     1       2.186   4.938  18.682  0.00  0.00    +0.000 C 
ATOM      3  O   UNL     1       1.000   4.935  18.368  0.00  0.00    +0.000 OA
ATOM      4  C   UNL     1       2.857   3.623  18.853  0.00  0.00    +0.000 A 
ATOM      5  C   UNL     1       2.232   2.437  18.454  0.00  0.00    +0.000 A 
ATOM      6  C   UNL     1       2.877   1.220  18.658  0.00  0.00    +0.000 A 
ATOM      7  C   UNL     1       4.121   1.190  19.286  0.00  0.00    +0.000 A 
ATOM      8  C   UNL     1       4.737   2.379  19.692  0.00  0.00    +0.000 A 
ATOM      9  C   UNL     1       4.129   3.607  19.433  0.00  0.00    +0.000 A 
ATOM     10  N   UNL     1       4.747   4.814  19.808  0.00  0.00    +0.000 N 
ATOM     11  C   UNL     1       4.446   5.904  18.872  0.00  0.00    +0.000 C 
ATOM     12  H   UNL     1       5.735   4.713  19.997  0.00  0.00    +0.000 HD
ENDROOT
BRANCH   1  16
ATOM     13  C   UNL     1       1.140   9.935  19.026  0.00  0.00    +0.000 A 
ATOM     14  C   UNL     1       1.771   9.494  17.862  0.00  0.00    +0.000 A 
ATOM     15  C   UNL     1       2.405   8.246  17.826  0.00  0.00    +0.000 A 
ATOM     16  C   UNL     1       2.422   7.397  18.944  0.00  0.00    +0.000 A 
ATOM     17  C   UNL     1       1.812   7.868  20.117  0.00  0.00    +0.000 A 
ATOM     18  C   UNL     1       1.179   9.117  20.158  0.00  0.00    +0.000 A 
BRANCH  13  20
ATOM     19  C   UNL     1      -0.844  11.136  19.952  0.00  0.00    +0.000 C 
ATOM     20  C   UNL     1       0.374  11.230  19.041  0.00  0.00    +0.000 C 
ENDBRANCH  13  20
ENDBRANCH   1  16
BRANCH  11  21
ATOM     21  C   UNL     1       5.089   5.649  17.494  0.00  0.00    +0.000 A 
ATOM     22  C   UNL     1       6.106   4.701  17.332  0.00  0.00    +0.000 A 
ATOM     23  C   UNL     1       6.775   4.552  16.115  0.00  0.00    +0.000 A 
ATOM     24  C   UNL     1       6.440   5.332  15.009  0.00  0.00    +0.000 A 
ATOM     25  C   UNL     1       5.381   6.233  15.130  0.00  0.00    +0.000 A 
ATOM     26  C   UNL     1       4.708   6.390  16.356  0.00  0.00    +0.000 A 
BRANCH  24  27
ATOM     27  O   UNL     1       7.087   5.283  13.794  0.00  0.00    +0.000 OA
BRANCH  27  28
ATOM     28  C   UNL     1       7.339   3.957  13.311  0.00  0.00    +0.000 C 
BRANCH  28  29
ATOM     29  C   UNL     1       6.618   3.660  11.990  0.00  0.00    +0.000 C 
ATOM     30  C   UNL     1       7.196   2.430  11.291  0.00  0.00    +0.000 C 
ATOM     31  C   UNL     1       5.126   3.449  12.275  0.00  0.00    +0.000 C 
ENDBRANCH  28  29
ENDBRANCH  27  28
ENDBRANCH  24  27
ENDBRANCH  11  21
TORSDOF 6
ENDMDL
MODEL 8
REMARK VINA RESULT:      -7.2      2.101      7.317
REMARK  Name = 
REMARK  9 active torsions:
REMARK  status: ('A' for Active; 'I' for Inactive)
REMARK    1  A    between atoms: C_1  and  C_2
REMARK    2  A    between atoms: C_2  and  C_3
REMARK    3  A    between atoms: C_6  and  N_7
REMARK    4  A    between atoms: C_17  and  C_18
REMARK    5  A    between atoms: C_21  and  O_22
REMARK    6  A    between atoms: O_22  and  C_23
REMARK    7  A    between atoms: C_23  and  C_24
REMARK    8  A    between atoms: C_24  and  C_25
REMARK    9  A    between atoms: C_24  and  C_26
REMARK                            x       y       z     vdW  Elec       q    Type
REMARK                         _______ _______ _______ _____ _____    ______ ____
ROOT
ATOM      1  N   UNL     1       3.883   4.514  17.640  0.00  0.00    +0.000 N 
ATOM      2  C   UNL     1       4.251   3.851  18.824  0.00  0.00    +0.000 C 
ATOM      3  O   UNL     1       5.396   3.588  19.176  0.00  0.00    +0.000 OA
ATOM      4  C   UNL     1       3.145   3.478  19.743  0.00  0.00    +0.000 A 
ATOM      5  C   UNL     1       3.406   3.054  21.050  0.00  0.00    +0.000 A 
ATOM      6  C   UNL     1       2.346   2.683  21.875  0.00  0.00    +0.000 A 
ATOM      7  C   UNL     1       1.043   2.704  21.382  0.00  0.00    +0.000 A 
ATOM      8  C   UNL     1       0.789   3.120  20.071  0.00  0.00    +0.000 A 
ATOM      9  C   UNL     1       1.836   3.556  19.259  0.00  0.00    +0.000 A 
ATOM     10  N   UNL     1       1.596   4.005  17.948  0.00  0.00    +0.000 N 
ATOM     11  C   UNL     1       2.528   5.066  17.546  0.00  0.00    +0.000 C 
ATOM     12  H   UNL     1       0.627   4.241  17.779  0.00  0.00    +0.000 HD
ENDROOT
BRANCH   1  16
ATOM     13  C   UNL     1       6.816   5.077  14.573  0.00  0.00    +0.000 A 
ATOM     14  C   UNL     1       6.656   6.018  15.590  0.00  0.00    +0.000 A 
ATOM     15  C   UNL     1       5.670   5.845  16.570  0.00  0.00    +0.000 A 
ATOM     16  C   UNL     1       4.822   4.726  16.570  0.00  0.00    +0.000 A 
ATOM     17  C   UNL     1       4.973   3.806  15.521  0.00  0.00    +0.000 A 
ATOM     18  C   UNL     1       5.956   3.977  14.538  0.00  0.00    +0.000 A 
BRANCH  13  20
ATOM     19  C   UNL     1       7.491   4.756  12.190  0.00  0.00    +0.000 C 
ATOM     20  C   UNL     1       7.936   5.208  13.575  0.00  0.00    +0.000 C 
ENDBRANCH  13  20
ENDBRANCH   1  16
BRANCH  11  21
ATOM     21  C   UNL     1       2.287   6.355  18.356  0.00  0.00    +0.000 A 
ATOM     22  C   UNL     1       2.081   6.315  19.741  0.00  0.00    +0.000 A 
ATOM     23  C   UNL     1       1.743   7.462  20.460  0.00  0.00    +0.000 A 
ATOM     24  C   UNL     1       1.616   8.698  19.828  0.00  0.00    +0.000 A 
ATOM     25  C   UNL     1       1.886   8.773  18.460  0.00  0.00    +0.000 A 
ATOM     26  C   UNL     1       2.222   7.617  17.731  0.00  0.00    +0.000 A 
BRANCH  24  27
ATOM     27  O   UNL     1       1.234   9.862  20.456  0.00  0.00    +0.000 OA
BRANCH  27  28
ATOM     28  C   UNL     1       0.742  10.879  19.574  0.00  0.00    +0.000 C 
BRANCH  28  29
ATOM     29  C   UNL     1       1.501  12.205  19.716  0.00  0.00    +0.000 C 
ATOM     30  C   UNL     1       2.082  12.672  18.381  0.00  0.00    +0.000 C 
ATOM     31  C   UNL     1       0.546  13.266  20.273  0.00  0.00    +0.000 C 
ENDBRANCH  28  29
ENDBRANCH  27  28
ENDBRANCH  24  27
ENDBRANCH  11  21
TORSDOF 6
ENDMDL
MODEL 9
REMARK VINA RESULT:      -7.2      6.984     10.162
REMARK  Name = 
REMARK  9 active torsions:
REMARK  status: ('A' for Active; 'I' for Inactive)
REMARK    1  A    between atoms: C_1  and  C_2
REMARK    2  A    between atoms: C_2  and  C_3
REMARK    3  A    between atoms: C_6  and  N_7
REMARK    4  A    between atoms: C_17  and  C_18
REMARK    5  A    between atoms: C_21  and  O_22
REMARK    6  A    between atoms: O_22  and  C_23
REMARK    7  A    between atoms: C_23  and  C_24
REMARK    8  A    between atoms: C_24  and  C_25
REMARK    9  A    between atoms: C_24  and  C_26
REMARK                            x       y       z     vdW  Elec       q    Type
REMARK                         _______ _______ _______ _____ _____    ______ ____
ROOT
ATOM      1  N   UNL     1       0.515  12.689  19.426  0.00  0.00    +0.000 N 
ATOM      2  C   UNL     1       0.496  12.360  20.793  0.00  0.00    +0.000 C 
ATOM      3  O   UNL     1       0.431  13.156  21.724  0.00  0.00    +0.000 OA
ATOM      4  C   UNL     1       0.512  10.912  21.124  0.00  0.00    +0.000 A 
ATOM      5  C   UNL     1       0.237  10.465  22.421  0.00  0.00    +0.000 A 
ATOM      6  C   UNL     1       0.292   9.103  22.703  0.00  0.00    +0.000 A 
ATOM      7  C   UNL     1       0.652   8.201  21.702  0.00  0.00    +0.000 A 
ATOM      8  C   UNL     1       0.935   8.654  20.410  0.00  0.00    +0.000 A 
ATOM      9  C   UNL     1       0.819  10.009  20.101  0.00  0.00    +0.000 A 
ATOM     10  N   UNL     1       1.072  10.480  18.800  0.00  0.00    +0.000 N 
ATOM     11  C   UNL     1       0.228  11.630  18.454  0.00  0.00    +0.000 C 
ATOM     12  H   UNL     1       1.053   9.748  18.102  0.00  0.00    +0.000 HD
ENDROOT
BRANCH   1  16
ATOM     13  C   UNL     1       1.143  16.765  18.277  0.00  0.00    +0.000 A 
ATOM     14  C   UNL     1      -0.140  16.288  18.544  0.00  0.00    +0.000 A 
ATOM     15  C   UNL     1      -0.341  14.944  18.884  0.00  0.00    +0.000 A 
ATOM     16  C   UNL     1       0.728  14.041  18.978  0.00  0.00    +0.000 A 
ATOM     17  C   UNL     1       2.009  14.528  18.674  0.00  0.00    +0.000 A 
ATOM     18  C   UNL     1       2.214  15.870  18.331  0.00  0.00    +0.000 A 
BRANCH  13  20
ATOM     19  C   UNL     1       0.817  18.629  16.648  0.00  0.00    +0.000 C 
ATOM     20  C   UNL     1       1.377  18.228  18.007  0.00  0.00    +0.000 C 
ENDBRANCH  13  20
ENDBRANCH   1  16
BRANCH  11  21
ATOM     21  C   UNL     1      -1.254  11.223  18.346  0.00  0.00    +0.000 A 
ATOM     22  C   UNL     1      -1.647  10.100  17.608  0.00  0.00    +0.000 A 
ATOM     23  C   UNL     1      -2.994   9.795  17.406  0.00  0.00    +0.000 A 
ATOM     24  C   UNL     1      -4.002  10.591  17.950  0.00  0.00    +0.000 A 
ATOM     25  C   UNL     1      -3.631  11.675  18.748  0.00  0.00    +0.000 A 
ATOM     26  C   UNL     1      -2.274  11.988  18.949  0.00  0.00    +0.000 A 
BRANCH  24  27
ATOM     27  O   UNL     1      -5.349  10.389  17.752  0.00  0.00    +0.000 OA
BRANCH  27  28
ATOM     28  C   UNL     1      -6.189  11.412  18.302  0.00  0.00    +0.000 C 
BRANCH  28  29
ATOM     29  C   UNL     1      -7.178  10.871  19.344  0.00  0.00    +0.000 C 
ATOM     30  C   UNL     1      -7.060   9.355  19.504  0.00  0.00    +0.000 C 
ATOM     31  C   UNL     1      -6.915  11.563  20.686  0.00  0.00    +0.000 C 
ENDBRANCH  28  29
ENDBRANCH  27  28
ENDBRANCH  24  27
ENDBRANCH  11  21
TORSDOF 6
ENDMDL
