MODEL 1
REMARK VINA RESULT:      -6.7      0.000      0.000
REMARK  Name = 
REMARK  10 active torsions:
REMARK  status: ('A' for Active; 'I' for Inactive)
REMARK    1  A    between atoms: C_1  and  C_2
REMARK    2  A    between atoms: C_2  and  N_3
REMARK    3  A    between atoms: N_3  and  C_4
REMARK    4  A    between atoms: N_3  and  C_27
REMARK    5  A    between atoms: C_4  and  C_5
REMARK    6  A    between atoms: C_6  and  C_7
REMARK    7  A    between atoms: N_10  and  C_11
REMARK    8  A    between atoms: C_12  and  C_13
REMARK    9  A    between atoms: C_15  and  C_16
REMARK   10  A    between atoms: C_27  and  C_28
REMARK                            x       y       z     vdW  Elec       q    Type
REMARK                         _______ _______ _______ _____ _____    ______ ____
ROOT
ATOM      1  C   UNL     1       1.902   8.108  19.511  0.00  0.00    +0.000 A 
ATOM      2  C   UNL     1       2.291   8.603  18.275  0.00  0.00    +0.000 A 
ATOM      3  C   UNL     1       3.095   7.899  17.246  0.00  0.00    +0.000 C 
ATOM      4  N   UNL     1       1.966   9.954  18.157  0.00  0.00    +0.000 NA
ATOM      5  C   UNL     1       1.304  10.244  19.247  0.00  0.00    +0.000 A 
ATOM      6  N   UNL     1       0.713  11.322  19.894  0.00  0.00    +0.000 N 
ATOM      7  C   UNL     1       0.133  10.745  21.111  0.00  0.00    +0.000 A 
ATOM      8  N   UNL     1      -0.528  11.342  22.112  0.00  0.00    +0.000 NA
ATOM      9  C   UNL     1      -0.853  10.555  23.168  0.00  0.00    +0.000 A 
ATOM     10  C   UNL     1      -0.686   9.172  23.210  0.00  0.00    +0.000 A 
ATOM     11  C   UNL     1      -0.082   8.537  22.131  0.00  0.00    +0.000 A 
ATOM     12  C   UNL     1       0.369   9.370  21.138  0.00  0.00    +0.000 A 
ATOM     13  N   UNL     1       1.128   9.118  20.015  0.00  0.00    +0.000 N 
ENDROOT
BRANCH   6  14
ATOM     14  C   UNL     1       0.621  12.680  19.463  0.00  0.00    +0.000 A 
ATOM     15  C   UNL     1      -0.378  13.141  18.552  0.00  0.00    +0.000 A 
ATOM     16  C   UNL     1      -1.394  12.272  17.849  0.00  0.00    +0.000 C 
ATOM     17  C   UNL     1      -0.490  14.516  18.230  0.00  0.00    +0.000 A 
ATOM     18  C   UNL     1       0.303  15.489  18.826  0.00  0.00    +0.000 A 
ATOM     19  C   UNL     1       0.129  16.945  18.526  0.00  0.00    +0.000 C 
ATOM     20  C   UNL     1       1.291  15.064  19.709  0.00  0.00    +0.000 A 
ATOM     21  C   UNL     1       1.484  13.698  19.976  0.00  0.00    +0.000 A 
ATOM     22 CL   UNL     1       2.983  13.368  20.799  0.00  0.00    +0.000 Cl
ENDBRANCH   6  14
BRANCH   1  23
ATOM     23  C   UNL     1       2.365   6.918  20.268  0.00  0.00    +0.000 C 
BRANCH  23  24
ATOM     24  N   UNL     1       1.966   5.657  19.585  0.00  0.00    +0.000 NA
BRANCH  24  26
ATOM     25  C   UNL     1       1.937   3.761  21.261  0.00  0.00    +0.000 C 
ATOM     26  C   UNL     1       1.153   4.817  20.489  0.00  0.00    +0.000 C 
ENDBRANCH  24  26
BRANCH  24  27
ATOM     27  C   UNL     1       3.163   4.910  19.130  0.00  0.00    +0.000 C 
BRANCH  27  28
ATOM     28  C   UNL     1       3.020   4.238  17.792  0.00  0.00    +0.000 C 
ATOM     29  C   UNL     1       4.184   3.932  16.883  0.00  0.00    +0.000 C 
ATOM     30  C   UNL     1       3.518   2.816  17.638  0.00  0.00    +0.000 C 
ENDBRANCH  27  28
ENDBRANCH  24  27
ENDBRANCH  23  24
ENDBRANCH   1  23
TORSDOF 6
ENDMDL
MODEL 2
REMARK VINA RESULT:      -6.6      3.000      7.770
REMARK  Name = 
REMARK  10 active torsions:
REMARK  status: ('A' for Active; 'I' for Inactive)
REMARK    1  A    between atoms: C_1  and  C_2
REMARK    2  A    between atoms: C_2  and  N_3
REMARK    3  A    between atoms: N_3  and  C_4
REMARK    4  A    between atoms: N_3  and  C_27
REMARK    5  A    between atoms: C_4  and  C_5
REMARK    6  A    between atoms: C_6  and  C_7
REMARK    7  A    between atoms: N_10  and  C_11
REMARK    8  A    between atoms: C_12  and  C_13
REMARK    9  A    between atoms: C_15  and  C_16
REMARK   10  A    between atoms: C_27  and  C_28
REMARK                            x       y       z     vdW  Elec       q    Type
REMARK                         _______ _______ _______ _____ _____    ______ ____
ROOT
ATOM      1  C   UNL     1      -3.379  12.215  19.132  0.00  0.00    +0.000 A 
ATOM      2  C   UNL     1      -3.523  11.044  18.403  0.00  0.00    +0.000 A 
ATOM      3  C   UNL     1      -4.735  10.588  17.679  0.00  0.00    +0.000 C 
ATOM      4  N   UNL     1      -2.407  10.222  18.558  0.00  0.00    +0.000 NA
ATOM      5  C   UNL     1      -1.564  10.919  19.275  0.00  0.00    +0.000 A 
ATOM      6  N   UNL     1      -0.319  10.811  19.880  0.00  0.00    +0.000 N 
ATOM      7  C   UNL     1      -0.090  12.128  20.485  0.00  0.00    +0.000 A 
ATOM      8  N   UNL     1       0.941  12.568  21.217  0.00  0.00    +0.000 NA
ATOM      9  C   UNL     1       0.818  13.816  21.737  0.00  0.00    +0.000 A 
ATOM     10  C   UNL     1      -0.215  14.703  21.437  0.00  0.00    +0.000 A 
ATOM     11  C   UNL     1      -1.242  14.278  20.603  0.00  0.00    +0.000 A 
ATOM     12  C   UNL     1      -1.172  12.966  20.206  0.00  0.00    +0.000 A 
ATOM     13  N   UNL     1      -2.065  12.176  19.516  0.00  0.00    +0.000 N 
ENDROOT
BRANCH   6  14
ATOM     14  C   UNL     1       0.584   9.705  19.875  0.00  0.00    +0.000 A 
ATOM     15  C   UNL     1       0.585   8.697  20.888  0.00  0.00    +0.000 A 
ATOM     16  C   UNL     1      -0.273   8.700  22.131  0.00  0.00    +0.000 C 
ATOM     17  C   UNL     1       1.434   7.568  20.788  0.00  0.00    +0.000 A 
ATOM     18  C   UNL     1       2.247   7.340  19.685  0.00  0.00    +0.000 A 
ATOM     19  C   UNL     1       3.089   6.108  19.563  0.00  0.00    +0.000 C 
ATOM     20  C   UNL     1       2.272   8.312  18.691  0.00  0.00    +0.000 A 
ATOM     21  C   UNL     1       1.510   9.487  18.808  0.00  0.00    +0.000 A 
ATOM     22 CL   UNL     1       1.965  10.715  17.659  0.00  0.00    +0.000 Cl
ENDBRANCH   6  14
BRANCH   1  23
ATOM     23  C   UNL     1      -4.391  13.180  19.627  0.00  0.00    +0.000 C 
BRANCH  23  24
ATOM     24  N   UNL     1      -4.968  12.738  20.926  0.00  0.00    +0.000 NA
BRANCH  24  26
ATOM     25  C   UNL     1      -7.011  11.327  20.440  0.00  0.00    +0.000 C 
ATOM     26  C   UNL     1      -6.441  12.683  20.844  0.00  0.00    +0.000 C 
ENDBRANCH  24  26
BRANCH  24  27
ATOM     27  C   UNL     1      -4.549  13.649  22.018  0.00  0.00    +0.000 C 
BRANCH  27  28
ATOM     28  C   UNL     1      -4.027  12.963  23.251  0.00  0.00    +0.000 C 
ATOM     29  C   UNL     1      -2.785  12.107  23.268  0.00  0.00    +0.000 C 
ATOM     30  C   UNL     1      -2.749  13.478  23.881  0.00  0.00    +0.000 C 
ENDBRANCH  27  28
ENDBRANCH  24  27
ENDBRANCH  23  24
ENDBRANCH   1  23
TORSDOF 6
ENDMDL
MODEL 3
REMARK VINA RESULT:      -6.3      1.180      1.774
REMARK  Name = 
REMARK  10 active torsions:
REMARK  status: ('A' for Active; 'I' for Inactive)
REMARK    1  A    between atoms: C_1  and  C_2
REMARK    2  A    between atoms: C_2  and  N_3
REMARK    3  A    between atoms: N_3  and  C_4
REMARK    4  A    between atoms: N_3  and  C_27
REMARK    5  A    between atoms: C_4  and  C_5
REMARK    6  A    between atoms: C_6  and  C_7
REMARK    7  A    between atoms: N_10  and  C_11
REMARK    8  A    between atoms: C_12  and  C_13
REMARK    9  A    between atoms: C_15  and  C_16
REMARK   10  A    between atoms: C_27  and  C_28
REMARK                            x       y       z     vdW  Elec       q    Type
REMARK                         _______ _______ _______ _____ _____    ______ ____
ROOT
ATOM      1  C   UNL     1       2.010   8.145  19.240  0.00  0.00    +0.000 A 
ATOM      2  C   UNL     1       2.380   8.735  18.041  0.00  0.00    +0.000 A 
ATOM      3  C   UNL     1       3.155   8.110  16.941  0.00  0.00    +0.000 C 
ATOM      4  N   UNL     1       2.070  10.095  18.042  0.00  0.00    +0.000 NA
ATOM      5  C   UNL     1       1.434  10.302  19.165  0.00  0.00    +0.000 A 
ATOM      6  N   UNL     1       0.870  11.330  19.910  0.00  0.00    +0.000 N 
ATOM      7  C   UNL     1       0.306  10.661  21.087  0.00  0.00    +0.000 A 
ATOM      8  N   UNL     1      -0.327  11.181  22.147  0.00  0.00    +0.000 NA
ATOM      9  C   UNL     1      -0.641  10.313  23.143  0.00  0.00    +0.000 A 
ATOM     10  C   UNL     1      -0.491   8.930  23.067  0.00  0.00    +0.000 A 
ATOM     11  C   UNL     1       0.084   8.379  21.928  0.00  0.00    +0.000 A 
ATOM     12  C   UNL     1       0.526   9.286  20.996  0.00  0.00    +0.000 A 
ATOM     13  N   UNL     1       1.259   9.119  19.842  0.00  0.00    +0.000 N 
ENDROOT
BRANCH   6  14
ATOM     14  C   UNL     1       0.786  12.720  19.594  0.00  0.00    +0.000 A 
ATOM     15  C   UNL     1       1.725  13.684  20.073  0.00  0.00    +0.000 A 
ATOM     16  C   UNL     1       2.855  13.407  21.035  0.00  0.00    +0.000 C 
ATOM     17  C   UNL     1       1.657  15.035  19.654  0.00  0.00    +0.000 A 
ATOM     18  C   UNL     1       0.735  15.480  18.714  0.00  0.00    +0.000 A 
ATOM     19  C   UNL     1       0.717  16.896  18.230  0.00  0.00    +0.000 C 
ATOM     20  C   UNL     1      -0.197  14.562  18.241  0.00  0.00    +0.000 A 
ATOM     21  C   UNL     1      -0.211  13.237  18.710  0.00  0.00    +0.000 A 
ATOM     22 CL   UNL     1      -1.661  12.375  18.280  0.00  0.00    +0.000 Cl
ENDBRANCH   6  14
BRANCH   1  23
ATOM     23  C   UNL     1       2.472   6.892  19.887  0.00  0.00    +0.000 C 
BRANCH  23  24
ATOM     24  N   UNL     1       1.605   5.741  19.513  0.00  0.00    +0.000 NA
BRANCH  24  26
ATOM     25  C   UNL     1       0.969   3.427  20.316  0.00  0.00    +0.000 C 
ATOM     26  C   UNL     1       1.415   4.843  20.670  0.00  0.00    +0.000 C 
ENDBRANCH  24  26
BRANCH  24  27
ATOM     27  C   UNL     1       2.193   4.994  18.376  0.00  0.00    +0.000 C 
BRANCH  27  28
ATOM     28  C   UNL     1       3.695   4.918  18.376  0.00  0.00    +0.000 C 
ATOM     29  C   UNL     1       4.468   3.675  18.740  0.00  0.00    +0.000 C 
ATOM     30  C   UNL     1       4.380   4.099  17.301  0.00  0.00    +0.000 C 
ENDBRANCH  27  28
ENDBRANCH  24  27
ENDBRANCH  23  24
ENDBRANCH   1  23
TORSDOF 6
ENDMDL
MODEL 4
REMARK VINA RESULT:      -6.3      3.746      5.896
REMARK  Name = 
REMARK  10 active torsions:
REMARK  status: ('A' for Active; 'I' for Inactive)
REMARK    1  A    between atoms: C_1  and  C_2
REMARK    2  A    between atoms: C_2  and  N_3
REMARK    3  A    between atoms: N_3  and  C_4
REMARK    4  A    between atoms: N_3  and  C_27
REMARK    5  A    between atoms: C_4  and  C_5
REMARK    6  A    between atoms: C_6  and  C_7
REMARK    7  A    between atoms: N_10  and  C_11
REMARK    8  A    between atoms: C_12  and  C_13
REMARK    9  A    between atoms: C_15  and  C_16
REMARK   10  A    between atoms: C_27  and  C_28
REMARK                            x       y       z     vdW  Elec       q    Type
REMARK                         _______ _______ _______ _____ _____    ______ ____
ROOT
ATOM      1  C   UNL     1      -0.060  12.474  19.438  0.00  0.00    +0.000 A 
ATOM      2  C   UNL     1       0.165  13.316  20.516  0.00  0.00    +0.000 A 
ATOM      3  C   UNL     1       1.480  13.752  21.047  0.00  0.00    +0.000 C 
ATOM      4  N   UNL     1      -1.027  13.601  21.181  0.00  0.00    +0.000 NA
ATOM      5  C   UNL     1      -1.963  13.034  20.465  0.00  0.00    +0.000 A 
ATOM      6  N   UNL     1      -3.334  12.811  20.467  0.00  0.00    +0.000 N 
ATOM      7  C   UNL     1      -3.589  12.087  19.218  0.00  0.00    +0.000 A 
ATOM      8  N   UNL     1      -4.736  11.598  18.729  0.00  0.00    +0.000 NA
ATOM      9  C   UNL     1      -4.639  10.870  17.587  0.00  0.00    +0.000 A 
ATOM     10  C   UNL     1      -3.478  10.734  16.828  0.00  0.00    +0.000 A 
ATOM     11  C   UNL     1      -2.304  11.319  17.288  0.00  0.00    +0.000 A 
ATOM     12  C   UNL     1      -2.393  11.926  18.516  0.00  0.00    +0.000 A 
ATOM     13  N   UNL     1      -1.426  12.468  19.334  0.00  0.00    +0.000 N 
ENDROOT
BRANCH   6  14
ATOM     14  C   UNL     1      -4.307  13.237  21.422  0.00  0.00    +0.000 A 
ATOM     15  C   UNL     1      -5.360  14.148  21.106  0.00  0.00    +0.000 A 
ATOM     16  C   UNL     1      -5.543  14.856  19.785  0.00  0.00    +0.000 C 
ATOM     17  C   UNL     1      -6.359  14.465  22.060  0.00  0.00    +0.000 A 
ATOM     18  C   UNL     1      -6.412  13.863  23.312  0.00  0.00    +0.000 A 
ATOM     19  C   UNL     1      -7.511  14.158  24.285  0.00  0.00    +0.000 C 
ATOM     20  C   UNL     1      -5.391  12.980  23.647  0.00  0.00    +0.000 A 
ATOM     21  C   UNL     1      -4.338  12.719  22.754  0.00  0.00    +0.000 A 
ATOM     22 CL   UNL     1      -2.998  11.893  23.500  0.00  0.00    +0.000 Cl
ENDBRANCH   6  14
BRANCH   1  23
ATOM     23  C   UNL     1       0.862  11.577  18.699  0.00  0.00    +0.000 C 
BRANCH  23  24
ATOM     24  N   UNL     1       0.543  10.146  18.956  0.00  0.00    +0.000 NA
BRANCH  24  26
ATOM     25  C   UNL     1      -0.196   9.261  21.209  0.00  0.00    +0.000 C 
ATOM     26  C   UNL     1       0.941   9.768  20.327  0.00  0.00    +0.000 C 
ENDBRANCH  24  26
BRANCH  24  27
ATOM     27  C   UNL     1       1.222   9.275  17.967  0.00  0.00    +0.000 C 
BRANCH  27  28
ATOM     28  C   UNL     1       2.259   8.350  18.543  0.00  0.00    +0.000 C 
ATOM     29  C   UNL     1       2.302   6.868  18.267  0.00  0.00    +0.000 C 
ATOM     30  C   UNL     1       3.310   7.772  17.617  0.00  0.00    +0.000 C 
ENDBRANCH  27  28
ENDBRANCH  24  27
ENDBRANCH  23  24
ENDBRANCH   1  23
TORSDOF 6
ENDMDL
MODEL 5
REMARK VINA RESULT:      -6.3      3.753      6.306
REMARK  Name = 
REMARK  10 active torsions:
REMARK  status: ('A' for Active; 'I' for Inactive)
REMARK    1  A    between atoms: C_1  and  C_2
REMARK    2  A    between atoms: C_2  and  N_3
REMARK    3  A    between atoms: N_3  and  C_4
REMARK    4  A    between atoms: N_3  and  C_27
REMARK    5  A    between atoms: C_4  and  C_5
REMARK    6  A    between atoms: C_6  and  C_7
REMARK    7  A    between atoms: N_10  and  C_11
REMARK    8  A    between atoms: C_12  and  C_13
REMARK    9  A    between atoms: C_15  and  C_16
REMARK   10  A    between atoms: C_27  and  C_28
REMARK                            x       y       z     vdW  Elec       q    Type
REMARK                         _______ _______ _______ _____ _____    ______ ____
ROOT
ATOM      1  C   UNL     1       0.291  11.166  21.561  0.00  0.00    +0.000 A 
ATOM      2  C   UNL     1      -0.454  10.611  22.591  0.00  0.00    +0.000 A 
ATOM      3  C   UNL     1      -0.246   9.288  23.230  0.00  0.00    +0.000 C 
ATOM      4  N   UNL     1      -1.574  11.394  22.871  0.00  0.00    +0.000 NA
ATOM      5  C   UNL     1      -1.455  12.449  22.107  0.00  0.00    +0.000 A 
ATOM      6  N   UNL     1      -2.133  13.610  21.761  0.00  0.00    +0.000 N 
ATOM      7  C   UNL     1      -1.240  14.288  20.816  0.00  0.00    +0.000 A 
ATOM      8  N   UNL     1      -1.412  15.436  20.147  0.00  0.00    +0.000 NA
ATOM      9  C   UNL     1      -0.445  15.756  19.250  0.00  0.00    +0.000 A 
ATOM     10  C   UNL     1       0.757  15.067  19.096  0.00  0.00    +0.000 A 
ATOM     11  C   UNL     1       0.976  13.925  19.857  0.00  0.00    +0.000 A 
ATOM     12  C   UNL     1      -0.074  13.538  20.651  0.00  0.00    +0.000 A 
ATOM     13  N   UNL     1      -0.271  12.406  21.412  0.00  0.00    +0.000 N 
ENDROOT
BRANCH   6  14
ATOM     14  C   UNL     1      -3.386  14.091  22.249  0.00  0.00    +0.000 A 
ATOM     15  C   UNL     1      -3.510  14.873  23.438  0.00  0.00    +0.000 A 
ATOM     16  C   UNL     1      -2.385  15.215  24.385  0.00  0.00    +0.000 C 
ATOM     17  C   UNL     1      -4.762  15.410  23.828  0.00  0.00    +0.000 A 
ATOM     18  C   UNL     1      -5.907  15.271  23.054  0.00  0.00    +0.000 A 
ATOM     19  C   UNL     1      -7.208  15.900  23.446  0.00  0.00    +0.000 C 
ATOM     20  C   UNL     1      -5.815  14.505  21.897  0.00  0.00    +0.000 A 
ATOM     21  C   UNL     1      -4.608  13.884  21.534  0.00  0.00    +0.000 A 
ATOM     22 CL   UNL     1      -4.802  12.691  20.281  0.00  0.00    +0.000 Cl
ENDBRANCH   6  14
BRANCH   1  23
ATOM     23  C   UNL     1       1.282  10.553  20.643  0.00  0.00    +0.000 C 
BRANCH  23  24
ATOM     24  N   UNL     1       0.625   9.626  19.682  0.00  0.00    +0.000 NA
BRANCH  24  26
ATOM     25  C   UNL     1       2.175   8.875  17.827  0.00  0.00    +0.000 C 
ATOM     26  C   UNL     1       1.586   8.608  19.210  0.00  0.00    +0.000 C 
ENDBRANCH  24  26
BRANCH  24  27
ATOM     27  C   UNL     1       0.067  10.376  18.532  0.00  0.00    +0.000 C 
BRANCH  27  28
ATOM     28  C   UNL     1      -1.436  10.406  18.464  0.00  0.00    +0.000 C 
ATOM     29  C   UNL     1      -2.215  11.430  17.676  0.00  0.00    +0.000 C 
ATOM     30  C   UNL     1      -2.110  10.022  17.162  0.00  0.00    +0.000 C 
ENDBRANCH  27  28
ENDBRANCH  24  27
ENDBRANCH  23  24
ENDBRANCH   1  23
TORSDOF 6
ENDMDL
MODEL 6
REMARK VINA RESULT:      -6.2      3.468      7.959
REMARK  Name = 
REMARK  10 active torsions:
REMARK  status: ('A' for Active; 'I' for Inactive)
REMARK    1  A    between atoms: C_1  and  C_2
REMARK    2  A    between atoms: C_2  and  N_3
REMARK    3  A    between atoms: N_3  and  C_4
REMARK    4  A    between atoms: N_3  and  C_27
REMARK    5  A    between atoms: C_4  and  C_5
REMARK    6  A    between atoms: C_6  and  C_7
REMARK    7  A    between atoms: N_10  and  C_11
REMARK    8  A    between atoms: C_12  and  C_13
REMARK    9  A    between atoms: C_15  and  C_16
REMARK   10  A    between atoms: C_27  and  C_28
REMARK                            x       y       z     vdW  Elec       q    Type
REMARK                         _______ _______ _______ _____ _____    ______ ____
ROOT
ATOM      1  C   UNL     1      -3.313  11.637  18.165  0.00  0.00    +0.000 A 
ATOM      2  C   UNL     1      -2.997  10.706  17.188  0.00  0.00    +0.000 A 
ATOM      3  C   UNL     1      -3.783  10.390  15.970  0.00  0.00    +0.000 C 
ATOM      4  N   UNL     1      -1.890   9.946  17.566  0.00  0.00    +0.000 NA
ATOM      5  C   UNL     1      -1.481  10.472  18.691  0.00  0.00    +0.000 A 
ATOM      6  N   UNL     1      -0.531  10.282  19.686  0.00  0.00    +0.000 N 
ATOM      7  C   UNL     1      -0.749  11.393  20.618  0.00  0.00    +0.000 A 
ATOM      8  N   UNL     1      -0.129  11.680  21.770  0.00  0.00    +0.000 NA
ATOM      9  C   UNL     1      -0.630  12.727  22.475  0.00  0.00    +0.000 A 
ATOM     10  C   UNL     1      -1.620  13.593  22.015  0.00  0.00    +0.000 A 
ATOM     11  C   UNL     1      -2.201  13.350  20.777  0.00  0.00    +0.000 A 
ATOM     12  C   UNL     1      -1.782  12.205  20.146  0.00  0.00    +0.000 A 
ATOM     13  N   UNL     1      -2.232  11.579  19.004  0.00  0.00    +0.000 N 
ENDROOT
BRANCH   6  14
ATOM     14  C   UNL     1       0.483   9.280  19.774  0.00  0.00    +0.000 A 
ATOM     15  C   UNL     1       0.517   8.296  20.808  0.00  0.00    +0.000 A 
ATOM     16  C   UNL     1      -0.427   8.227  21.986  0.00  0.00    +0.000 C 
ATOM     17  C   UNL     1       1.486   7.262  20.798  0.00  0.00    +0.000 A 
ATOM     18  C   UNL     1       2.399   7.106  19.762  0.00  0.00    +0.000 A 
ATOM     19  C   UNL     1       3.374   5.970  19.731  0.00  0.00    +0.000 C 
ATOM     20  C   UNL     1       2.393   8.058  18.748  0.00  0.00    +0.000 A 
ATOM     21  C   UNL     1       1.504   9.145  18.781  0.00  0.00    +0.000 A 
ATOM     22 CL   UNL     1       1.909  10.395  17.638  0.00  0.00    +0.000 Cl
ENDBRANCH   6  14
BRANCH   1  23
ATOM     23  C   UNL     1      -4.578  12.363  18.441  0.00  0.00    +0.000 C 
BRANCH  23  24
ATOM     24  N   UNL     1      -5.429  11.614  19.405  0.00  0.00    +0.000 NA
BRANCH  24  26
ATOM     25  C   UNL     1      -7.067   9.688  19.509  0.00  0.00    +0.000 C 
ATOM     26  C   UNL     1      -6.434  10.806  18.686  0.00  0.00    +0.000 C 
ENDBRANCH  24  26
BRANCH  24  27
ATOM     27  C   UNL     1      -6.098  12.547  20.343  0.00  0.00    +0.000 C 
BRANCH  27  28
ATOM     28  C   UNL     1      -5.743  13.997  20.155  0.00  0.00    +0.000 C 
ATOM     29  C   UNL     1      -6.755  15.115  20.184  0.00  0.00    +0.000 C 
ATOM     30  C   UNL     1      -5.827  14.925  21.350  0.00  0.00    +0.000 C 
ENDBRANCH  27  28
ENDBRANCH  24  27
ENDBRANCH  23  24
ENDBRANCH   1  23
TORSDOF 6
ENDMDL
MODEL 7
REMARK VINA RESULT:      -6.2      3.787      6.129
REMARK  Name = 
REMARK  10 active torsions:
REMARK  status: ('A' for Active; 'I' for Inactive)
REMARK    1  A    between atoms: C_1  and  C_2
REMARK    2  A    between atoms: C_2  and  N_3
REMARK    3  A    between atoms: N_3  and  C_4
REMARK    4  A    between atoms: N_3  and  C_27
REMARK    5  A    between atoms: C_4  and  C_5
REMARK    6  A    between atoms: C_6  and  C_7
REMARK    7  A    between atoms: N_10  and  C_11
REMARK    8  A    between atoms: C_12  and  C_13
REMARK    9  A    between atoms: C_15  and  C_16
REMARK   10  A    between atoms: C_27  and  C_28
REMARK                            x       y       z     vdW  Elec       q    Type
REMARK                         _______ _______ _______ _____ _____    ______ ____
ROOT
ATOM      1  C   UNL     1      -0.213  12.039  19.603  0.00  0.00    +0.000 A 
ATOM      2  C   UNL     1       0.483  12.917  20.420  0.00  0.00    +0.000 A 
ATOM      3  C   UNL     1       1.953  12.982  20.611  0.00  0.00    +0.000 C 
ATOM      4  N   UNL     1      -0.394  13.667  21.203  0.00  0.00    +0.000 NA
ATOM      5  C   UNL     1      -1.590  13.330  20.798  0.00  0.00    +0.000 A 
ATOM      6  N   UNL     1      -2.930  13.562  21.084  0.00  0.00    +0.000 N 
ATOM      7  C   UNL     1      -3.659  12.777  20.082  0.00  0.00    +0.000 A 
ATOM      8  N   UNL     1      -4.978  12.615  19.915  0.00  0.00    +0.000 NA
ATOM      9  C   UNL     1      -5.356  11.730  18.957  0.00  0.00    +0.000 A 
ATOM     10  C   UNL     1      -4.488  11.115  18.057  0.00  0.00    +0.000 A 
ATOM     11  C   UNL     1      -3.124  11.355  18.171  0.00  0.00    +0.000 A 
ATOM     12  C   UNL     1      -2.752  12.137  19.237  0.00  0.00    +0.000 A 
ATOM     13  N   UNL     1      -1.510  12.457  19.740  0.00  0.00    +0.000 N 
ENDROOT
BRANCH   6  14
ATOM     14  C   UNL     1      -3.496  14.417  22.078  0.00  0.00    +0.000 A 
ATOM     15  C   UNL     1      -3.788  13.979  23.405  0.00  0.00    +0.000 A 
ATOM     16  C   UNL     1      -3.641  12.565  23.916  0.00  0.00    +0.000 C 
ATOM     17  C   UNL     1      -4.258  14.888  24.384  0.00  0.00    +0.000 A 
ATOM     18  C   UNL     1      -4.391  16.249  24.136  0.00  0.00    +0.000 A 
ATOM     19  C   UNL     1      -4.825  17.209  25.199  0.00  0.00    +0.000 C 
ATOM     20  C   UNL     1      -4.123  16.699  22.847  0.00  0.00    +0.000 A 
ATOM     21  C   UNL     1      -3.744  15.804  21.833  0.00  0.00    +0.000 A 
ATOM     22 CL   UNL     1      -3.821  16.504  20.240  0.00  0.00    +0.000 Cl
ENDBRANCH   6  14
BRANCH   1  23
ATOM     23  C   UNL     1       0.222  10.792  18.926  0.00  0.00    +0.000 C 
BRANCH  23  24
ATOM     24  N   UNL     1       0.662   9.769  19.914  0.00  0.00    +0.000 NA
BRANCH  24  26
ATOM     25  C   UNL     1       2.083   9.120  17.923  0.00  0.00    +0.000 C 
ATOM     26  C   UNL     1       1.439   8.707  19.243  0.00  0.00    +0.000 C 
ENDBRANCH  24  26
BRANCH  24  27
ATOM     27  C   UNL     1      -0.506   9.184  20.614  0.00  0.00    +0.000 C 
BRANCH  27  28
ATOM     28  C   UNL     1      -0.308   8.943  22.086  0.00  0.00    +0.000 C 
ATOM     29  C   UNL     1       0.788   9.589  22.897  0.00  0.00    +0.000 C 
ATOM     30  C   UNL     1      -0.628  10.065  23.053  0.00  0.00    +0.000 C 
ENDBRANCH  27  28
ENDBRANCH  24  27
ENDBRANCH  23  24
ENDBRANCH   1  23
TORSDOF 6
ENDMDL
MODEL 8
REMARK VINA RESULT:      -6.1      2.442      8.082
REMARK  Name = 
REMARK  10 active torsions:
REMARK  status: ('A' for Active; 'I' for Inactive)
REMARK    1  A    between atoms: C_1  and  C_2
REMARK    2  A    between atoms: C_2  and  N_3
REMARK    3  A    between atoms: N_3  and  C_4
REMARK    4  A    between atoms: N_3  and  C_27
REMARK    5  A    between atoms: C_4  and  C_5
REMARK    6  A    between atoms: C_6  and  C_7
REMARK    7  A    between atoms: N_10  and  C_11
REMARK    8  A    between atoms: C_12  and  C_13
REMARK    9  A    between atoms: C_15  and  C_16
REMARK   10  A    between atoms: C_27  and  C_28
REMARK                            x       y       z     vdW  Elec       q    Type
REMARK                         _______ _______ _______ _____ _____    ______ ____
ROOT
ATOM      1  C   UNL     1       1.803   8.162  19.324  0.00  0.00    +0.000 A 
ATOM      2  C   UNL     1       2.355   8.922  18.303  0.00  0.00    +0.000 A 
ATOM      3  C   UNL     1       2.003  10.316  17.939  0.00  0.00    +0.000 C 
ATOM      4  N   UNL     1       3.205   8.148  17.513  0.00  0.00    +0.000 NA
ATOM      5  C   UNL     1       3.252   6.981  18.101  0.00  0.00    +0.000 A 
ATOM      6  N   UNL     1       3.794   5.713  17.935  0.00  0.00    +0.000 N 
ATOM      7  C   UNL     1       3.364   4.972  19.126  0.00  0.00    +0.000 A 
ATOM      8  N   UNL     1       3.580   3.695  19.465  0.00  0.00    +0.000 NA
ATOM      9  C   UNL     1       2.956   3.261  20.590  0.00  0.00    +0.000 A 
ATOM     10  C   UNL     1       2.251   4.076  21.473  0.00  0.00    +0.000 A 
ATOM     11  C   UNL     1       2.103   5.424  21.168  0.00  0.00    +0.000 A 
ATOM     12  C   UNL     1       2.617   5.811  19.955  0.00  0.00    +0.000 A 
ATOM     13  N   UNL     1       2.530   7.003  19.269  0.00  0.00    +0.000 N 
ENDROOT
BRANCH   6  14
ATOM     14  C   UNL     1       4.635   5.231  16.887  0.00  0.00    +0.000 A 
ATOM     15  C   UNL     1       4.323   4.075  16.108  0.00  0.00    +0.000 A 
ATOM     16  C   UNL     1       3.144   3.157  16.331  0.00  0.00    +0.000 C 
ATOM     17  C   UNL     1       5.139   3.692  15.015  0.00  0.00    +0.000 A 
ATOM     18  C   UNL     1       6.231   4.445  14.599  0.00  0.00    +0.000 A 
ATOM     19  C   UNL     1       7.045   4.065  13.402  0.00  0.00    +0.000 C 
ATOM     20  C   UNL     1       6.562   5.569  15.348  0.00  0.00    +0.000 A 
ATOM     21  C   UNL     1       5.824   5.920  16.492  0.00  0.00    +0.000 A 
ATOM     22 CL   UNL     1       6.617   7.118  17.476  0.00  0.00    +0.000 Cl
ENDBRANCH   6  14
BRANCH   1  23
ATOM     23  C   UNL     1       0.582   8.374  20.139  0.00  0.00    +0.000 C 
BRANCH  23  24
ATOM     24  N   UNL     1       0.694   9.606  20.968  0.00  0.00    +0.000 NA
BRANCH  24  26
ATOM     25  C   UNL     1      -0.036   9.513  23.389  0.00  0.00    +0.000 C 
ATOM     26  C   UNL     1       1.059   9.260  22.357  0.00  0.00    +0.000 C 
ENDBRANCH  24  26
BRANCH  24  27
ATOM     27  C   UNL     1      -0.578  10.366  20.946  0.00  0.00    +0.000 C 
BRANCH  27  28
ATOM     28  C   UNL     1      -0.535  11.652  20.168  0.00  0.00    +0.000 C 
ATOM     29  C   UNL     1      -1.481  11.977  19.038  0.00  0.00    +0.000 C 
ATOM     30  C   UNL     1      -1.651  12.658  20.367  0.00  0.00    +0.000 C 
ENDBRANCH  27  28
ENDBRANCH  24  27
ENDBRANCH  23  24
ENDBRANCH   1  23
TORSDOF 6
ENDMDL
MODEL 9
REMARK VINA RESULT:      -6.0      3.611      6.243
REMARK  Name = 
REMARK  10 active torsions:
REMARK  status: ('A' for Active; 'I' for Inactive)
REMARK    1  A    between atoms: C_1  and  C_2
REMARK    2  A    between atoms: C_2  and  N_3
REMARK    3  A    between atoms: N_3  and  C_4
REMARK    4  A    between atoms: N_3  and  C_27
REMARK    5  A    between atoms: C_4  and  C_5
REMARK    6  A    between atoms: C_6  and  C_7
REMARK    7  A    between atoms: N_10  and  C_11
REMARK    8  A    between atoms: C_12  and  C_13
REMARK    9  A    between atoms: C_15  and  C_16
REMARK   10  A    between atoms: C_27  and  C_28
REMARK                            x       y       z     vdW  Elec       q    Type
REMARK                         _______ _______ _______ _____ _____    ______ ____
ROOT
ATOM      1  C   UNL     1       0.270  11.236  21.505  0.00  0.00    +0.000 A 
ATOM      2  C   UNL     1      -0.480  10.663  22.520  0.00  0.00    +0.000 A 
ATOM      3  C   UNL     1      -0.250   9.347  23.166  0.00  0.00    +0.000 C 
ATOM      4  N   UNL     1      -1.626  11.417  22.778  0.00  0.00    +0.000 NA
ATOM      5  C   UNL     1      -1.519  12.474  22.015  0.00  0.00    +0.000 A 
ATOM      6  N   UNL     1      -2.221  13.616  21.654  0.00  0.00    +0.000 N 
ATOM      7  C   UNL     1      -1.328  14.317  20.725  0.00  0.00    +0.000 A 
ATOM      8  N   UNL     1      -1.516  15.458  20.050  0.00  0.00    +0.000 NA
ATOM      9  C   UNL     1      -0.541  15.803  19.172  0.00  0.00    +0.000 A 
ATOM     10  C   UNL     1       0.681  15.146  19.043  0.00  0.00    +0.000 A 
ATOM     11  C   UNL     1       0.916  14.011  19.810  0.00  0.00    +0.000 A 
ATOM     12  C   UNL     1      -0.140  13.597  20.584  0.00  0.00    +0.000 A 
ATOM     13  N   UNL     1      -0.321  12.461  21.342  0.00  0.00    +0.000 N 
ENDROOT
BRANCH   6  14
ATOM     14  C   UNL     1      -3.495  14.065  22.116  0.00  0.00    +0.000 A 
ATOM     15  C   UNL     1      -4.727  13.656  21.521  0.00  0.00    +0.000 A 
ATOM     16  C   UNL     1      -4.863  12.792  20.290  0.00  0.00    +0.000 C 
ATOM     17  C   UNL     1      -5.969  14.050  22.076  0.00  0.00    +0.000 A 
ATOM     18  C   UNL     1      -6.062  14.786  23.251  0.00  0.00    +0.000 A 
ATOM     19  C   UNL     1      -7.382  15.140  23.862  0.00  0.00    +0.000 C 
ATOM     20  C   UNL     1      -4.876  15.207  23.843  0.00  0.00    +0.000 A 
ATOM     21  C   UNL     1      -3.631  14.908  23.264  0.00  0.00    +0.000 A 
ATOM     22 CL   UNL     1      -2.320  15.828  23.946  0.00  0.00    +0.000 Cl
ENDBRANCH   6  14
BRANCH   1  23
ATOM     23  C   UNL     1       1.294  10.649  20.606  0.00  0.00    +0.000 C 
BRANCH  23  24
ATOM     24  N   UNL     1       0.678   9.717  19.623  0.00  0.00    +0.000 NA
BRANCH  24  26
ATOM     25  C   UNL     1       2.040   8.457  17.902  0.00  0.00    +0.000 C 
ATOM     26  C   UNL     1       1.402   9.773  18.337  0.00  0.00    +0.000 C 
ENDBRANCH  24  26
BRANCH  24  27
ATOM     27  C   UNL     1      -0.753  10.045  19.420  0.00  0.00    +0.000 C 
BRANCH  27  28
ATOM     28  C   UNL     1      -1.108  10.503  18.032  0.00  0.00    +0.000 C 
ATOM     29  C   UNL     1      -2.506  10.451  17.468  0.00  0.00    +0.000 C 
ATOM     30  C   UNL     1      -1.918  11.773  17.872  0.00  0.00    +0.000 C 
ENDBRANCH  27  28
ENDBRANCH  24  27
ENDBRANCH  23  24
ENDBRANCH   1  23
TORSDOF 6
ENDMDL
