MODEL 1
REMARK VINA RESULT:      -8.0      0.000      0.000
REMARK  Name = 
REMARK  8 active torsions:
REMARK  status: ('A' for Active; 'I' for Inactive)
REMARK    1  A    between atoms: C_1  and  C_2
REMARK    2  A    between atoms: C_3  and  C_4
REMARK    3  A    between atoms: C_4  and  C_5
REMARK    4  A    between atoms: C_5  and  C_6
REMARK    5  A    between atoms: N_8  and  C_9
REMARK    6  A    between atoms: C_9  and  C_10
REMARK    7  A    between atoms: C_10  and  O_12
REMARK    8  A    between atoms: C_21  and  C_22
REMARK                            x       y       z     vdW  Elec       q    Type
REMARK                         _______ _______ _______ _____ _____    ______ ____
ROOT
ATOM      1  C   UNL     1       2.698   9.000  17.779  0.00  0.00    +0.000 C 
ATOM      2  C   UNL     1       2.062   8.455  19.045  0.00  0.00    +0.000 A 
ATOM      3  C   UNL     1       1.062   9.058  19.723  0.00  0.00    +0.000 A 
ATOM      4  C   UNL     1       0.435   8.388  20.905  0.00  0.00    +0.000 A 
ATOM      5  O   UNL     1      -0.462   8.915  21.554  0.00  0.00    +0.000 OA
ATOM      6  O   UNL     1       0.889   7.119  21.250  0.00  0.00    +0.000 OA
ATOM      7  C   UNL     1       1.879   6.452  20.507  0.00  0.00    +0.000 A 
ATOM      8  C   UNL     1       2.156   5.118  20.857  0.00  0.00    +0.000 A 
ATOM      9  C   UNL     1       3.054   4.454  20.022  0.00  0.00    +0.000 A 
ATOM     10  O   UNL     1       3.416   3.140  20.077  0.00  0.00    +0.000 OA
ATOM     11  C   UNL     1       4.262   2.910  19.028  0.00  0.00    +0.000 A 
ATOM     12  C   UNL     1       4.467   4.062  18.297  0.00  0.00    +0.000 A 
ATOM     13  C   UNL     1       3.710   5.067  18.966  0.00  0.00    +0.000 A 
ATOM     14  C   UNL     1       3.495   6.434  18.746  0.00  0.00    +0.000 A 
ATOM     15  C   UNL     1       2.506   7.115  19.459  0.00  0.00    +0.000 A 
ENDROOT
BRANCH  12  16
ATOM     16  C   UNL     1       5.259   4.195  17.079  0.00  0.00    +0.000 A 
ATOM     17  C   UNL     1       4.633   4.090  15.823  0.00  0.00    +0.000 A 
ATOM     18  C   UNL     1       5.324   4.360  14.641  0.00  0.00    +0.000 A 
ATOM     19  C   UNL     1       6.674   4.687  14.698  0.00  0.00    +0.000 A 
ATOM     20  C   UNL     1       7.322   4.739  15.933  0.00  0.00    +0.000 A 
ATOM     21  C   UNL     1       6.618   4.500  17.118  0.00  0.00    +0.000 A 
ENDBRANCH  12  16
BRANCH   3  22
ATOM     22  C   UNL     1       0.481  10.378  19.246  0.00  0.00    +0.000 C 
BRANCH  22  23
ATOM     23  C   UNL     1      -0.925  10.438  18.656  0.00  0.00    +0.000 C 
BRANCH  23  24
ATOM     24  C   UNL     1      -1.784  11.388  19.470  0.00  0.00    +0.000 C 
ATOM     25  O   UNL     1      -2.877  11.816  19.111  0.00  0.00    +0.000 OA
ATOM     26  N   UNL     1      -1.219  11.729  20.670  0.00  0.00    +0.000 N 
ATOM     27  H   UNL     1      -0.325  11.334  20.951  0.00  0.00    +0.000 HD
BRANCH  26  28
ATOM     28  C   UNL     1      -1.912  12.575  21.618  0.00  0.00    +0.000 C 
BRANCH  28  29
ATOM     29  C   UNL     1      -2.111  11.830  22.928  0.00  0.00    +0.000 C 
ATOM     30  O   UNL     1      -3.150  11.849  23.574  0.00  0.00    +0.000 OA
BRANCH  29  31
ATOM     31  O   UNL     1      -1.020  11.138  23.327  0.00  0.00    +0.000 OA
ATOM     32  H   UNL     1      -0.584  10.632  22.615  0.00  0.00    +0.000 HD
ENDBRANCH  29  31
ENDBRANCH  28  29
ENDBRANCH  26  28
ENDBRANCH  23  24
ENDBRANCH  22  23
ENDBRANCH   3  22
TORSDOF 7
ENDMDL
MODEL 2
REMARK VINA RESULT:      -7.7      0.933      1.348
REMARK  Name = 
REMARK  8 active torsions:
REMARK  status: ('A' for Active; 'I' for Inactive)
REMARK    1  A    between atoms: C_1  and  C_2
REMARK    2  A    between atoms: C_3  and  C_4
REMARK    3  A    between atoms: C_4  and  C_5
REMARK    4  A    between atoms: C_5  and  C_6
REMARK    5  A    between atoms: N_8  and  C_9
REMARK    6  A    between atoms: C_9  and  C_10
REMARK    7  A    between atoms: C_10  and  O_12
REMARK    8  A    between atoms: C_21  and  C_22
REMARK                            x       y       z     vdW  Elec       q    Type
REMARK                         _______ _______ _______ _____ _____    ______ ____
ROOT
ATOM      1  C   UNL     1       2.475   9.195  17.770  0.00  0.00    +0.000 C 
ATOM      2  C   UNL     1       1.892   8.625  19.050  0.00  0.00    +0.000 A 
ATOM      3  C   UNL     1       0.888   9.191  19.756  0.00  0.00    +0.000 A 
ATOM      4  C   UNL     1       0.317   8.498  20.952  0.00  0.00    +0.000 A 
ATOM      5  O   UNL     1      -0.581   8.991  21.625  0.00  0.00    +0.000 OA
ATOM      6  O   UNL     1       0.825   7.245  21.283  0.00  0.00    +0.000 OA
ATOM      7  C   UNL     1       1.818   6.616  20.512  0.00  0.00    +0.000 A 
ATOM      8  C   UNL     1       2.152   5.292  20.853  0.00  0.00    +0.000 A 
ATOM      9  C   UNL     1       3.052   4.661  19.993  0.00  0.00    +0.000 A 
ATOM     10  O   UNL     1       3.463   3.362  20.036  0.00  0.00    +0.000 OA
ATOM     11  C   UNL     1       4.289   3.163  18.965  0.00  0.00    +0.000 A 
ATOM     12  C   UNL     1       4.433   4.324  18.231  0.00  0.00    +0.000 A 
ATOM     13  C   UNL     1       3.658   5.299  18.922  0.00  0.00    +0.000 A 
ATOM     14  C   UNL     1       3.388   6.658  18.711  0.00  0.00    +0.000 A 
ATOM     15  C   UNL     1       2.395   7.302  19.451  0.00  0.00    +0.000 A 
ENDROOT
BRANCH  12  16
ATOM     16  C   UNL     1       5.188   4.486  16.994  0.00  0.00    +0.000 A 
ATOM     17  C   UNL     1       6.550   4.839  17.047  0.00  0.00    +0.000 A 
ATOM     18  C   UNL     1       7.342   4.855  15.899  0.00  0.00    +0.000 A 
ATOM     19  C   UNL     1       6.765   4.572  14.666  0.00  0.00    +0.000 A 
ATOM     20  C   UNL     1       5.403   4.276  14.591  0.00  0.00    +0.000 A 
ATOM     21  C   UNL     1       4.620   4.228  15.748  0.00  0.00    +0.000 A 
ENDBRANCH  12  16
BRANCH   3  22
ATOM     22  C   UNL     1       0.248  10.490  19.297  0.00  0.00    +0.000 C 
BRANCH  22  23
ATOM     23  C   UNL     1       0.867  11.834  19.671  0.00  0.00    +0.000 C 
BRANCH  23  24
ATOM     24  C   UNL     1      -0.025  12.550  20.670  0.00  0.00    +0.000 C 
ATOM     25  O   UNL     1       0.306  13.544  21.307  0.00  0.00    +0.000 OA
ATOM     26  N   UNL     1      -1.261  11.974  20.795  0.00  0.00    +0.000 N 
ATOM     27  H   UNL     1      -1.516  11.168  20.230  0.00  0.00    +0.000 HD
BRANCH  26  28
ATOM     28  C   UNL     1      -2.278  12.548  21.650  0.00  0.00    +0.000 C 
BRANCH  28  29
ATOM     29  C   UNL     1      -2.247  11.877  23.013  0.00  0.00    +0.000 C 
ATOM     30  O   UNL     1      -3.218  11.786  23.753  0.00  0.00    +0.000 OA
BRANCH  29  31
ATOM     31  O   UNL     1      -1.033  11.385  23.346  0.00  0.00    +0.000 OA
ATOM     32  H   UNL     1      -1.038  10.443  23.603  0.00  0.00    +0.000 HD
ENDBRANCH  29  31
ENDBRANCH  28  29
ENDBRANCH  26  28
ENDBRANCH  23  24
ENDBRANCH  22  23
ENDBRANCH   3  22
TORSDOF 7
ENDMDL
MODEL 3
REMARK VINA RESULT:      -7.7      2.871      8.947
REMARK  Name = 
REMARK  8 active torsions:
REMARK  status: ('A' for Active; 'I' for Inactive)
REMARK    1  A    between atoms: C_1  and  C_2
REMARK    2  A    between atoms: C_3  and  C_4
REMARK    3  A    between atoms: C_4  and  C_5
REMARK    4  A    between atoms: C_5  and  C_6
REMARK    5  A    between atoms: N_8  and  C_9
REMARK    6  A    between atoms: C_9  and  C_10
REMARK    7  A    between atoms: C_10  and  O_12
REMARK    8  A    between atoms: C_21  and  C_22
REMARK                            x       y       z     vdW  Elec       q    Type
REMARK                         _______ _______ _______ _____ _____    ______ ____
ROOT
ATOM      1  C   UNL     1       2.330   9.202  17.712  0.00  0.00    +0.000 C 
ATOM      2  C   UNL     1       1.896   8.368  18.903  0.00  0.00    +0.000 A 
ATOM      3  C   UNL     1       2.266   7.087  19.121  0.00  0.00    +0.000 A 
ATOM      4  C   UNL     1       1.863   6.383  20.378  0.00  0.00    +0.000 A 
ATOM      5  O   UNL     1       2.167   5.217  20.600  0.00  0.00    +0.000 OA
ATOM      6  O   UNL     1       1.135   7.103  21.322  0.00  0.00    +0.000 OA
ATOM      7  C   UNL     1       0.807   8.457  21.137  0.00  0.00    +0.000 A 
ATOM      8  C   UNL     1       0.198   9.124  22.216  0.00  0.00    +0.000 A 
ATOM      9  C   UNL     1      -0.001  10.493  22.039  0.00  0.00    +0.000 A 
ATOM     10  O   UNL     1      -0.477  11.383  22.956  0.00  0.00    +0.000 OA
ATOM     11  C   UNL     1      -0.440  12.621  22.374  0.00  0.00    +0.000 A 
ATOM     12  C   UNL     1       0.040  12.544  21.082  0.00  0.00    +0.000 A 
ATOM     13  C   UNL     1       0.289  11.160  20.859  0.00  0.00    +0.000 A 
ATOM     14  C   UNL     1       0.770  10.418  19.771  0.00  0.00    +0.000 A 
ATOM     15  C   UNL     1       1.120   9.076  19.933  0.00  0.00    +0.000 A 
ENDROOT
BRANCH  12  16
ATOM     16  C   UNL     1       0.275  13.659  20.171  0.00  0.00    +0.000 A 
ATOM     17  C   UNL     1      -0.760  14.576  19.908  0.00  0.00    +0.000 A 
ATOM     18  C   UNL     1      -0.532  15.735  19.165  0.00  0.00    +0.000 A 
ATOM     19  C   UNL     1       0.728  15.965  18.626  0.00  0.00    +0.000 A 
ATOM     20  C   UNL     1       1.749  15.035  18.830  0.00  0.00    +0.000 A 
ATOM     21  C   UNL     1       1.526  13.891  19.603  0.00  0.00    +0.000 A 
ENDBRANCH  12  16
BRANCH   3  22
ATOM     22  C   UNL     1       3.182   6.364  18.148  0.00  0.00    +0.000 C 
BRANCH  22  23
ATOM     23  C   UNL     1       4.694   6.375  18.354  0.00  0.00    +0.000 C 
BRANCH  23  24
ATOM     24  C   UNL     1       5.132   5.082  19.019  0.00  0.00    +0.000 C 
ATOM     25  O   UNL     1       6.173   4.946  19.653  0.00  0.00    +0.000 OA
ATOM     26  N   UNL     1       4.237   4.060  18.846  0.00  0.00    +0.000 N 
ATOM     27  H   UNL     1       3.369   4.213  18.340  0.00  0.00    +0.000 HD
BRANCH  26  28
ATOM     28  C   UNL     1       4.443   2.765  19.458  0.00  0.00    +0.000 C 
BRANCH  28  29
ATOM     29  C   UNL     1       3.460   1.758  18.884  0.00  0.00    +0.000 C 
ATOM     30  O   UNL     1       2.244   1.876  18.950  0.00  0.00    +0.000 OA
BRANCH  29  31
ATOM     31  O   UNL     1       4.055   0.700  18.288  0.00  0.00    +0.000 OA
ATOM     32  H   UNL     1       4.483   0.080  18.908  0.00  0.00    +0.000 HD
ENDBRANCH  29  31
ENDBRANCH  28  29
ENDBRANCH  26  28
ENDBRANCH  23  24
ENDBRANCH  22  23
ENDBRANCH   3  22
TORSDOF 7
ENDMDL
MODEL 4
REMARK VINA RESULT:      -7.6      2.017      3.339
REMARK  Name = 
REMARK  8 active torsions:
REMARK  status: ('A' for Active; 'I' for Inactive)
REMARK    1  A    between atoms: C_1  and  C_2
REMARK    2  A    between atoms: C_3  and  C_4
REMARK    3  A    between atoms: C_4  and  C_5
REMARK    4  A    between atoms: C_5  and  C_6
REMARK    5  A    between atoms: N_8  and  C_9
REMARK    6  A    between atoms: C_9  and  C_10
REMARK    7  A    between atoms: C_10  and  O_12
REMARK    8  A    between atoms: C_21  and  C_22
REMARK                            x       y       z     vdW  Elec       q    Type
REMARK                         _______ _______ _______ _____ _____    ______ ____
ROOT
ATOM      1  C   UNL     1       2.022   9.638  17.653  0.00  0.00    +0.000 C 
ATOM      2  C   UNL     1       1.494   9.183  19.001  0.00  0.00    +0.000 A 
ATOM      3  C   UNL     1       0.553   9.836  19.718  0.00  0.00    +0.000 A 
ATOM      4  C   UNL     1       0.028   9.252  20.991  0.00  0.00    +0.000 A 
ATOM      5  O   UNL     1      -0.812   9.826  21.675  0.00  0.00    +0.000 OA
ATOM      6  O   UNL     1       0.511   8.007  21.384  0.00  0.00    +0.000 OA
ATOM      7  C   UNL     1       1.436   7.287  20.607  0.00  0.00    +0.000 A 
ATOM      8  C   UNL     1       1.743   5.978  21.024  0.00  0.00    +0.000 A 
ATOM      9  C   UNL     1       2.568   5.254  20.165  0.00  0.00    +0.000 A 
ATOM     10  O   UNL     1       2.936   3.946  20.280  0.00  0.00    +0.000 OA
ATOM     11  C   UNL     1       3.692   3.640  19.182  0.00  0.00    +0.000 A 
ATOM     12  C   UNL     1       3.833   4.739  18.359  0.00  0.00    +0.000 A 
ATOM     13  C   UNL     1       3.133   5.790  19.018  0.00  0.00    +0.000 A 
ATOM     14  C   UNL     1       2.900   7.140  18.724  0.00  0.00    +0.000 A 
ATOM     15  C   UNL     1       1.973   7.873  19.468  0.00  0.00    +0.000 A 
ENDROOT
BRANCH  12  16
ATOM     16  C   UNL     1       4.521   4.784  17.073  0.00  0.00    +0.000 A 
ATOM     17  C   UNL     1       4.756   6.024  16.449  0.00  0.00    +0.000 A 
ATOM     18  C   UNL     1       5.540   6.122  15.299  0.00  0.00    +0.000 A 
ATOM     19  C   UNL     1       6.056   4.967  14.723  0.00  0.00    +0.000 A 
ATOM     20  C   UNL     1       5.783   3.725  15.299  0.00  0.00    +0.000 A 
ATOM     21  C   UNL     1       5.025   3.634  16.470  0.00  0.00    +0.000 A 
ENDBRANCH  12  16
BRANCH   3  22
ATOM     22  C   UNL     1      -0.067  11.123  19.201  0.00  0.00    +0.000 C 
BRANCH  22  23
ATOM     23  C   UNL     1      -1.583  11.283  19.140  0.00  0.00    +0.000 C 
BRANCH  23  24
ATOM     24  C   UNL     1      -2.165  10.290  18.149  0.00  0.00    +0.000 C 
ATOM     25  O   UNL     1      -2.961   9.404  18.441  0.00  0.00    +0.000 OA
ATOM     26  N   UNL     1      -1.714  10.481  16.870  0.00  0.00    +0.000 N 
ATOM     27  H   UNL     1      -1.077  11.244  16.655  0.00  0.00    +0.000 HD
BRANCH  26  28
ATOM     28  C   UNL     1      -2.201   9.677  15.770  0.00  0.00    +0.000 C 
BRANCH  28  29
ATOM     29  C   UNL     1      -3.136  10.502  14.901  0.00  0.00    +0.000 C 
ATOM     30  O   UNL     1      -3.626  10.102  13.853  0.00  0.00    +0.000 OA
BRANCH  29  31
ATOM     31  O   UNL     1      -3.380  11.738  15.390  0.00  0.00    +0.000 OA
ATOM     32  H   UNL     1      -3.696  12.377  14.724  0.00  0.00    +0.000 HD
ENDBRANCH  29  31
ENDBRANCH  28  29
ENDBRANCH  26  28
ENDBRANCH  23  24
ENDBRANCH  22  23
ENDBRANCH   3  22
TORSDOF 7
ENDMDL
MODEL 5
REMARK VINA RESULT:      -7.6      3.839      9.358
REMARK  Name = 
REMARK  8 active torsions:
REMARK  status: ('A' for Active; 'I' for Inactive)
REMARK    1  A    between atoms: C_1  and  C_2
REMARK    2  A    between atoms: C_3  and  C_4
REMARK    3  A    between atoms: C_4  and  C_5
REMARK    4  A    between atoms: C_5  and  C_6
REMARK    5  A    between atoms: N_8  and  C_9
REMARK    6  A    between atoms: C_9  and  C_10
REMARK    7  A    between atoms: C_10  and  O_12
REMARK    8  A    between atoms: C_21  and  C_22
REMARK                            x       y       z     vdW  Elec       q    Type
REMARK                         _______ _______ _______ _____ _____    ______ ____
ROOT
ATOM      1  C   UNL     1       4.369   7.775  16.859  0.00  0.00    +0.000 C 
ATOM      2  C   UNL     1       4.111   6.658  17.854  0.00  0.00    +0.000 A 
ATOM      3  C   UNL     1       4.891   5.565  18.002  0.00  0.00    +0.000 A 
ATOM      4  C   UNL     1       4.604   4.569  19.080  0.00  0.00    +0.000 A 
ATOM      5  O   UNL     1       5.280   3.558  19.231  0.00  0.00    +0.000 OA
ATOM      6  O   UNL     1       3.541   4.829  19.940  0.00  0.00    +0.000 OA
ATOM      7  C   UNL     1       2.769   5.999  19.840  0.00  0.00    +0.000 A 
ATOM      8  C   UNL     1       1.816   6.229  20.850  0.00  0.00    +0.000 A 
ATOM      9  C   UNL     1       1.156   7.456  20.783  0.00  0.00    +0.000 A 
ATOM     10  O   UNL     1       0.266   7.965  21.683  0.00  0.00    +0.000 OA
ATOM     11  C   UNL     1      -0.073   9.217  21.251  0.00  0.00    +0.000 A 
ATOM     12  C   UNL     1       0.575   9.525  20.072  0.00  0.00    +0.000 A 
ATOM     13  C   UNL     1       1.342   8.367  19.755  0.00  0.00    +0.000 A 
ATOM     14  C   UNL     1       2.205   8.026  18.705  0.00  0.00    +0.000 A 
ATOM     15  C   UNL     1       2.995   6.878  18.788  0.00  0.00    +0.000 A 
ENDROOT
BRANCH  12  16
ATOM     16  C   UNL     1       0.508  10.786  19.342  0.00  0.00    +0.000 A 
ATOM     17  C   UNL     1      -0.729  11.247  18.855  0.00  0.00    +0.000 A 
ATOM     18  C   UNL     1      -0.860  12.515  18.287  0.00  0.00    +0.000 A 
ATOM     19  C   UNL     1       0.263  13.322  18.149  0.00  0.00    +0.000 A 
ATOM     20  C   UNL     1       1.508  12.855  18.576  0.00  0.00    +0.000 A 
ATOM     21  C   UNL     1       1.629  11.597  19.174  0.00  0.00    +0.000 A 
ENDBRANCH  12  16
BRANCH   3  22
ATOM     22  C   UNL     1       6.132   5.371  17.147  0.00  0.00    +0.000 C 
BRANCH  22  23
ATOM     23  C   UNL     1       6.332   4.084  16.353  0.00  0.00    +0.000 C 
BRANCH  23  24
ATOM     24  C   UNL     1       6.710   4.417  14.921  0.00  0.00    +0.000 C 
ATOM     25  O   UNL     1       7.421   5.362  14.593  0.00  0.00    +0.000 OA
ATOM     26  N   UNL     1       6.177   3.546  14.008  0.00  0.00    +0.000 N 
ATOM     27  H   UNL     1       5.616   2.756  14.315  0.00  0.00    +0.000 HD
BRANCH  26  28
ATOM     28  C   UNL     1       6.474   3.657  12.596  0.00  0.00    +0.000 C 
BRANCH  28  29
ATOM     29  C   UNL     1       5.503   2.805  11.795  0.00  0.00    +0.000 C 
ATOM     30  O   UNL     1       4.384   3.173  11.464  0.00  0.00    +0.000 OA
BRANCH  29  31
ATOM     31  O   UNL     1       5.988   1.584  11.479  0.00  0.00    +0.000 OA
ATOM     32  H   UNL     1       6.944   1.476  11.649  0.00  0.00    +0.000 HD
ENDBRANCH  29  31
ENDBRANCH  28  29
ENDBRANCH  26  28
ENDBRANCH  23  24
ENDBRANCH  22  23
ENDBRANCH   3  22
TORSDOF 7
ENDMDL
MODEL 6
REMARK VINA RESULT:      -7.6      1.516      2.575
REMARK  Name = 
REMARK  8 active torsions:
REMARK  status: ('A' for Active; 'I' for Inactive)
REMARK    1  A    between atoms: C_1  and  C_2
REMARK    2  A    between atoms: C_3  and  C_4
REMARK    3  A    between atoms: C_4  and  C_5
REMARK    4  A    between atoms: C_5  and  C_6
REMARK    5  A    between atoms: N_8  and  C_9
REMARK    6  A    between atoms: C_9  and  C_10
REMARK    7  A    between atoms: C_10  and  O_12
REMARK    8  A    between atoms: C_21  and  C_22
REMARK                            x       y       z     vdW  Elec       q    Type
REMARK                         _______ _______ _______ _____ _____    ______ ____
ROOT
ATOM      1  C   UNL     1       2.489   9.202  17.804  0.00  0.00    +0.000 C 
ATOM      2  C   UNL     1       1.878   8.654  19.080  0.00  0.00    +0.000 A 
ATOM      3  C   UNL     1       0.875   9.244  19.767  0.00  0.00    +0.000 A 
ATOM      4  C   UNL     1       0.274   8.572  20.960  0.00  0.00    +0.000 A 
ATOM      5  O   UNL     1      -0.624   9.087  21.616  0.00  0.00    +0.000 OA
ATOM      6  O   UNL     1       0.754   7.312  21.308  0.00  0.00    +0.000 OA
ATOM      7  C   UNL     1       1.746   6.658  20.556  0.00  0.00    +0.000 A 
ATOM      8  C   UNL     1       2.050   5.330  20.912  0.00  0.00    +0.000 A 
ATOM      9  C   UNL     1       2.949   4.676  20.070  0.00  0.00    +0.000 A 
ATOM     10  O   UNL     1       3.335   3.369  20.129  0.00  0.00    +0.000 OA
ATOM     11  C   UNL     1       4.172   3.147  19.071  0.00  0.00    +0.000 A 
ATOM     12  C   UNL     1       4.348   4.298  18.330  0.00  0.00    +0.000 A 
ATOM     13  C   UNL     1       3.582   5.294  19.002  0.00  0.00    +0.000 A 
ATOM     14  C   UNL     1       3.341   6.656  18.777  0.00  0.00    +0.000 A 
ATOM     15  C   UNL     1       2.350   7.325  19.498  0.00  0.00    +0.000 A 
ENDROOT
BRANCH  12  16
ATOM     16  C   UNL     1       5.124   4.437  17.103  0.00  0.00    +0.000 A 
ATOM     17  C   UNL     1       6.492   4.758  17.173  0.00  0.00    +0.000 A 
ATOM     18  C   UNL     1       7.300   4.750  16.035  0.00  0.00    +0.000 A 
ATOM     19  C   UNL     1       6.734   4.473  14.796  0.00  0.00    +0.000 A 
ATOM     20  C   UNL     1       5.366   4.209  14.704  0.00  0.00    +0.000 A 
ATOM     21  C   UNL     1       4.566   4.185  15.851  0.00  0.00    +0.000 A 
ENDBRANCH  12  16
BRANCH   3  22
ATOM     22  C   UNL     1       0.266  10.551  19.288  0.00  0.00    +0.000 C 
BRANCH  22  23
ATOM     23  C   UNL     1      -0.921  10.548  18.330  0.00  0.00    +0.000 C 
BRANCH  23  24
ATOM     24  C   UNL     1      -2.098  11.264  18.967  0.00  0.00    +0.000 C 
ATOM     25  O   UNL     1      -2.048  11.869  20.034  0.00  0.00    +0.000 OA
ATOM     26  N   UNL     1      -3.246  11.177  18.225  0.00  0.00    +0.000 N 
ATOM     27  H   UNL     1      -3.247  10.694  17.330  0.00  0.00    +0.000 HD
BRANCH  26  28
ATOM     28  C   UNL     1      -4.461  11.850  18.632  0.00  0.00    +0.000 C 
BRANCH  28  29
ATOM     29  C   UNL     1      -5.633  11.347  17.805  0.00  0.00    +0.000 C 
ATOM     30  O   UNL     1      -6.720  11.040  18.277  0.00  0.00    +0.000 OA
BRANCH  29  31
ATOM     31  O   UNL     1      -5.365  11.261  16.483  0.00  0.00    +0.000 OA
ATOM     32  H   UNL     1      -5.107  10.368  16.184  0.00  0.00    +0.000 HD
ENDBRANCH  29  31
ENDBRANCH  28  29
ENDBRANCH  26  28
ENDBRANCH  23  24
ENDBRANCH  22  23
ENDBRANCH   3  22
TORSDOF 7
ENDMDL
MODEL 7
REMARK VINA RESULT:      -7.5      3.189      9.278
REMARK  Name = 
REMARK  8 active torsions:
REMARK  status: ('A' for Active; 'I' for Inactive)
REMARK    1  A    between atoms: C_1  and  C_2
REMARK    2  A    between atoms: C_3  and  C_4
REMARK    3  A    between atoms: C_4  and  C_5
REMARK    4  A    between atoms: C_5  and  C_6
REMARK    5  A    between atoms: N_8  and  C_9
REMARK    6  A    between atoms: C_9  and  C_10
REMARK    7  A    between atoms: C_10  and  O_12
REMARK    8  A    between atoms: C_21  and  C_22
REMARK                            x       y       z     vdW  Elec       q    Type
REMARK                         _______ _______ _______ _____ _____    ______ ____
ROOT
ATOM      1  C   UNL     1       2.222   9.363  17.801  0.00  0.00    +0.000 C 
ATOM      2  C   UNL     1       1.837   8.504  18.991  0.00  0.00    +0.000 A 
ATOM      3  C   UNL     1       2.267   7.240  19.198  0.00  0.00    +0.000 A 
ATOM      4  C   UNL     1       1.908   6.512  20.455  0.00  0.00    +0.000 A 
ATOM      5  O   UNL     1       2.266   5.359  20.666  0.00  0.00    +0.000 OA
ATOM      6  O   UNL     1       1.157   7.193  21.409  0.00  0.00    +0.000 OA
ATOM      7  C   UNL     1       0.767   8.532  21.235  0.00  0.00    +0.000 A 
ATOM      8  C   UNL     1       0.139   9.165  22.324  0.00  0.00    +0.000 A 
ATOM      9  C   UNL     1      -0.124  10.524  22.157  0.00  0.00    +0.000 A 
ATOM     10  O   UNL     1      -0.631  11.388  23.083  0.00  0.00    +0.000 OA
ATOM     11  C   UNL     1      -0.655  12.628  22.509  0.00  0.00    +0.000 A 
ATOM     12  C   UNL     1      -0.184  12.581  21.212  0.00  0.00    +0.000 A 
ATOM     13  C   UNL     1       0.125  11.210  20.978  0.00  0.00    +0.000 A 
ATOM     14  C   UNL     1       0.628  10.497  19.882  0.00  0.00    +0.000 A 
ATOM     15  C   UNL     1       1.039   9.171  20.032  0.00  0.00    +0.000 A 
ENDROOT
BRANCH  12  16
ATOM     16  C   UNL     1      -0.009  13.709  20.305  0.00  0.00    +0.000 A 
ATOM     17  C   UNL     1      -1.043  14.652  20.154  0.00  0.00    +0.000 A 
ATOM     18  C   UNL     1      -0.858  15.822  19.416  0.00  0.00    +0.000 A 
ATOM     19  C   UNL     1       0.353  16.039  18.770  0.00  0.00    +0.000 A 
ATOM     20  C   UNL     1       1.368  15.085  18.864  0.00  0.00    +0.000 A 
ATOM     21  C   UNL     1       1.191  13.930  19.631  0.00  0.00    +0.000 A 
ENDBRANCH  12  16
BRANCH   3  22
ATOM     22  C   UNL     1       3.205   6.565  18.212  0.00  0.00    +0.000 C 
BRANCH  22  23
ATOM     23  C   UNL     1       2.867   5.193  17.636  0.00  0.00    +0.000 C 
BRANCH  23  24
ATOM     24  C   UNL     1       4.136   4.375  17.476  0.00  0.00    +0.000 C 
ATOM     25  O   UNL     1       4.541   3.554  18.292  0.00  0.00    +0.000 OA
ATOM     26  N   UNL     1       4.802   4.641  16.308  0.00  0.00    +0.000 N 
ATOM     27  H   UNL     1       4.424   5.305  15.638  0.00  0.00    +0.000 HD
BRANCH  26  28
ATOM     28  C   UNL     1       6.000   3.917  15.942  0.00  0.00    +0.000 C 
BRANCH  28  29
ATOM     29  C   UNL     1       7.229   4.682  16.405  0.00  0.00    +0.000 C 
ATOM     30  O   UNL     1       8.043   4.247  17.209  0.00  0.00    +0.000 OA
BRANCH  29  31
ATOM     31  O   UNL     1       7.344   5.908  15.847  0.00  0.00    +0.000 OA
ATOM     32  H   UNL     1       6.907   6.620  16.351  0.00  0.00    +0.000 HD
ENDBRANCH  29  31
ENDBRANCH  28  29
ENDBRANCH  26  28
ENDBRANCH  23  24
ENDBRANCH  22  23
ENDBRANCH   3  22
TORSDOF 7
ENDMDL
MODEL 8
REMARK VINA RESULT:      -7.5      2.822      8.887
REMARK  Name = 
REMARK  8 active torsions:
REMARK  status: ('A' for Active; 'I' for Inactive)
REMARK    1  A    between atoms: C_1  and  C_2
REMARK    2  A    between atoms: C_3  and  C_4
REMARK    3  A    between atoms: C_4  and  C_5
REMARK    4  A    between atoms: C_5  and  C_6
REMARK    5  A    between atoms: N_8  and  C_9
REMARK    6  A    between atoms: C_9  and  C_10
REMARK    7  A    between atoms: C_10  and  O_12
REMARK    8  A    between atoms: C_21  and  C_22
REMARK                            x       y       z     vdW  Elec       q    Type
REMARK                         _______ _______ _______ _____ _____    ______ ____
ROOT
ATOM      1  C   UNL     1       2.371   9.292  17.780  0.00  0.00    +0.000 C 
ATOM      2  C   UNL     1       1.898   8.414  18.925  0.00  0.00    +0.000 A 
ATOM      3  C   UNL     1       2.247   7.120  19.096  0.00  0.00    +0.000 A 
ATOM      4  C   UNL     1       1.807   6.370  20.313  0.00  0.00    +0.000 A 
ATOM      5  O   UNL     1       2.090   5.191  20.490  0.00  0.00    +0.000 OA
ATOM      6  O   UNL     1       1.067   7.059  21.270  0.00  0.00    +0.000 OA
ATOM      7  C   UNL     1       0.761   8.425  21.136  0.00  0.00    +0.000 A 
ATOM      8  C   UNL     1       0.137   9.053  22.229  0.00  0.00    +0.000 A 
ATOM      9  C   UNL     1      -0.040  10.431  22.107  0.00  0.00    +0.000 A 
ATOM     10  O   UNL     1      -0.524  11.289  23.050  0.00  0.00    +0.000 OA
ATOM     11  C   UNL     1      -0.458  12.549  22.523  0.00  0.00    +0.000 A 
ATOM     12  C   UNL     1       0.050  12.521  21.240  0.00  0.00    +0.000 A 
ATOM     13  C   UNL     1       0.286  11.143  20.963  0.00  0.00    +0.000 A 
ATOM     14  C   UNL     1       0.781  10.442  19.855  0.00  0.00    +0.000 A 
ATOM     15  C   UNL     1       1.109   9.090  19.966  0.00  0.00    +0.000 A 
ENDROOT
BRANCH  12  16
ATOM     16  C   UNL     1       0.320  13.669  20.382  0.00  0.00    +0.000 A 
ATOM     17  C   UNL     1       1.650  14.036  20.102  0.00  0.00    +0.000 A 
ATOM     18  C   UNL     1       1.949  15.030  19.170  0.00  0.00    +0.000 A 
ATOM     19  C   UNL     1       0.914  15.712  18.542  0.00  0.00    +0.000 A 
ATOM     20  C   UNL     1      -0.411  15.399  18.852  0.00  0.00    +0.000 A 
ATOM     21  C   UNL     1      -0.707  14.380  19.763  0.00  0.00    +0.000 A 
ENDBRANCH  12  16
BRANCH   3  22
ATOM     22  C   UNL     1       3.175   6.427  18.113  0.00  0.00    +0.000 C 
BRANCH  22  23
ATOM     23  C   UNL     1       4.660   6.273  18.426  0.00  0.00    +0.000 C 
BRANCH  23  24
ATOM     24  C   UNL     1       5.003   4.802  18.581  0.00  0.00    +0.000 C 
ATOM     25  O   UNL     1       6.137   4.369  18.756  0.00  0.00    +0.000 OA
ATOM     26  N   UNL     1       3.907   3.985  18.511  0.00  0.00    +0.000 N 
ATOM     27  H   UNL     1       2.976   4.377  18.395  0.00  0.00    +0.000 HD
BRANCH  26  28
ATOM     28  C   UNL     1       4.018   2.554  18.700  0.00  0.00    +0.000 C 
BRANCH  28  29
ATOM     29  C   UNL     1       4.194   2.240  20.177  0.00  0.00    +0.000 C 
ATOM     30  O   UNL     1       5.187   1.701  20.648  0.00  0.00    +0.000 OA
BRANCH  29  31
ATOM     31  O   UNL     1       3.139   2.608  20.937  0.00  0.00    +0.000 OA
ATOM     32  H   UNL     1       2.334   2.074  20.792  0.00  0.00    +0.000 HD
ENDBRANCH  29  31
ENDBRANCH  28  29
ENDBRANCH  26  28
ENDBRANCH  23  24
ENDBRANCH  22  23
ENDBRANCH   3  22
TORSDOF 7
ENDMDL
MODEL 9
REMARK VINA RESULT:      -7.5      1.698      2.943
REMARK  Name = 
REMARK  8 active torsions:
REMARK  status: ('A' for Active; 'I' for Inactive)
REMARK    1  A    between atoms: C_1  and  C_2
REMARK    2  A    between atoms: C_3  and  C_4
REMARK    3  A    between atoms: C_4  and  C_5
REMARK    4  A    between atoms: C_5  and  C_6
REMARK    5  A    between atoms: N_8  and  C_9
REMARK    6  A    between atoms: C_9  and  C_10
REMARK    7  A    between atoms: C_10  and  O_12
REMARK    8  A    between atoms: C_21  and  C_22
REMARK                            x       y       z     vdW  Elec       q    Type
REMARK                         _______ _______ _______ _____ _____    ______ ____
ROOT
ATOM      1  C   UNL     1       2.625   8.940  17.867  0.00  0.00    +0.000 C 
ATOM      2  C   UNL     1       2.027   8.356  19.133  0.00  0.00    +0.000 A 
ATOM      3  C   UNL     1       1.028   8.923  19.844  0.00  0.00    +0.000 A 
ATOM      4  C   UNL     1       0.440   8.216  21.024  0.00  0.00    +0.000 A 
ATOM      5  O   UNL     1      -0.455   8.709  21.701  0.00  0.00    +0.000 OA
ATOM      6  O   UNL     1       0.928   6.950  21.334  0.00  0.00    +0.000 OA
ATOM      7  C   UNL     1       1.917   6.320  20.557  0.00  0.00    +0.000 A 
ATOM      8  C   UNL     1       2.230   4.985  20.874  0.00  0.00    +0.000 A 
ATOM      9  C   UNL     1       3.125   4.358  20.007  0.00  0.00    +0.000 A 
ATOM     10  O   UNL     1       3.517   3.052  20.029  0.00  0.00    +0.000 OA
ATOM     11  C   UNL     1       4.347   2.862  18.958  0.00  0.00    +0.000 A 
ATOM     12  C   UNL     1       4.511   4.034  18.247  0.00  0.00    +0.000 A 
ATOM     13  C   UNL     1       3.746   5.007  18.951  0.00  0.00    +0.000 A 
ATOM     14  C   UNL     1       3.497   6.373  18.765  0.00  0.00    +0.000 A 
ATOM     15  C   UNL     1       2.509   7.018  19.511  0.00  0.00    +0.000 A 
ENDROOT
BRANCH  12  16
ATOM     16  C   UNL     1       5.275   4.208  17.017  0.00  0.00    +0.000 A 
ATOM     17  C   UNL     1       4.639   4.056  15.771  0.00  0.00    +0.000 A 
ATOM     18  C   UNL     1       5.294   4.362  14.578  0.00  0.00    +0.000 A 
ATOM     19  C   UNL     1       6.621   4.774  14.612  0.00  0.00    +0.000 A 
ATOM     20  C   UNL     1       7.282   4.875  15.837  0.00  0.00    +0.000 A 
ATOM     21  C   UNL     1       6.613   4.599  17.033  0.00  0.00    +0.000 A 
ENDBRANCH  12  16
BRANCH   3  22
ATOM     22  C   UNL     1       0.409  10.239  19.406  0.00  0.00    +0.000 C 
BRANCH  22  23
ATOM     23  C   UNL     1      -1.107  10.396  19.334  0.00  0.00    +0.000 C 
BRANCH  23  24
ATOM     24  C   UNL     1      -1.491  11.091  18.040  0.00  0.00    +0.000 C 
ATOM     25  O   UNL     1      -1.337  12.288  17.823  0.00  0.00    +0.000 OA
ATOM     26  N   UNL     1      -2.033  10.240  17.114  0.00  0.00    +0.000 N 
ATOM     27  H   UNL     1      -2.120   9.246  17.313  0.00  0.00    +0.000 HD
BRANCH  26  28
ATOM     28  C   UNL     1      -2.404  10.699  15.792  0.00  0.00    +0.000 C 
BRANCH  28  29
ATOM     29  C   UNL     1      -3.918  10.742  15.665  0.00  0.00    +0.000 C 
ATOM     30  O   UNL     1      -4.652  11.338  16.442  0.00  0.00    +0.000 OA
BRANCH  29  31
ATOM     31  O   UNL     1      -4.392  10.049  14.606  0.00  0.00    +0.000 OA
ATOM     32  H   UNL     1      -5.342  10.187  14.429  0.00  0.00    +0.000 HD
ENDBRANCH  29  31
ENDBRANCH  28  29
ENDBRANCH  26  28
ENDBRANCH  23  24
ENDBRANCH  22  23
ENDBRANCH   3  22
TORSDOF 7
ENDMDL
