MODEL 1
REMARK VINA RESULT:      -7.4      0.000      0.000
REMARK  Name = 
REMARK  11 active torsions:
REMARK  status: ('A' for Active; 'I' for Inactive)
REMARK    1  A    between atoms: C_1  and  C_2
REMARK    2  A    between atoms: C_2  and  C_3
REMARK    3  A    between atoms: C_3  and  C_4
REMARK    4  A    between atoms: C_4  and  N_5
REMARK    5  A    between atoms: C_7  and  C_8
REMARK    6  A    between atoms: C_9  and  C_10
REMARK    7  A    between atoms: C_9  and  C_11
REMARK    8  A    between atoms: C_15  and  O_16
REMARK    9  A    between atoms: C_19  and  C_20
REMARK   10  A    between atoms: C_20  and  C_21
REMARK   11  A    between atoms: C_21  and  C_22
REMARK                            x       y       z     vdW  Elec       q    Type
REMARK                         _______ _______ _______ _____ _____    ______ ____
ROOT
ATOM      1  N   UNL     1       3.082   4.073  18.710  0.00  0.00    +0.000 NA
ATOM      2  C   UNL     1       4.305   3.626  18.015  0.00  0.00    +0.000 C 
ATOM      3  C   UNL     1       4.640   4.450  16.758  0.00  0.00    +0.000 C 
ATOM      4  C   UNL     1       5.838   3.846  16.014  0.00  0.00    +0.000 C 
ATOM      5  C   UNL     1       4.760   5.987  17.050  0.00  0.00    +0.000 C 
ATOM      6  C   UNL     1       4.564   6.724  15.686  0.00  0.00    +0.000 C 
ATOM      7  C   UNL     1       3.536   6.426  17.923  0.00  0.00    +0.000 C 
ATOM      8  C   UNL     1       3.203   5.494  19.107  0.00  0.00    +0.000 C 
ENDROOT
BRANCH   5   9
ATOM      9  C   UNL     1       6.117   6.376  17.714  0.00  0.00    +0.000 A 
ATOM     10  C   UNL     1       6.871   7.491  17.299  0.00  0.00    +0.000 A 
ATOM     11  C   UNL     1       8.067   7.876  17.912  0.00  0.00    +0.000 A 
ATOM     12  C   UNL     1       8.561   7.154  18.981  0.00  0.00    +0.000 A 
ATOM     13  C   UNL     1       7.847   6.048  19.416  0.00  0.00    +0.000 A 
ATOM     14  C   UNL     1       6.656   5.655  18.797  0.00  0.00    +0.000 A 
BRANCH  13  15
ATOM     15  O   UNL     1       8.282   5.305  20.475  0.00  0.00    +0.000 OA
ATOM     16  H   UNL     1       9.087   5.722  20.832  0.00  0.00    +0.000 HD
ENDBRANCH  13  15
ENDBRANCH   5   9
BRANCH   1  17
ATOM     17  C   UNL     1       1.851   3.746  17.966  0.00  0.00    +0.000 C 
BRANCH  17  18
ATOM     18  C   UNL     1       1.031   2.639  18.655  0.00  0.00    +0.000 C 
BRANCH  18  20
ATOM     19  C   UNL     1       1.479   2.541  21.115  0.00  0.00    +0.000 C 
ATOM     20  C   UNL     1       0.536   3.056  20.037  0.00  0.00    +0.000 C 
ENDBRANCH  18  20
ENDBRANCH  17  18
ENDBRANCH   1  17
BRANCH   8  21
ATOM     21  C   UNL     1       2.037   6.067  19.950  0.00  0.00    +0.000 C 
BRANCH  21  22
ATOM     22  C   UNL     1       2.008   7.601  19.931  0.00  0.00    +0.000 C 
ATOM     23  C   UNL     1       1.268   8.172  21.129  0.00  0.00    +0.000 C 
ENDBRANCH  21  22
ENDBRANCH   8  21
TORSDOF 7
ENDMDL
MODEL 2
REMARK VINA RESULT:      -7.4      2.246      5.805
REMARK  Name = 
REMARK  11 active torsions:
REMARK  status: ('A' for Active; 'I' for Inactive)
REMARK    1  A    between atoms: C_1  and  C_2
REMARK    2  A    between atoms: C_2  and  C_3
REMARK    3  A    between atoms: C_3  and  C_4
REMARK    4  A    between atoms: C_4  and  N_5
REMARK    5  A    between atoms: C_7  and  C_8
REMARK    6  A    between atoms: C_9  and  C_10
REMARK    7  A    between atoms: C_9  and  C_11
REMARK    8  A    between atoms: C_15  and  O_16
REMARK    9  A    between atoms: C_19  and  C_20
REMARK   10  A    between atoms: C_20  and  C_21
REMARK   11  A    between atoms: C_21  and  C_22
REMARK                            x       y       z     vdW  Elec       q    Type
REMARK                         _______ _______ _______ _____ _____    ______ ____
ROOT
ATOM      1  N   UNL     1       5.914   5.509  16.510  0.00  0.00    +0.000 NA
ATOM      2  C   UNL     1       4.523   5.029  16.387  0.00  0.00    +0.000 C 
ATOM      3  C   UNL     1       4.163   3.911  17.383  0.00  0.00    +0.000 C 
ATOM      4  C   UNL     1       2.755   3.369  17.106  0.00  0.00    +0.000 C 
ATOM      5  C   UNL     1       4.426   4.316  18.876  0.00  0.00    +0.000 C 
ATOM      6  C   UNL     1       4.539   2.988  19.691  0.00  0.00    +0.000 C 
ATOM      7  C   UNL     1       5.845   4.969  18.973  0.00  0.00    +0.000 C 
ATOM      8  C   UNL     1       6.168   6.009  17.880  0.00  0.00    +0.000 C 
ENDROOT
BRANCH   5   9
ATOM      9  C   UNL     1       3.317   5.245  19.458  0.00  0.00    +0.000 A 
ATOM     10  C   UNL     1       2.473   4.847  20.514  0.00  0.00    +0.000 A 
ATOM     11  C   UNL     1       1.503   5.685  21.074  0.00  0.00    +0.000 A 
ATOM     12  C   UNL     1       1.340   6.971  20.597  0.00  0.00    +0.000 A 
ATOM     13  C   UNL     1       2.151   7.397  19.557  0.00  0.00    +0.000 A 
ATOM     14  C   UNL     1       3.114   6.557  18.988  0.00  0.00    +0.000 A 
BRANCH  13  15
ATOM     15  O   UNL     1       2.041   8.661  19.054  0.00  0.00    +0.000 OA
ATOM     16  H   UNL     1       2.861   8.872  18.572  0.00  0.00    +0.000 HD
ENDBRANCH  13  15
ENDBRANCH   5   9
BRANCH   1  17
ATOM     17  C   UNL     1       6.902   4.529  16.021  0.00  0.00    +0.000 C 
BRANCH  17  18
ATOM     18  C   UNL     1       6.383   3.738  14.805  0.00  0.00    +0.000 C 
BRANCH  18  20
ATOM     19  C   UNL     1       6.324   3.518  12.313  0.00  0.00    +0.000 C 
ATOM     20  C   UNL     1       6.766   4.390  13.480  0.00  0.00    +0.000 C 
ENDBRANCH  18  20
ENDBRANCH  17  18
ENDBRANCH   1  17
BRANCH   8  21
ATOM     21  C   UNL     1       7.557   6.653  18.123  0.00  0.00    +0.000 C 
BRANCH  21  22
ATOM     22  C   UNL     1       7.723   7.975  17.362  0.00  0.00    +0.000 C 
ATOM     23  C   UNL     1       8.361   9.051  18.223  0.00  0.00    +0.000 C 
ENDBRANCH  21  22
ENDBRANCH   8  21
TORSDOF 7
ENDMDL
MODEL 3
REMARK VINA RESULT:      -7.1      2.411      5.755
REMARK  Name = 
REMARK  11 active torsions:
REMARK  status: ('A' for Active; 'I' for Inactive)
REMARK    1  A    between atoms: C_1  and  C_2
REMARK    2  A    between atoms: C_2  and  C_3
REMARK    3  A    between atoms: C_3  and  C_4
REMARK    4  A    between atoms: C_4  and  N_5
REMARK    5  A    between atoms: C_7  and  C_8
REMARK    6  A    between atoms: C_9  and  C_10
REMARK    7  A    between atoms: C_9  and  C_11
REMARK    8  A    between atoms: C_15  and  O_16
REMARK    9  A    between atoms: C_19  and  C_20
REMARK   10  A    between atoms: C_20  and  C_21
REMARK   11  A    between atoms: C_21  and  C_22
REMARK                            x       y       z     vdW  Elec       q    Type
REMARK                         _______ _______ _______ _____ _____    ______ ____
ROOT
ATOM      1  N   UNL     1       5.676   5.538  16.598  0.00  0.00    +0.000 NA
ATOM      2  C   UNL     1       4.224   5.314  16.443  0.00  0.00    +0.000 C 
ATOM      3  C   UNL     1       3.574   4.605  17.645  0.00  0.00    +0.000 C 
ATOM      4  C   UNL     1       2.101   4.284  17.357  0.00  0.00    +0.000 C 
ATOM      5  C   UNL     1       3.825   5.352  19.002  0.00  0.00    +0.000 C 
ATOM      6  C   UNL     1       3.603   4.306  20.142  0.00  0.00    +0.000 C 
ATOM      7  C   UNL     1       5.343   5.726  19.092  0.00  0.00    +0.000 C 
ATOM      8  C   UNL     1       5.947   6.341  17.812  0.00  0.00    +0.000 C 
ENDROOT
BRANCH   5   9
ATOM      9  C   UNL     1       2.907   6.598  19.190  0.00  0.00    +0.000 A 
ATOM     10  C   UNL     1       2.188   6.837  20.378  0.00  0.00    +0.000 A 
ATOM     11  C   UNL     1       1.394   7.971  20.577  0.00  0.00    +0.000 A 
ATOM     12  C   UNL     1       1.290   8.926  19.584  0.00  0.00    +0.000 A 
ATOM     13  C   UNL     1       1.983   8.724  18.400  0.00  0.00    +0.000 A 
ATOM     14  C   UNL     1       2.767   7.584  18.195  0.00  0.00    +0.000 A 
BRANCH  13  15
ATOM     15  O   UNL     1       1.925   9.640  17.389  0.00  0.00    +0.000 OA
ATOM     16  H   UNL     1       1.843   9.160  16.545  0.00  0.00    +0.000 HD
ENDBRANCH  13  15
ENDBRANCH   5   9
BRANCH   1  17
ATOM     17  C   UNL     1       6.459   4.292  16.499  0.00  0.00    +0.000 C 
BRANCH  17  18
ATOM     18  C   UNL     1       6.143   3.508  15.212  0.00  0.00    +0.000 C 
BRANCH  18  20
ATOM     19  C   UNL     1       6.082   3.524  12.710  0.00  0.00    +0.000 C 
ATOM     20  C   UNL     1       6.553   4.266  13.953  0.00  0.00    +0.000 C 
ENDBRANCH  18  20
ENDBRANCH  17  18
ENDBRANCH   1  17
BRANCH   8  21
ATOM     21  C   UNL     1       7.423   6.752  18.040  0.00  0.00    +0.000 C 
BRANCH  21  22
ATOM     22  C   UNL     1       7.746   8.118  17.421  0.00  0.00    +0.000 C 
ATOM     23  C   UNL     1       8.466   9.031  18.398  0.00  0.00    +0.000 C 
ENDBRANCH  21  22
ENDBRANCH   8  21
TORSDOF 7
ENDMDL
MODEL 4
REMARK VINA RESULT:      -7.1      1.978      3.092
REMARK  Name = 
REMARK  11 active torsions:
REMARK  status: ('A' for Active; 'I' for Inactive)
REMARK    1  A    between atoms: C_1  and  C_2
REMARK    2  A    between atoms: C_2  and  C_3
REMARK    3  A    between atoms: C_3  and  C_4
REMARK    4  A    between atoms: C_4  and  N_5
REMARK    5  A    between atoms: C_7  and  C_8
REMARK    6  A    between atoms: C_9  and  C_10
REMARK    7  A    between atoms: C_9  and  C_11
REMARK    8  A    between atoms: C_15  and  O_16
REMARK    9  A    between atoms: C_19  and  C_20
REMARK   10  A    between atoms: C_20  and  C_21
REMARK   11  A    between atoms: C_21  and  C_22
REMARK                            x       y       z     vdW  Elec       q    Type
REMARK                         _______ _______ _______ _____ _____    ______ ____
ROOT
ATOM      1  N   UNL     1       3.344   5.471  20.184  0.00  0.00    +0.000 NA
ATOM      2  C   UNL     1       4.238   4.323  19.933  0.00  0.00    +0.000 C 
ATOM      3  C   UNL     1       3.730   3.369  18.837  0.00  0.00    +0.000 C 
ATOM      4  C   UNL     1       4.635   2.134  18.728  0.00  0.00    +0.000 C 
ATOM      5  C   UNL     1       3.453   4.097  17.475  0.00  0.00    +0.000 C 
ATOM      6  C   UNL     1       2.478   3.184  16.665  0.00  0.00    +0.000 C 
ATOM      7  C   UNL     1       2.634   5.400  17.764  0.00  0.00    +0.000 C 
ATOM      8  C   UNL     1       3.149   6.254  18.942  0.00  0.00    +0.000 C 
ENDROOT
BRANCH   5   9
ATOM      9  C   UNL     1       4.754   4.395  16.668  0.00  0.00    +0.000 A 
ATOM     10  C   UNL     1       5.093   3.694  15.494  0.00  0.00    +0.000 A 
ATOM     11  C   UNL     1       6.234   3.978  14.737  0.00  0.00    +0.000 A 
ATOM     12  C   UNL     1       7.090   4.990  15.128  0.00  0.00    +0.000 A 
ATOM     13  C   UNL     1       6.789   5.700  16.279  0.00  0.00    +0.000 A 
ATOM     14  C   UNL     1       5.655   5.410  17.044  0.00  0.00    +0.000 A 
BRANCH  13  15
ATOM     15  O   UNL     1       7.593   6.717  16.706  0.00  0.00    +0.000 OA
ATOM     16  H   UNL     1       7.039   7.506  16.850  0.00  0.00    +0.000 HD
ENDBRANCH  13  15
ENDBRANCH   5   9
BRANCH   1  17
ATOM     17  C   UNL     1       2.096   5.084  20.868  0.00  0.00    +0.000 C 
BRANCH  17  18
ATOM     18  C   UNL     1       2.274   3.819  21.728  0.00  0.00    +0.000 C 
BRANCH  18  20
ATOM     19  C   UNL     1       0.598   3.049  20.037  0.00  0.00    +0.000 C 
ATOM     20  C   UNL     1       1.290   2.715  21.351  0.00  0.00    +0.000 C 
ENDBRANCH  18  20
ENDBRANCH  17  18
ENDBRANCH   1  17
BRANCH   8  21
ATOM     21  C   UNL     1       2.323   7.557  19.083  0.00  0.00    +0.000 C 
BRANCH  21  22
ATOM     22  C   UNL     1       2.391   8.425  17.819  0.00  0.00    +0.000 C 
ATOM     23  C   UNL     1       1.468   9.629  17.904  0.00  0.00    +0.000 C 
ENDBRANCH  21  22
ENDBRANCH   8  21
TORSDOF 7
ENDMDL
MODEL 5
REMARK VINA RESULT:      -7.0      2.185      4.232
REMARK  Name = 
REMARK  11 active torsions:
REMARK  status: ('A' for Active; 'I' for Inactive)
REMARK    1  A    between atoms: C_1  and  C_2
REMARK    2  A    between atoms: C_2  and  C_3
REMARK    3  A    between atoms: C_3  and  C_4
REMARK    4  A    between atoms: C_4  and  N_5
REMARK    5  A    between atoms: C_7  and  C_8
REMARK    6  A    between atoms: C_9  and  C_10
REMARK    7  A    between atoms: C_9  and  C_11
REMARK    8  A    between atoms: C_15  and  O_16
REMARK    9  A    between atoms: C_19  and  C_20
REMARK   10  A    between atoms: C_20  and  C_21
REMARK   11  A    between atoms: C_21  and  C_22
REMARK                            x       y       z     vdW  Elec       q    Type
REMARK                         _______ _______ _______ _____ _____    ______ ____
ROOT
ATOM      1  N   UNL     1       3.311   4.686  18.896  0.00  0.00    +0.000 NA
ATOM      2  C   UNL     1       3.319   5.678  17.803  0.00  0.00    +0.000 C 
ATOM      3  C   UNL     1       4.609   6.514  17.732  0.00  0.00    +0.000 C 
ATOM      4  C   UNL     1       4.490   7.611  16.666  0.00  0.00    +0.000 C 
ATOM      5  C   UNL     1       5.902   5.632  17.619  0.00  0.00    +0.000 C 
ATOM      6  C   UNL     1       7.099   6.522  18.087  0.00  0.00    +0.000 C 
ATOM      7  C   UNL     1       5.817   4.484  18.681  0.00  0.00    +0.000 C 
ATOM      8  C   UNL     1       4.458   3.758  18.759  0.00  0.00    +0.000 C 
ENDROOT
BRANCH   5   9
ATOM      9  C   UNL     1       6.137   5.077  16.181  0.00  0.00    +0.000 A 
ATOM     10  C   UNL     1       5.301   4.103  15.600  0.00  0.00    +0.000 A 
ATOM     11  C   UNL     1       5.474   3.627  14.297  0.00  0.00    +0.000 A 
ATOM     12  C   UNL     1       6.500   4.115  13.511  0.00  0.00    +0.000 A 
ATOM     13  C   UNL     1       7.344   5.074  14.050  0.00  0.00    +0.000 A 
ATOM     14  C   UNL     1       7.180   5.542  15.358  0.00  0.00    +0.000 A 
BRANCH  13  15
ATOM     15  O   UNL     1       8.368   5.599  13.316  0.00  0.00    +0.000 OA
ATOM     16  H   UNL     1       9.156   5.040  13.445  0.00  0.00    +0.000 HD
ENDBRANCH  13  15
ENDBRANCH   5   9
BRANCH   1  17
ATOM     17  C   UNL     1       3.180   5.306  20.228  0.00  0.00    +0.000 C 
BRANCH  17  18
ATOM     18  C   UNL     1       1.765   5.132  20.812  0.00  0.00    +0.000 C 
BRANCH  18  20
ATOM     19  C   UNL     1       1.267   2.749  21.392  0.00  0.00    +0.000 C 
ATOM     20  C   UNL     1       1.096   3.843  20.345  0.00  0.00    +0.000 C 
ENDBRANCH  18  20
ENDBRANCH  17  18
ENDBRANCH   1  17
BRANCH   8  21
ATOM     21  C   UNL     1       4.513   2.590  19.775  0.00  0.00    +0.000 C 
BRANCH  21  22
ATOM     22  C   UNL     1       3.866   1.312  19.224  0.00  0.00    +0.000 C 
ATOM     23  C   UNL     1       3.288   1.519  17.834  0.00  0.00    +0.000 C 
ENDBRANCH  21  22
ENDBRANCH   8  21
TORSDOF 7
ENDMDL
MODEL 6
REMARK VINA RESULT:      -6.9      2.350      3.316
REMARK  Name = 
REMARK  11 active torsions:
REMARK  status: ('A' for Active; 'I' for Inactive)
REMARK    1  A    between atoms: C_1  and  C_2
REMARK    2  A    between atoms: C_2  and  C_3
REMARK    3  A    between atoms: C_3  and  C_4
REMARK    4  A    between atoms: C_4  and  N_5
REMARK    5  A    between atoms: C_7  and  C_8
REMARK    6  A    between atoms: C_9  and  C_10
REMARK    7  A    between atoms: C_9  and  C_11
REMARK    8  A    between atoms: C_15  and  O_16
REMARK    9  A    between atoms: C_19  and  C_20
REMARK   10  A    between atoms: C_20  and  C_21
REMARK   11  A    between atoms: C_21  and  C_22
REMARK                            x       y       z     vdW  Elec       q    Type
REMARK                         _______ _______ _______ _____ _____    ______ ____
ROOT
ATOM      1  N   UNL     1       3.328   5.533  20.198  0.00  0.00    +0.000 NA
ATOM      2  C   UNL     1       4.244   4.401  19.953  0.00  0.00    +0.000 C 
ATOM      3  C   UNL     1       3.750   3.425  18.870  0.00  0.00    +0.000 C 
ATOM      4  C   UNL     1       4.680   2.209  18.768  0.00  0.00    +0.000 C 
ATOM      5  C   UNL     1       3.450   4.134  17.502  0.00  0.00    +0.000 C 
ATOM      6  C   UNL     1       2.490   3.192  16.706  0.00  0.00    +0.000 C 
ATOM      7  C   UNL     1       2.606   5.422  17.783  0.00  0.00    +0.000 C 
ATOM      8  C   UNL     1       3.109   6.298  18.950  0.00  0.00    +0.000 C 
ENDROOT
BRANCH   5   9
ATOM      9  C   UNL     1       4.740   4.451  16.685  0.00  0.00    +0.000 A 
ATOM     10  C   UNL     1       5.710   5.372  17.128  0.00  0.00    +0.000 A 
ATOM     11  C   UNL     1       6.890   5.634  16.426  0.00  0.00    +0.000 A 
ATOM     12  C   UNL     1       7.153   4.975  15.241  0.00  0.00    +0.000 A 
ATOM     13  C   UNL     1       6.220   4.063  14.773  0.00  0.00    +0.000 A 
ATOM     14  C   UNL     1       5.033   3.807  15.467  0.00  0.00    +0.000 A 
BRANCH  13  15
ATOM     15  O   UNL     1       6.433   3.375  13.613  0.00  0.00    +0.000 OA
ATOM     16  H   UNL     1       5.594   3.340  13.119  0.00  0.00    +0.000 HD
ENDBRANCH  13  15
ENDBRANCH   5   9
BRANCH   1  17
ATOM     17  C   UNL     1       2.092   5.126  20.893  0.00  0.00    +0.000 C 
BRANCH  17  18
ATOM     18  C   UNL     1       2.273   3.815  21.681  0.00  0.00    +0.000 C 
BRANCH  18  20
ATOM     19  C   UNL     1       0.622   3.038  19.969  0.00  0.00    +0.000 C 
ATOM     20  C   UNL     1       1.194   2.787  21.357  0.00  0.00    +0.000 C 
ENDBRANCH  18  20
ENDBRANCH  17  18
ENDBRANCH   1  17
BRANCH   8  21
ATOM     21  C   UNL     1       2.256   7.585  19.082  0.00  0.00    +0.000 C 
BRANCH  21  22
ATOM     22  C   UNL     1       2.322   8.456  17.820  0.00  0.00    +0.000 C 
ATOM     23  C   UNL     1       1.470   9.707  17.945  0.00  0.00    +0.000 C 
ENDBRANCH  21  22
ENDBRANCH   8  21
TORSDOF 7
ENDMDL
MODEL 7
REMARK VINA RESULT:      -6.9      2.310      4.316
REMARK  Name = 
REMARK  11 active torsions:
REMARK  status: ('A' for Active; 'I' for Inactive)
REMARK    1  A    between atoms: C_1  and  C_2
REMARK    2  A    between atoms: C_2  and  C_3
REMARK    3  A    between atoms: C_3  and  C_4
REMARK    4  A    between atoms: C_4  and  N_5
REMARK    5  A    between atoms: C_7  and  C_8
REMARK    6  A    between atoms: C_9  and  C_10
REMARK    7  A    between atoms: C_9  and  C_11
REMARK    8  A    between atoms: C_15  and  O_16
REMARK    9  A    between atoms: C_19  and  C_20
REMARK   10  A    between atoms: C_20  and  C_21
REMARK   11  A    between atoms: C_21  and  C_22
REMARK                            x       y       z     vdW  Elec       q    Type
REMARK                         _______ _______ _______ _____ _____    ______ ____
ROOT
ATOM      1  N   UNL     1       3.600   5.506  17.973  0.00  0.00    +0.000 NA
ATOM      2  C   UNL     1       4.487   6.496  17.331  0.00  0.00    +0.000 C 
ATOM      3  C   UNL     1       5.985   6.242  17.582  0.00  0.00    +0.000 C 
ATOM      4  C   UNL     1       6.835   7.382  17.004  0.00  0.00    +0.000 C 
ATOM      5  C   UNL     1       6.441   4.804  17.150  0.00  0.00    +0.000 C 
ATOM      6  C   UNL     1       7.766   4.500  17.920  0.00  0.00    +0.000 C 
ATOM      7  C   UNL     1       5.408   3.766  17.704  0.00  0.00    +0.000 C 
ATOM      8  C   UNL     1       3.924   4.140  17.501  0.00  0.00    +0.000 C 
ENDROOT
BRANCH   5   9
ATOM      9  C   UNL     1       6.636   4.664  15.610  0.00  0.00    +0.000 A 
ATOM     10  C   UNL     1       5.789   3.874  14.808  0.00  0.00    +0.000 A 
ATOM     11  C   UNL     1       5.926   3.773  13.420  0.00  0.00    +0.000 A 
ATOM     12  C   UNL     1       6.926   4.470  12.770  0.00  0.00    +0.000 A 
ATOM     13  C   UNL     1       7.780   5.257  13.527  0.00  0.00    +0.000 A 
ATOM     14  C   UNL     1       7.652   5.350  14.916  0.00  0.00    +0.000 A 
BRANCH  13  15
ATOM     15  O   UNL     1       8.779   5.976  12.936  0.00  0.00    +0.000 OA
ATOM     16  H   UNL     1       9.447   6.185  13.613  0.00  0.00    +0.000 HD
ENDBRANCH  13  15
ENDBRANCH   5   9
BRANCH   1  17
ATOM     17  C   UNL     1       3.549   5.652  19.440  0.00  0.00    +0.000 C 
BRANCH  17  18
ATOM     18  C   UNL     1       2.257   6.347  19.909  0.00  0.00    +0.000 C 
BRANCH  18  20
ATOM     19  C   UNL     1       2.290   4.310  21.364  0.00  0.00    +0.000 C 
ATOM     20  C   UNL     1       1.451   5.485  20.877  0.00  0.00    +0.000 C 
ENDBRANCH  18  20
ENDBRANCH  17  18
ENDBRANCH   1  17
BRANCH   8  21
ATOM     21  C   UNL     1       2.995   3.008  18.005  0.00  0.00    +0.000 C 
BRANCH  21  22
ATOM     22  C   UNL     1       1.511   3.356  17.833  0.00  0.00    +0.000 C 
ATOM     23  C   UNL     1       0.625   2.563  18.779  0.00  0.00    +0.000 C 
ENDBRANCH  21  22
ENDBRANCH   8  21
TORSDOF 7
ENDMDL
MODEL 8
REMARK VINA RESULT:      -6.8      2.389      5.699
REMARK  Name = 
REMARK  11 active torsions:
REMARK  status: ('A' for Active; 'I' for Inactive)
REMARK    1  A    between atoms: C_1  and  C_2
REMARK    2  A    between atoms: C_2  and  C_3
REMARK    3  A    between atoms: C_3  and  C_4
REMARK    4  A    between atoms: C_4  and  N_5
REMARK    5  A    between atoms: C_7  and  C_8
REMARK    6  A    between atoms: C_9  and  C_10
REMARK    7  A    between atoms: C_9  and  C_11
REMARK    8  A    between atoms: C_15  and  O_16
REMARK    9  A    between atoms: C_19  and  C_20
REMARK   10  A    between atoms: C_20  and  C_21
REMARK   11  A    between atoms: C_21  and  C_22
REMARK                            x       y       z     vdW  Elec       q    Type
REMARK                         _______ _______ _______ _____ _____    ______ ____
ROOT
ATOM      1  N   UNL     1       5.206   5.275  16.915  0.00  0.00    +0.000 NA
ATOM      2  C   UNL     1       3.741   5.238  16.738  0.00  0.00    +0.000 C 
ATOM      3  C   UNL     1       2.983   4.679  17.956  0.00  0.00    +0.000 C 
ATOM      4  C   UNL     1       1.485   4.542  17.650  0.00  0.00    +0.000 C 
ATOM      5  C   UNL     1       3.309   5.449  19.284  0.00  0.00    +0.000 C 
ATOM      6  C   UNL     1       2.931   4.496  20.463  0.00  0.00    +0.000 C 
ATOM      7  C   UNL     1       4.862   5.623  19.390  0.00  0.00    +0.000 C 
ATOM      8  C   UNL     1       5.562   6.092  18.098  0.00  0.00    +0.000 C 
ENDROOT
BRANCH   5   9
ATOM      9  C   UNL     1       2.562   6.813  19.396  0.00  0.00    +0.000 A 
ATOM     10  C   UNL     1       2.474   7.718  18.320  0.00  0.00    +0.000 A 
ATOM     11  C   UNL     1       1.772   8.926  18.393  0.00  0.00    +0.000 A 
ATOM     12  C   UNL     1       1.120   9.278  19.559  0.00  0.00    +0.000 A 
ATOM     13  C   UNL     1       1.186   8.413  20.640  0.00  0.00    +0.000 A 
ATOM     14  C   UNL     1       1.898   7.210  20.573  0.00  0.00    +0.000 A 
BRANCH  13  15
ATOM     15  O   UNL     1       0.552   8.705  21.812  0.00  0.00    +0.000 OA
ATOM     16  H   UNL     1       0.811   8.040  22.475  0.00  0.00    +0.000 HD
ENDBRANCH  13  15
ENDBRANCH   5   9
BRANCH   1  17
ATOM     17  C   UNL     1       5.818   3.934  16.889  0.00  0.00    +0.000 C 
BRANCH  17  18
ATOM     18  C   UNL     1       5.971   3.393  15.455  0.00  0.00    +0.000 C 
BRANCH  18  20
ATOM     19  C   UNL     1       6.379   3.974  13.055  0.00  0.00    +0.000 C 
ATOM     20  C   UNL     1       6.540   4.436  14.498  0.00  0.00    +0.000 C 
ENDBRANCH  18  20
ENDBRANCH  17  18
ENDBRANCH   1  17
BRANCH   8  21
ATOM     21  C   UNL     1       7.076   6.315  18.340  0.00  0.00    +0.000 C 
BRANCH  21  22
ATOM     22  C   UNL     1       7.691   7.277  17.315  0.00  0.00    +0.000 C 
ATOM     23  C   UNL     1       8.006   8.633  17.923  0.00  0.00    +0.000 C 
ENDBRANCH  21  22
ENDBRANCH   8  21
TORSDOF 7
ENDMDL
MODEL 9
REMARK VINA RESULT:      -6.7      2.172      4.489
REMARK  Name = 
REMARK  11 active torsions:
REMARK  status: ('A' for Active; 'I' for Inactive)
REMARK    1  A    between atoms: C_1  and  C_2
REMARK    2  A    between atoms: C_2  and  C_3
REMARK    3  A    between atoms: C_3  and  C_4
REMARK    4  A    between atoms: C_4  and  N_5
REMARK    5  A    between atoms: C_7  and  C_8
REMARK    6  A    between atoms: C_9  and  C_10
REMARK    7  A    between atoms: C_9  and  C_11
REMARK    8  A    between atoms: C_15  and  O_16
REMARK    9  A    between atoms: C_19  and  C_20
REMARK   10  A    between atoms: C_20  and  C_21
REMARK   11  A    between atoms: C_21  and  C_22
REMARK                            x       y       z     vdW  Elec       q    Type
REMARK                         _______ _______ _______ _____ _____    ______ ____
ROOT
ATOM      1  N   UNL     1       3.125   5.916  17.895  0.00  0.00    +0.000 NA
ATOM      2  C   UNL     1       4.160   6.788  17.305  0.00  0.00    +0.000 C 
ATOM      3  C   UNL     1       5.598   6.383  17.676  0.00  0.00    +0.000 C 
ATOM      4  C   UNL     1       6.607   7.410  17.144  0.00  0.00    +0.000 C 
ATOM      5  C   UNL     1       5.926   4.894  17.307  0.00  0.00    +0.000 C 
ATOM      6  C   UNL     1       7.150   4.471  18.183  0.00  0.00    +0.000 C 
ATOM      7  C   UNL     1       4.748   3.987  17.799  0.00  0.00    +0.000 C 
ATOM      8  C   UNL     1       3.334   4.511  17.475  0.00  0.00    +0.000 C 
ENDROOT
BRANCH   5   9
ATOM      9  C   UNL     1       6.220   4.693  15.789  0.00  0.00    +0.000 A 
ATOM     10  C   UNL     1       5.372   3.947  14.946  0.00  0.00    +0.000 A 
ATOM     11  C   UNL     1       5.600   3.794  13.575  0.00  0.00    +0.000 A 
ATOM     12  C   UNL     1       6.696   4.391  12.984  0.00  0.00    +0.000 A 
ATOM     13  C   UNL     1       7.554   5.132  13.783  0.00  0.00    +0.000 A 
ATOM     14  C   UNL     1       7.335   5.276  15.156  0.00  0.00    +0.000 A 
BRANCH  13  15
ATOM     15  O   UNL     1       8.647   5.752  13.250  0.00  0.00    +0.000 OA
ATOM     16  H   UNL     1       8.405   6.673  13.041  0.00  0.00    +0.000 HD
ENDBRANCH  13  15
ENDBRANCH   5   9
BRANCH   1  17
ATOM     17  C   UNL     1       2.980   6.106  19.350  0.00  0.00    +0.000 C 
BRANCH  17  18
ATOM     18  C   UNL     1       2.255   7.421  19.695  0.00  0.00    +0.000 C 
BRANCH  18  20
ATOM     19  C   UNL     1       0.937   8.667  21.419  0.00  0.00    +0.000 C 
ATOM     20  C   UNL     1       1.370   7.291  20.931  0.00  0.00    +0.000 C 
ENDBRANCH  18  20
ENDBRANCH  17  18
ENDBRANCH   1  17
BRANCH   8  21
ATOM     21  C   UNL     1       2.252   3.498  17.927  0.00  0.00    +0.000 C 
BRANCH  21  22
ATOM     22  C   UNL     1       2.786   2.509  18.970  0.00  0.00    +0.000 C 
ATOM     23  C   UNL     1       1.999   2.570  20.269  0.00  0.00    +0.000 C 
ENDBRANCH  21  22
ENDBRANCH   8  21
TORSDOF 7
ENDMDL
