MODEL 1
REMARK VINA RESULT:      -8.5      0.000      0.000
REMARK  Name = 
REMARK  5 active torsions:
REMARK  status: ('A' for Active; 'I' for Inactive)
REMARK    1  A    between atoms: C_1  and  C_2
REMARK    2  A    between atoms: N_4  and  C_5
REMARK    3  A    between atoms: C_14  and  O_16
REMARK    4  A    between atoms: O_16  and  C_17
REMARK    5  A    between atoms: C_21  and  N_22
REMARK                            x       y       z     vdW  Elec       q    Type
REMARK                         _______ _______ _______ _____ _____    ______ ____
ROOT
ATOM      1  C   UNL     1      -0.695  10.624  18.386  0.00  0.00    +0.000 C 
ATOM      2  C   UNL     1       0.664  10.822  19.069  0.00  0.00    +0.000 C 
ATOM      3  C   UNL     1       1.062  12.314  19.114  0.00  0.00    +0.000 C 
ATOM      4  N   UNL     1       0.230  13.024  20.104  0.00  0.00    +0.000 N 
ATOM      5  C   UNL     1       0.325  12.482  21.469  0.00  0.00    +0.000 C 
ATOM      6  C   UNL     1      -0.058  10.992  21.457  0.00  0.00    +0.000 C 
ATOM      7  N   UNL     1       0.679  10.247  20.432  0.00  0.00    +0.000 N 
ATOM      8  C   UNL     1       1.138   8.978  20.716  0.00  0.00    +0.000 C 
ATOM      9  O   UNL     1       1.030   8.442  21.815  0.00  0.00    +0.000 OA
ENDROOT
BRANCH   4  10
ATOM     10  C   UNL     1      -0.302  14.268  19.828  0.00  0.00    +0.000 A 
ATOM     11  C   UNL     1      -1.310  14.821  20.634  0.00  0.00    +0.000 A 
ATOM     12  C   UNL     1      -1.832  16.098  20.405  0.00  0.00    +0.000 A 
ATOM     13  C   UNL     1      -1.351  16.863  19.352  0.00  0.00    +0.000 A 
ATOM     14  C   UNL     1      -0.353  16.346  18.533  0.00  0.00    +0.000 A 
ATOM     15  C   UNL     1       0.158  15.064  18.770  0.00  0.00    +0.000 A 
ENDBRANCH   4  10
BRANCH   8  16
ATOM     16  O   UNL     1       1.729   8.377  19.615  0.00  0.00    +0.000 OA
BRANCH  16  17
ATOM     17  C   UNL     1       2.157   7.039  19.699  0.00  0.00    +0.000 A 
ATOM     18  C   UNL     1       1.413   6.224  20.543  0.00  0.00    +0.000 A 
ATOM     19  C   UNL     1       1.868   4.940  20.805  0.00  0.00    +0.000 A 
ATOM     20  C   UNL     1       3.062   4.486  20.227  0.00  0.00    +0.000 A 
ATOM     21  C   UNL     1       3.830   5.290  19.367  0.00  0.00    +0.000 A 
ATOM     22  C   UNL     1       3.338   6.577  19.115  0.00  0.00    +0.000 A 
BRANCH  21  23
ATOM     23  N   UNL     1       5.029   4.858  18.823  0.00  0.00    +0.000 N 
ATOM     24  C   UNL     1       6.310   5.477  19.198  0.00  0.00    +0.000 C 
ATOM     25  C   UNL     1       6.878   6.253  18.032  0.00  0.00    +0.000 C 
ATOM     26  S   UNL     1       7.137   5.141  16.676  0.00  0.00    +0.000 S 
ATOM     27  O   UNL     1       7.395   5.936  15.489  0.00  0.00    +0.000 OA
ATOM     28  O   UNL     1       8.090   4.126  17.089  0.00  0.00    +0.000 OA
ATOM     29  C   UNL     1       5.549   4.376  16.485  0.00  0.00    +0.000 C 
ATOM     30  C   UNL     1       5.091   3.800  17.809  0.00  0.00    +0.000 C 
ENDBRANCH  21  23
ENDBRANCH  16  17
ENDBRANCH   8  16
TORSDOF 4
ENDMDL
MODEL 2
REMARK VINA RESULT:      -8.5      2.574      3.391
REMARK  Name = 
REMARK  5 active torsions:
REMARK  status: ('A' for Active; 'I' for Inactive)
REMARK    1  A    between atoms: C_1  and  C_2
REMARK    2  A    between atoms: N_4  and  C_5
REMARK    3  A    between atoms: C_14  and  O_16
REMARK    4  A    between atoms: O_16  and  C_17
REMARK    5  A    between atoms: C_21  and  N_22
REMARK                            x       y       z     vdW  Elec       q    Type
REMARK                         _______ _______ _______ _____ _____    ______ ____
ROOT
ATOM      1  C   UNL     1      -1.777  12.711  19.753  0.00  0.00    +0.000 C 
ATOM      2  C   UNL     1      -0.292  12.364  19.580  0.00  0.00    +0.000 C 
ATOM      3  C   UNL     1       0.477  13.506  18.880  0.00  0.00    +0.000 C 
ATOM      4  N   UNL     1       0.639  14.642  19.805  0.00  0.00    +0.000 N 
ATOM      5  C   UNL     1       1.349  14.307  21.050  0.00  0.00    +0.000 C 
ATOM      6  C   UNL     1       0.612  13.165  21.770  0.00  0.00    +0.000 C 
ATOM      7  N   UNL     1       0.347  12.035  20.874  0.00  0.00    +0.000 N 
ATOM      8  C   UNL     1       0.482  10.748  21.348  0.00  0.00    +0.000 C 
ATOM      9  O   UNL     1       0.885  10.473  22.474  0.00  0.00    +0.000 OA
ENDROOT
BRANCH   4  10
ATOM     10  C   UNL     1       0.445  15.942  19.382  0.00  0.00    +0.000 A 
ATOM     11  C   UNL     1      -0.390  16.233  18.291  0.00  0.00    +0.000 A 
ATOM     12  C   UNL     1      -0.641  17.543  17.872  0.00  0.00    +0.000 A 
ATOM     13  C   UNL     1      -0.057  18.608  18.544  0.00  0.00    +0.000 A 
ATOM     14  C   UNL     1       0.775  18.356  19.628  0.00  0.00    +0.000 A 
ATOM     15  C   UNL     1       1.023  17.039  20.035  0.00  0.00    +0.000 A 
ENDBRANCH   4  10
BRANCH   8  16
ATOM     16  O   UNL     1       0.106   9.801  20.406  0.00  0.00    +0.000 OA
BRANCH  16  17
ATOM     17  C   UNL     1       1.093   9.048  19.745  0.00  0.00    +0.000 A 
ATOM     18  C   UNL     1       1.476   9.526  18.498  0.00  0.00    +0.000 A 
ATOM     19  C   UNL     1       2.321   8.751  17.715  0.00  0.00    +0.000 A 
ATOM     20  C   UNL     1       2.768   7.508  18.183  0.00  0.00    +0.000 A 
ATOM     21  C   UNL     1       2.398   7.005  19.442  0.00  0.00    +0.000 A 
ATOM     22  C   UNL     1       1.554   7.815  20.212  0.00  0.00    +0.000 A 
BRANCH  21  23
ATOM     23  N   UNL     1       2.809   5.761  19.893  0.00  0.00    +0.000 N 
ATOM     24  C   UNL     1       4.087   5.172  19.464  0.00  0.00    +0.000 C 
ATOM     25  C   UNL     1       3.841   3.979  18.569  0.00  0.00    +0.000 C 
ATOM     26  S   UNL     1       2.909   2.769  19.471  0.00  0.00    +0.000 S 
ATOM     27  O   UNL     1       2.431   1.778  18.524  0.00  0.00    +0.000 OA
ATOM     28  O   UNL     1       3.688   2.354  20.623  0.00  0.00    +0.000 OA
ATOM     29  C   UNL     1       1.511   3.696  20.043  0.00  0.00    +0.000 C 
ATOM     30  C   UNL     1       1.978   4.936  20.777  0.00  0.00    +0.000 C 
ENDBRANCH  21  23
ENDBRANCH  16  17
ENDBRANCH   8  16
TORSDOF 4
ENDMDL
MODEL 3
REMARK VINA RESULT:      -8.5      1.537      2.426
REMARK  Name = 
REMARK  5 active torsions:
REMARK  status: ('A' for Active; 'I' for Inactive)
REMARK    1  A    between atoms: C_1  and  C_2
REMARK    2  A    between atoms: N_4  and  C_5
REMARK    3  A    between atoms: C_14  and  O_16
REMARK    4  A    between atoms: O_16  and  C_17
REMARK    5  A    between atoms: C_21  and  N_22
REMARK                            x       y       z     vdW  Elec       q    Type
REMARK                         _______ _______ _______ _____ _____    ______ ____
ROOT
ATOM      1  C   UNL     1       2.420  12.045  17.987  0.00  0.00    +0.000 C 
ATOM      2  C   UNL     1       1.715  12.059  19.350  0.00  0.00    +0.000 C 
ATOM      3  C   UNL     1       1.539  13.499  19.879  0.00  0.00    +0.000 C 
ATOM      4  N   UNL     1       0.496  14.195  19.103  0.00  0.00    +0.000 N 
ATOM      5  C   UNL     1      -0.818  13.532  19.130  0.00  0.00    +0.000 C 
ATOM      6  C   UNL     1      -0.676  12.090  18.615  0.00  0.00    +0.000 C 
ATOM      7  N   UNL     1       0.406  11.371  19.295  0.00  0.00    +0.000 N 
ATOM      8  C   UNL     1       0.230  10.046  19.633  0.00  0.00    +0.000 C 
ATOM      9  O   UNL     1      -0.818   9.430  19.462  0.00  0.00    +0.000 OA
ENDROOT
BRANCH   4  10
ATOM     10  C   UNL     1       0.667  15.501  18.689  0.00  0.00    +0.000 A 
ATOM     11  C   UNL     1       1.941  16.004  18.377  0.00  0.00    +0.000 A 
ATOM     12  C   UNL     1       2.135  17.307  17.910  0.00  0.00    +0.000 A 
ATOM     13  C   UNL     1       1.046  18.151  17.739  0.00  0.00    +0.000 A 
ATOM     14  C   UNL     1      -0.230  17.686  18.038  0.00  0.00    +0.000 A 
ATOM     15  C   UNL     1      -0.411  16.379  18.510  0.00  0.00    +0.000 A 
ENDBRANCH   4  10
BRANCH   8  16
ATOM     16  O   UNL     1       1.376   9.489  20.182  0.00  0.00    +0.000 OA
BRANCH  16  17
ATOM     17  C   UNL     1       1.691   8.144  19.919  0.00  0.00    +0.000 A 
ATOM     18  C   UNL     1       1.330   7.239  20.910  0.00  0.00    +0.000 A 
ATOM     19  C   UNL     1       1.752   5.922  20.799  0.00  0.00    +0.000 A 
ATOM     20  C   UNL     1       2.533   5.525  19.704  0.00  0.00    +0.000 A 
ATOM     21  C   UNL     1       2.907   6.420  18.687  0.00  0.00    +0.000 A 
ATOM     22  C   UNL     1       2.457   7.739  18.824  0.00  0.00    +0.000 A 
BRANCH  21  23
ATOM     23  N   UNL     1       3.710   6.039  17.624  0.00  0.00    +0.000 N 
ATOM     24  C   UNL     1       3.804   4.635  17.196  0.00  0.00    +0.000 C 
ATOM     25  C   UNL     1       5.177   4.083  17.508  0.00  0.00    +0.000 C 
ATOM     26  S   UNL     1       6.390   5.044  16.642  0.00  0.00    +0.000 S 
ATOM     27  O   UNL     1       7.695   4.699  17.176  0.00  0.00    +0.000 OA
ATOM     28  O   UNL     1       6.137   4.929  15.218  0.00  0.00    +0.000 OA
ATOM     29  C   UNL     1       6.013   6.700  17.148  0.00  0.00    +0.000 C 
ATOM     30  C   UNL     1       4.549   6.997  16.896  0.00  0.00    +0.000 C 
ENDBRANCH  21  23
ENDBRANCH  16  17
ENDBRANCH   8  16
TORSDOF 4
ENDMDL
MODEL 4
REMARK VINA RESULT:      -8.3      1.677      2.338
REMARK  Name = 
REMARK  5 active torsions:
REMARK  status: ('A' for Active; 'I' for Inactive)
REMARK    1  A    between atoms: C_1  and  C_2
REMARK    2  A    between atoms: N_4  and  C_5
REMARK    3  A    between atoms: C_14  and  O_16
REMARK    4  A    between atoms: O_16  and  C_17
REMARK    5  A    between atoms: C_21  and  N_22
REMARK                            x       y       z     vdW  Elec       q    Type
REMARK                         _______ _______ _______ _____ _____    ______ ____
ROOT
ATOM      1  C   UNL     1       1.199  11.804  21.127  0.00  0.00    +0.000 C 
ATOM      2  C   UNL     1       0.297  10.590  20.871  0.00  0.00    +0.000 C 
ATOM      3  C   UNL     1      -1.162  10.872  21.291  0.00  0.00    +0.000 C 
ATOM      4  N   UNL     1      -1.790  11.799  20.332  0.00  0.00    +0.000 N 
ATOM      5  C   UNL     1      -1.799  11.313  18.942  0.00  0.00    +0.000 C 
ATOM      6  C   UNL     1      -0.357  11.015  18.494  0.00  0.00    +0.000 C 
ATOM      7  N   UNL     1       0.347  10.161  19.455  0.00  0.00    +0.000 N 
ATOM      8  C   UNL     1       1.186   9.170  18.992  0.00  0.00    +0.000 C 
ATOM      9  O   UNL     1       1.335   8.900  17.804  0.00  0.00    +0.000 OA
ENDROOT
BRANCH   4  10
ATOM     10  C   UNL     1      -2.582  12.845  20.763  0.00  0.00    +0.000 A 
ATOM     11  C   UNL     1      -2.056  13.873  21.563  0.00  0.00    +0.000 A 
ATOM     12  C   UNL     1      -2.823  14.966  21.973  0.00  0.00    +0.000 A 
ATOM     13  C   UNL     1      -4.153  15.062  21.587  0.00  0.00    +0.000 A 
ATOM     14  C   UNL     1      -4.707  14.062  20.795  0.00  0.00    +0.000 A 
ATOM     15  C   UNL     1      -3.928  12.969  20.395  0.00  0.00    +0.000 A 
ENDBRANCH   4  10
BRANCH   8  16
ATOM     16  O   UNL     1       1.845   8.517  20.024  0.00  0.00    +0.000 OA
BRANCH  16  17
ATOM     17  C   UNL     1       2.147   7.149  19.900  0.00  0.00    +0.000 A 
ATOM     18  C   UNL     1       1.350   6.289  20.646  0.00  0.00    +0.000 A 
ATOM     19  C   UNL     1       1.689   4.945  20.705  0.00  0.00    +0.000 A 
ATOM     20  C   UNL     1       2.822   4.476  20.025  0.00  0.00    +0.000 A 
ATOM     21  C   UNL     1       3.642   5.324  19.261  0.00  0.00    +0.000 A 
ATOM     22  C   UNL     1       3.266   6.673  19.213  0.00  0.00    +0.000 A 
BRANCH  21  23
ATOM     23  N   UNL     1       4.782   4.871  18.619  0.00  0.00    +0.000 N 
ATOM     24  C   UNL     1       6.096   4.893  19.279  0.00  0.00    +0.000 C 
ATOM     25  C   UNL     1       6.995   5.918  18.625  0.00  0.00    +0.000 C 
ATOM     26  S   UNL     1       7.202   5.491  16.917  0.00  0.00    +0.000 S 
ATOM     27  O   UNL     1       7.810   6.625  16.245  0.00  0.00    +0.000 OA
ATOM     28  O   UNL     1       7.829   4.184  16.842  0.00  0.00    +0.000 OA
ATOM     29  C   UNL     1       5.532   5.347  16.342  0.00  0.00    +0.000 C 
ATOM     30  C   UNL     1       4.760   4.393  17.231  0.00  0.00    +0.000 C 
ENDBRANCH  21  23
ENDBRANCH  16  17
ENDBRANCH   8  16
TORSDOF 4
ENDMDL
MODEL 5
REMARK VINA RESULT:      -8.3      2.018      3.012
REMARK  Name = 
REMARK  5 active torsions:
REMARK  status: ('A' for Active; 'I' for Inactive)
REMARK    1  A    between atoms: C_1  and  C_2
REMARK    2  A    between atoms: N_4  and  C_5
REMARK    3  A    between atoms: C_14  and  O_16
REMARK    4  A    between atoms: O_16  and  C_17
REMARK    5  A    between atoms: C_21  and  N_22
REMARK                            x       y       z     vdW  Elec       q    Type
REMARK                         _______ _______ _______ _____ _____    ______ ____
ROOT
ATOM      1  C   UNL     1       0.963  13.560  19.670  0.00  0.00    +0.000 C 
ATOM      2  C   UNL     1       0.493  12.258  20.331  0.00  0.00    +0.000 C 
ATOM      3  C   UNL     1      -0.152  12.526  21.709  0.00  0.00    +0.000 C 
ATOM      4  N   UNL     1      -1.474  13.153  21.530  0.00  0.00    +0.000 N 
ATOM      5  C   UNL     1      -2.417  12.354  20.730  0.00  0.00    +0.000 C 
ATOM      6  C   UNL     1      -1.800  12.062  19.351  0.00  0.00    +0.000 C 
ATOM      7  N   UNL     1      -0.446  11.512  19.464  0.00  0.00    +0.000 N 
ATOM      8  C   UNL     1      -0.052  10.502  18.612  0.00  0.00    +0.000 C 
ATOM      9  O   UNL     1      -0.796   9.971  17.792  0.00  0.00    +0.000 OA
ENDROOT
BRANCH   4  10
ATOM     10  C   UNL     1      -1.876  14.212  22.321  0.00  0.00    +0.000 A 
ATOM     11  C   UNL     1      -1.707  15.540  21.897  0.00  0.00    +0.000 A 
ATOM     12  C   UNL     1      -2.148  16.627  22.656  0.00  0.00    +0.000 A 
ATOM     13  C   UNL     1      -2.777  16.411  23.874  0.00  0.00    +0.000 A 
ATOM     14  C   UNL     1      -2.961  15.109  24.325  0.00  0.00    +0.000 A 
ATOM     15  C   UNL     1      -2.511  14.028  23.557  0.00  0.00    +0.000 A 
ENDBRANCH   4  10
BRANCH   8  16
ATOM     16  O   UNL     1       1.281  10.160  18.786  0.00  0.00    +0.000 OA
BRANCH  16  17
ATOM     17  C   UNL     1       1.626   8.824  19.057  0.00  0.00    +0.000 A 
ATOM     18  C   UNL     1       1.267   8.356  20.315  0.00  0.00    +0.000 A 
ATOM     19  C   UNL     1       1.717   7.106  20.717  0.00  0.00    +0.000 A 
ATOM     20  C   UNL     1       2.523   6.341  19.862  0.00  0.00    +0.000 A 
ATOM     21  C   UNL     1       2.895   6.791  18.584  0.00  0.00    +0.000 A 
ATOM     22  C   UNL     1       2.417   8.051  18.204  0.00  0.00    +0.000 A 
BRANCH  21  23
ATOM     23  N   UNL     1       3.722   6.053  17.751  0.00  0.00    +0.000 N 
ATOM     24  C   UNL     1       3.744   4.583  17.796  0.00  0.00    +0.000 C 
ATOM     25  C   UNL     1       5.061   4.096  18.357  0.00  0.00    +0.000 C 
ATOM     26  S   UNL     1       6.375   4.673  17.315  0.00  0.00    +0.000 S 
ATOM     27  O   UNL     1       7.628   4.456  18.016  0.00  0.00    +0.000 OA
ATOM     28  O   UNL     1       6.185   4.121  15.986  0.00  0.00    +0.000 OA
ATOM     29  C   UNL     1       6.084   6.420  17.246  0.00  0.00    +0.000 C 
ATOM     30  C   UNL     1       4.657   6.689  16.816  0.00  0.00    +0.000 C 
ENDBRANCH  21  23
ENDBRANCH  16  17
ENDBRANCH   8  16
TORSDOF 4
ENDMDL
MODEL 6
REMARK VINA RESULT:      -8.2      1.119      1.701
REMARK  Name = 
REMARK  5 active torsions:
REMARK  status: ('A' for Active; 'I' for Inactive)
REMARK    1  A    between atoms: C_1  and  C_2
REMARK    2  A    between atoms: N_4  and  C_5
REMARK    3  A    between atoms: C_14  and  O_16
REMARK    4  A    between atoms: O_16  and  C_17
REMARK    5  A    between atoms: C_21  and  N_22
REMARK                            x       y       z     vdW  Elec       q    Type
REMARK                         _______ _______ _______ _____ _____    ______ ____
ROOT
ATOM      1  C   UNL     1       1.428  10.519  18.459  0.00  0.00    +0.000 C 
ATOM      2  C   UNL     1       1.509  10.649  19.986  0.00  0.00    +0.000 C 
ATOM      3  C   UNL     1       1.613  12.127  20.422  0.00  0.00    +0.000 C 
ATOM      4  N   UNL     1       0.315  12.799  20.229  0.00  0.00    +0.000 N 
ATOM      5  C   UNL     1      -0.799  12.180  20.966  0.00  0.00    +0.000 C 
ATOM      6  C   UNL     1      -0.925  10.702  20.559  0.00  0.00    +0.000 C 
ATOM      7  N   UNL     1       0.358   9.999  20.652  0.00  0.00    +0.000 N 
ATOM      8  C   UNL     1       0.390   8.706  21.131  0.00  0.00    +0.000 C 
ATOM      9  O   UNL     1      -0.595   8.112  21.560  0.00  0.00    +0.000 OA
ENDROOT
BRANCH   4  10
ATOM     10  C   UNL     1       0.240  14.068  19.689  0.00  0.00    +0.000 A 
ATOM     11  C   UNL     1      -0.943  14.821  19.763  0.00  0.00    +0.000 A 
ATOM     12  C   UNL     1      -1.030  16.125  19.267  0.00  0.00    +0.000 A 
ATOM     13  C   UNL     1       0.079  16.717  18.678  0.00  0.00    +0.000 A 
ATOM     14  C   UNL     1       1.267  16.000  18.588  0.00  0.00    +0.000 A 
ATOM     15  C   UNL     1       1.340  14.692  19.084  0.00  0.00    +0.000 A 
ENDBRANCH   4  10
BRANCH   8  16
ATOM     16  O   UNL     1       1.661   8.155  21.066  0.00  0.00    +0.000 OA
BRANCH  16  17
ATOM     17  C   UNL     1       1.880   7.003  20.289  0.00  0.00    +0.000 A 
ATOM     18  C   UNL     1       1.323   5.831  20.785  0.00  0.00    +0.000 A 
ATOM     19  C   UNL     1       1.633   4.628  20.165  0.00  0.00    +0.000 A 
ATOM     20  C   UNL     1       2.499   4.609  19.063  0.00  0.00    +0.000 A 
ATOM     21  C   UNL     1       3.072   5.782  18.540  0.00  0.00    +0.000 A 
ATOM     22  C   UNL     1       2.731   6.979  19.182  0.00  0.00    +0.000 A 
BRANCH  21  23
ATOM     23  N   UNL     1       3.957   5.763  17.475  0.00  0.00    +0.000 N 
ATOM     24  C   UNL     1       4.066   4.594  16.587  0.00  0.00    +0.000 C 
ATOM     25  C   UNL     1       5.399   3.908  16.786  0.00  0.00    +0.000 C 
ATOM     26  S   UNL     1       6.696   5.055  16.410  0.00  0.00    +0.000 S 
ATOM     27  O   UNL     1       7.946   4.488  16.884  0.00  0.00    +0.000 OA
ATOM     28  O   UNL     1       6.565   5.459  15.021  0.00  0.00    +0.000 OA
ATOM     29  C   UNL     1       6.303   6.445  17.437  0.00  0.00    +0.000 C 
ATOM     30  C   UNL     1       4.871   6.876  17.197  0.00  0.00    +0.000 C 
ENDBRANCH  21  23
ENDBRANCH  16  17
ENDBRANCH   8  16
TORSDOF 4
ENDMDL
MODEL 7
REMARK VINA RESULT:      -8.2      3.053      4.188
REMARK  Name = 
REMARK  5 active torsions:
REMARK  status: ('A' for Active; 'I' for Inactive)
REMARK    1  A    between atoms: C_1  and  C_2
REMARK    2  A    between atoms: N_4  and  C_5
REMARK    3  A    between atoms: C_14  and  O_16
REMARK    4  A    between atoms: O_16  and  C_17
REMARK    5  A    between atoms: C_21  and  N_22
REMARK                            x       y       z     vdW  Elec       q    Type
REMARK                         _______ _______ _______ _____ _____    ______ ____
ROOT
ATOM      1  C   UNL     1       0.373  13.405  21.459  0.00  0.00    +0.000 C 
ATOM      2  C   UNL     1      -0.449  12.189  21.907  0.00  0.00    +0.000 C 
ATOM      3  C   UNL     1      -1.434  12.559  23.038  0.00  0.00    +0.000 C 
ATOM      4  N   UNL     1      -2.542  13.365  22.494  0.00  0.00    +0.000 N 
ATOM      5  C   UNL     1      -3.302  12.699  21.423  0.00  0.00    +0.000 C 
ATOM      6  C   UNL     1      -2.346  12.310  20.282  0.00  0.00    +0.000 C 
ATOM      7  N   UNL     1      -1.178  11.575  20.775  0.00  0.00    +0.000 N 
ATOM      8  C   UNL     1      -0.690  10.511  20.046  0.00  0.00    +0.000 C 
ATOM      9  O   UNL     1      -1.219  10.082  19.025  0.00  0.00    +0.000 OA
ENDROOT
BRANCH   4  10
ATOM     10  C   UNL     1      -3.012  14.478  23.163  0.00  0.00    +0.000 A 
ATOM     11  C   UNL     1      -2.728  14.680  24.524  0.00  0.00    +0.000 A 
ATOM     12  C   UNL     1      -3.151  15.820  25.213  0.00  0.00    +0.000 A 
ATOM     13  C   UNL     1      -3.876  16.801  24.550  0.00  0.00    +0.000 A 
ATOM     14  C   UNL     1      -4.174  16.633  23.202  0.00  0.00    +0.000 A 
ATOM     15  C   UNL     1      -3.749  15.484  22.524  0.00  0.00    +0.000 A 
ENDBRANCH   4  10
BRANCH   8  16
ATOM     16  O   UNL     1       0.469   9.986  20.598  0.00  0.00    +0.000 OA
BRANCH  16  17
ATOM     17  C   UNL     1       1.300   9.162  19.817  0.00  0.00    +0.000 A 
ATOM     18  C   UNL     1       1.519   9.594  18.515  0.00  0.00    +0.000 A 
ATOM     19  C   UNL     1       2.190   8.755  17.636  0.00  0.00    +0.000 A 
ATOM     20  C   UNL     1       2.629   7.495  18.065  0.00  0.00    +0.000 A 
ATOM     21  C   UNL     1       2.422   7.037  19.377  0.00  0.00    +0.000 A 
ATOM     22  C   UNL     1       1.751   7.910  20.242  0.00  0.00    +0.000 A 
BRANCH  21  23
ATOM     23  N   UNL     1       2.821   5.777  19.794  0.00  0.00    +0.000 N 
ATOM     24  C   UNL     1       4.148   5.240  19.454  0.00  0.00    +0.000 C 
ATOM     25  C   UNL     1       4.015   4.096  18.474  0.00  0.00    +0.000 C 
ATOM     26  S   UNL     1       3.036   2.818  19.216  0.00  0.00    +0.000 S 
ATOM     27  O   UNL     1       2.672   1.873  18.175  0.00  0.00    +0.000 OA
ATOM     28  O   UNL     1       3.716   2.352  20.411  0.00  0.00    +0.000 OA
ATOM     29  C   UNL     1       1.568   3.681  19.707  0.00  0.00    +0.000 C 
ATOM     30  C   UNL     1       1.934   4.886  20.550  0.00  0.00    +0.000 C 
ENDBRANCH  21  23
ENDBRANCH  16  17
ENDBRANCH   8  16
TORSDOF 4
ENDMDL
MODEL 8
REMARK VINA RESULT:      -8.2      1.865      2.901
REMARK  Name = 
REMARK  5 active torsions:
REMARK  status: ('A' for Active; 'I' for Inactive)
REMARK    1  A    between atoms: C_1  and  C_2
REMARK    2  A    between atoms: N_4  and  C_5
REMARK    3  A    between atoms: C_14  and  O_16
REMARK    4  A    between atoms: O_16  and  C_17
REMARK    5  A    between atoms: C_21  and  N_22
REMARK                            x       y       z     vdW  Elec       q    Type
REMARK                         _______ _______ _______ _____ _____    ______ ____
ROOT
ATOM      1  C   UNL     1      -0.516  10.045  20.956  0.00  0.00    +0.000 C 
ATOM      2  C   UNL     1      -0.659  10.695  19.573  0.00  0.00    +0.000 C 
ATOM      3  C   UNL     1      -1.835  11.695  19.538  0.00  0.00    +0.000 C 
ATOM      4  N   UNL     1      -1.485  12.909  20.298  0.00  0.00    +0.000 N 
ATOM      5  C   UNL     1      -0.281  13.599  19.808  0.00  0.00    +0.000 C 
ATOM      6  C   UNL     1       0.911  12.626  19.823  0.00  0.00    +0.000 C 
ATOM      7  N   UNL     1       0.593  11.363  19.151  0.00  0.00    +0.000 N 
ATOM      8  C   UNL     1       1.546  10.758  18.359  0.00  0.00    +0.000 C 
ATOM      9  O   UNL     1       2.644  11.249  18.116  0.00  0.00    +0.000 OA
ENDROOT
BRANCH   4  10
ATOM     10  C   UNL     1      -2.392  13.503  21.153  0.00  0.00    +0.000 A 
ATOM     11  C   UNL     1      -2.862  12.832  22.294  0.00  0.00    +0.000 A 
ATOM     12  C   UNL     1      -3.743  13.429  23.200  0.00  0.00    +0.000 A 
ATOM     13  C   UNL     1      -4.181  14.729  22.986  0.00  0.00    +0.000 A 
ATOM     14  C   UNL     1      -3.736  15.422  21.866  0.00  0.00    +0.000 A 
ATOM     15  C   UNL     1      -2.856  14.812  20.963  0.00  0.00    +0.000 A 
ENDBRANCH   4  10
BRANCH   8  16
ATOM     16  O   UNL     1       1.121   9.530  17.875  0.00  0.00    +0.000 OA
BRANCH  16  17
ATOM     17  C   UNL     1       1.843   8.367  18.199  0.00  0.00    +0.000 A 
ATOM     18  C   UNL     1       1.591   7.837  19.458  0.00  0.00    +0.000 A 
ATOM     19  C   UNL     1       2.381   6.790  19.914  0.00  0.00    +0.000 A 
ATOM     20  C   UNL     1       3.415   6.290  19.110  0.00  0.00    +0.000 A 
ATOM     21  C   UNL     1       3.687   6.806  17.831  0.00  0.00    +0.000 A 
ATOM     22  C   UNL     1       2.866   7.855  17.397  0.00  0.00    +0.000 A 
BRANCH  21  23
ATOM     23  N   UNL     1       4.731   6.339  17.050  0.00  0.00    +0.000 N 
ATOM     24  C   UNL     1       4.694   5.002  16.437  0.00  0.00    +0.000 C 
ATOM     25  C   UNL     1       5.716   4.098  17.089  0.00  0.00    +0.000 C 
ATOM     26  S   UNL     1       7.328   4.802  16.866  0.00  0.00    +0.000 S 
ATOM     27  O   UNL     1       8.248   4.094  17.738  0.00  0.00    +0.000 OA
ATOM     28  O   UNL     1       7.600   4.888  15.443  0.00  0.00    +0.000 OA
ATOM     29  C   UNL     1       7.130   6.445  17.501  0.00  0.00    +0.000 C 
ATOM     30  C   UNL     1       5.953   7.121  16.828  0.00  0.00    +0.000 C 
ENDBRANCH  21  23
ENDBRANCH  16  17
ENDBRANCH   8  16
TORSDOF 4
ENDMDL
MODEL 9
REMARK VINA RESULT:      -8.1      3.120      4.434
REMARK  Name = 
REMARK  5 active torsions:
REMARK  status: ('A' for Active; 'I' for Inactive)
REMARK    1  A    between atoms: C_1  and  C_2
REMARK    2  A    between atoms: N_4  and  C_5
REMARK    3  A    between atoms: C_14  and  O_16
REMARK    4  A    between atoms: O_16  and  C_17
REMARK    5  A    between atoms: C_21  and  N_22
REMARK                            x       y       z     vdW  Elec       q    Type
REMARK                         _______ _______ _______ _____ _____    ______ ____
ROOT
ATOM      1  C   UNL     1      -1.976  11.513  23.293  0.00  0.00    +0.000 C 
ATOM      2  C   UNL     1      -1.792  11.932  21.828  0.00  0.00    +0.000 C 
ATOM      3  C   UNL     1      -2.849  12.974  21.402  0.00  0.00    +0.000 C 
ATOM      4  N   UNL     1      -2.549  14.276  22.026  0.00  0.00    +0.000 N 
ATOM      5  C   UNL     1      -1.218  14.810  21.693  0.00  0.00    +0.000 C 
ATOM      6  C   UNL     1      -0.140  13.789  22.099  0.00  0.00    +0.000 C 
ATOM      7  N   UNL     1      -0.430  12.451  21.575  0.00  0.00    +0.000 N 
ATOM      8  C   UNL     1       0.602  11.673  21.096  0.00  0.00    +0.000 C 
ATOM      9  O   UNL     1       1.765  12.057  21.011  0.00  0.00    +0.000 OA
ENDROOT
BRANCH   4  10
ATOM     10  C   UNL     1      -3.549  15.052  22.577  0.00  0.00    +0.000 A 
ATOM     11  C   UNL     1      -4.719  14.470  23.093  0.00  0.00    +0.000 A 
ATOM     12  C   UNL     1      -5.724  15.228  23.699  0.00  0.00    +0.000 A 
ATOM     13  C   UNL     1      -5.584  16.605  23.806  0.00  0.00    +0.000 A 
ATOM     14  C   UNL     1      -4.439  17.215  23.306  0.00  0.00    +0.000 A 
ATOM     15  C   UNL     1      -3.440  16.444  22.697  0.00  0.00    +0.000 A 
ENDBRANCH   4  10
BRANCH   8  16
ATOM     16  O   UNL     1       0.175  10.406  20.726  0.00  0.00    +0.000 OA
BRANCH  16  17
ATOM     17  C   UNL     1       1.009   9.594  19.937  0.00  0.00    +0.000 A 
ATOM     18  C   UNL     1       1.231  10.044  18.641  0.00  0.00    +0.000 A 
ATOM     19  C   UNL     1       1.905   9.218  17.753  0.00  0.00    +0.000 A 
ATOM     20  C   UNL     1       2.345   7.952  18.166  0.00  0.00    +0.000 A 
ATOM     21  C   UNL     1       2.136   7.477  19.472  0.00  0.00    +0.000 A 
ATOM     22  C   UNL     1       1.461   8.338  20.346  0.00  0.00    +0.000 A 
BRANCH  21  23
ATOM     23  N   UNL     1       2.536   6.212  19.873  0.00  0.00    +0.000 N 
ATOM     24  C   UNL     1       3.782   5.607  19.377  0.00  0.00    +0.000 C 
ATOM     25  C   UNL     1       3.473   4.444  18.462  0.00  0.00    +0.000 C 
ATOM     26  S   UNL     1       2.551   3.232  19.370  0.00  0.00    +0.000 S 
ATOM     27  O   UNL     1       2.012   2.276  18.418  0.00  0.00    +0.000 OA
ATOM     28  O   UNL     1       3.366   2.769  20.478  0.00  0.00    +0.000 OA
ATOM     29  C   UNL     1       1.198   4.173  20.022  0.00  0.00    +0.000 C 
ATOM     30  C   UNL     1       1.723   5.382  20.769  0.00  0.00    +0.000 C 
ENDBRANCH  21  23
ENDBRANCH  16  17
ENDBRANCH   8  16
TORSDOF 4
ENDMDL
