MODEL 1
REMARK VINA RESULT:      -7.5      0.000      0.000
REMARK  Name = 
REMARK  4 active torsions:
REMARK  status: ('A' for Active; 'I' for Inactive)
REMARK    1  A    between atoms: C_7  and  C_8
REMARK    2  A    between atoms: C_13  and  C_14
REMARK    3  A    between atoms: C_14  and  C_15
REMARK    4  A    between atoms: C_16  and  O_17
REMARK                            x       y       z     vdW  Elec       q    Type
REMARK                         _______ _______ _______ _____ _____    ______ ____
ROOT
ATOM      1  O   UNL     1       3.154   8.169  17.261  0.00  0.00    +0.000 OA
ATOM      2  C   UNL     1       2.678   7.773  18.317  0.00  0.00    +0.000 A 
ATOM      3  N   UNL     1       2.084   8.638  19.197  0.00  0.00    +0.000 N 
ATOM      4  C   UNL     1       1.450   8.266  20.341  0.00  0.00    +0.000 A 
ATOM      5  S   UNL     1       0.699   9.369  21.328  0.00  0.00    +0.000 S 
ATOM      6  N   UNL     1       1.459   6.936  20.630  0.00  0.00    +0.000 N 
ATOM      7  C   UNL     1       2.033   5.982  19.830  0.00  0.00    +0.000 A 
ATOM      8  C   UNL     1       2.622   6.325  18.670  0.00  0.00    +0.000 A 
ATOM      9  H   UNL     1       2.083   9.616  18.942  0.00  0.00    +0.000 HD
ATOM     10  H   UNL     1       0.975   6.642  21.476  0.00  0.00    +0.000 HD
ENDROOT
BRANCH   7  11
ATOM     11  C   UNL     1       1.882   4.636  20.296  0.00  0.00    +0.000 A 
ATOM     12  C   UNL     1       1.128   3.621  19.634  0.00  0.00    +0.000 A 
ATOM     13  C   UNL     1       1.158   2.427  20.317  0.00  0.00    +0.000 A 
ATOM     14  S   UNL     1       2.081   2.530  21.755  0.00  0.00    +0.000 S 
ATOM     15  C   UNL     1       2.447   4.177  21.467  0.00  0.00    +0.000 A 
ENDBRANCH   7  11
BRANCH   8  16
ATOM     16  C   UNL     1       3.216   5.363  17.675  0.00  0.00    +0.000 C 
BRANCH  16  17
ATOM     17  C   UNL     1       4.736   5.170  17.633  0.00  0.00    +0.000 A 
ATOM     18  C   UNL     1       5.612   5.324  18.726  0.00  0.00    +0.000 A 
ATOM     19  C   UNL     1       6.986   5.168  18.589  0.00  0.00    +0.000 A 
ATOM     20  C   UNL     1       7.544   4.857  17.359  0.00  0.00    +0.000 A 
ATOM     21  C   UNL     1       6.728   4.689  16.240  0.00  0.00    +0.000 A 
ATOM     22  C   UNL     1       7.335   4.385  15.011  0.00  0.00    +0.000 A 
ATOM     23  C   UNL     1       6.577   4.205  13.860  0.00  0.00    +0.000 A 
ATOM     24  C   UNL     1       5.197   4.334  13.930  0.00  0.00    +0.000 A 
ATOM     25  C   UNL     1       4.584   4.643  15.153  0.00  0.00    +0.000 A 
ATOM     26  C   UNL     1       5.321   4.833  16.348  0.00  0.00    +0.000 A 
BRANCH  18  27
ATOM     27  O   UNL     1       5.258   5.667  20.001  0.00  0.00    +0.000 OA
ATOM     28  H   UNL     1       4.529   6.296  19.983  0.00  0.00    +0.000 HD
ENDBRANCH  18  27
ENDBRANCH  16  17
ENDBRANCH   8  16
TORSDOF 4
ENDMDL
MODEL 2
REMARK VINA RESULT:      -7.1      1.787      2.308
REMARK  Name = 
REMARK  4 active torsions:
REMARK  status: ('A' for Active; 'I' for Inactive)
REMARK    1  A    between atoms: C_7  and  C_8
REMARK    2  A    between atoms: C_13  and  C_14
REMARK    3  A    between atoms: C_14  and  C_15
REMARK    4  A    between atoms: C_16  and  O_17
REMARK                            x       y       z     vdW  Elec       q    Type
REMARK                         _______ _______ _______ _____ _____    ______ ____
ROOT
ATOM      1  O   UNL     1       1.915   8.908  17.504  0.00  0.00    +0.000 OA
ATOM      2  C   UNL     1       1.888   8.362  18.599  0.00  0.00    +0.000 A 
ATOM      3  N   UNL     1       1.667   9.079  19.745  0.00  0.00    +0.000 N 
ATOM      4  C   UNL     1       1.527   8.537  20.984  0.00  0.00    +0.000 A 
ATOM      5  S   UNL     1       1.200   9.468  22.319  0.00  0.00    +0.000 S 
ATOM      6  N   UNL     1       1.666   7.185  21.069  0.00  0.00    +0.000 N 
ATOM      7  C   UNL     1       1.900   6.370  19.993  0.00  0.00    +0.000 A 
ATOM      8  C   UNL     1       1.992   6.882  18.752  0.00  0.00    +0.000 A 
ATOM      9  H   UNL     1       1.554  10.078  19.641  0.00  0.00    +0.000 HD
ATOM     10  H   UNL     1       1.549   6.765  21.989  0.00  0.00    +0.000 HD
ENDROOT
BRANCH   7  11
ATOM     11  C   UNL     1       1.959   4.972  20.299  0.00  0.00    +0.000 A 
ATOM     12  C   UNL     1       0.845   4.079  20.268  0.00  0.00    +0.000 A 
ATOM     13  C   UNL     1       1.201   2.796  20.614  0.00  0.00    +0.000 A 
ATOM     14  S   UNL     1       2.867   2.668  20.986  0.00  0.00    +0.000 S 
ATOM     15  C   UNL     1       3.120   4.334  20.683  0.00  0.00    +0.000 A 
ENDBRANCH   7  11
BRANCH   8  16
ATOM     16  C   UNL     1       2.170   6.082  17.489  0.00  0.00    +0.000 C 
BRANCH  16  17
ATOM     17  C   UNL     1       3.343   5.100  17.381  0.00  0.00    +0.000 A 
ATOM     18  C   UNL     1       3.232   3.697  17.318  0.00  0.00    +0.000 A 
ATOM     19  C   UNL     1       4.353   2.877  17.261  0.00  0.00    +0.000 A 
ATOM     20  C   UNL     1       5.628   3.421  17.269  0.00  0.00    +0.000 A 
ATOM     21  C   UNL     1       5.802   4.804  17.327  0.00  0.00    +0.000 A 
ATOM     22  C   UNL     1       7.111   5.312  17.344  0.00  0.00    +0.000 A 
ATOM     23  C   UNL     1       7.350   6.680  17.400  0.00  0.00    +0.000 A 
ATOM     24  C   UNL     1       6.273   7.556  17.446  0.00  0.00    +0.000 A 
ATOM     25  C   UNL     1       4.963   7.055  17.436  0.00  0.00    +0.000 A 
ATOM     26  C   UNL     1       4.677   5.668  17.378  0.00  0.00    +0.000 A 
BRANCH  18  27
ATOM     27  O   UNL     1       2.070   2.977  17.340  0.00  0.00    +0.000 OA
ATOM     28  H   UNL     1       2.064   2.386  18.100  0.00  0.00    +0.000 HD
ENDBRANCH  18  27
ENDBRANCH  16  17
ENDBRANCH   8  16
TORSDOF 4
ENDMDL
MODEL 3
REMARK VINA RESULT:      -7.0      6.437      8.992
REMARK  Name = 
REMARK  4 active torsions:
REMARK  status: ('A' for Active; 'I' for Inactive)
REMARK    1  A    between atoms: C_7  and  C_8
REMARK    2  A    between atoms: C_13  and  C_14
REMARK    3  A    between atoms: C_14  and  C_15
REMARK    4  A    between atoms: C_16  and  O_17
REMARK                            x       y       z     vdW  Elec       q    Type
REMARK                         _______ _______ _______ _____ _____    ______ ____
ROOT
ATOM      1  O   UNL     1      -3.001  13.964  21.916  0.00  0.00    +0.000 OA
ATOM      2  C   UNL     1      -3.677  13.377  21.082  0.00  0.00    +0.000 A 
ATOM      3  N   UNL     1      -5.038  13.528  21.036  0.00  0.00    +0.000 N 
ATOM      4  C   UNL     1      -5.847  12.990  20.085  0.00  0.00    +0.000 A 
ATOM      5  S   UNL     1      -7.483  13.268  20.062  0.00  0.00    +0.000 S 
ATOM      6  N   UNL     1      -5.239  12.213  19.147  0.00  0.00    +0.000 N 
ATOM      7  C   UNL     1      -3.889  11.982  19.101  0.00  0.00    +0.000 A 
ATOM      8  C   UNL     1      -3.066  12.546  20.004  0.00  0.00    +0.000 A 
ATOM      9  H   UNL     1      -5.452  14.124  21.740  0.00  0.00    +0.000 HD
ATOM     10  H   UNL     1      -5.831  11.815  18.420  0.00  0.00    +0.000 HD
ENDROOT
BRANCH   7  11
ATOM     11  C   UNL     1      -3.453  11.177  18.000  0.00  0.00    +0.000 A 
ATOM     12  C   UNL     1      -3.158   9.782  18.071  0.00  0.00    +0.000 A 
ATOM     13  C   UNL     1      -2.756   9.276  16.856  0.00  0.00    +0.000 A 
ATOM     14  S   UNL     1      -2.723  10.478  15.637  0.00  0.00    +0.000 S 
ATOM     15  C   UNL     1      -3.249  11.683  16.733  0.00  0.00    +0.000 A 
ENDBRANCH   7  11
BRANCH   8  16
ATOM     16  C   UNL     1      -1.565  12.429  20.010  0.00  0.00    +0.000 C 
BRANCH  16  17
ATOM     17  C   UNL     1      -0.904  11.279  20.778  0.00  0.00    +0.000 A 
ATOM     18  C   UNL     1      -1.044  11.029  22.158  0.00  0.00    +0.000 A 
ATOM     19  C   UNL     1      -0.375   9.983  22.783  0.00  0.00    +0.000 A 
ATOM     20  C   UNL     1       0.462   9.147  22.060  0.00  0.00    +0.000 A 
ATOM     21  C   UNL     1       0.640   9.342  20.690  0.00  0.00    +0.000 A 
ATOM     22  C   UNL     1       1.505   8.480  20.000  0.00  0.00    +0.000 A 
ATOM     23  C   UNL     1       1.723   8.622  18.634  0.00  0.00    +0.000 A 
ATOM     24  C   UNL     1       1.076   9.640  17.946  0.00  0.00    +0.000 A 
ATOM     25  C   UNL     1       0.214  10.509  18.631  0.00  0.00    +0.000 A 
ATOM     26  C   UNL     1      -0.036  10.396  20.022  0.00  0.00    +0.000 A 
BRANCH  18  27
ATOM     27  O   UNL     1      -1.788  11.761  23.040  0.00  0.00    +0.000 OA
ATOM     28  H   UNL     1      -2.697  11.442  23.048  0.00  0.00    +0.000 HD
ENDBRANCH  18  27
ENDBRANCH  16  17
ENDBRANCH   8  16
TORSDOF 4
ENDMDL
MODEL 4
REMARK VINA RESULT:      -6.9      5.578      8.547
REMARK  Name = 
REMARK  4 active torsions:
REMARK  status: ('A' for Active; 'I' for Inactive)
REMARK    1  A    between atoms: C_7  and  C_8
REMARK    2  A    between atoms: C_13  and  C_14
REMARK    3  A    between atoms: C_14  and  C_15
REMARK    4  A    between atoms: C_16  and  O_17
REMARK                            x       y       z     vdW  Elec       q    Type
REMARK                         _______ _______ _______ _____ _____    ______ ____
ROOT
ATOM      1  O   UNL     1      -1.895   9.945  17.469  0.00  0.00    +0.000 OA
ATOM      2  C   UNL     1      -2.607  10.775  18.019  0.00  0.00    +0.000 A 
ATOM      3  N   UNL     1      -3.955  10.822  17.782  0.00  0.00    +0.000 N 
ATOM      4  C   UNL     1      -4.826  11.647  18.423  0.00  0.00    +0.000 A 
ATOM      5  S   UNL     1      -6.459  11.604  18.125  0.00  0.00    +0.000 S 
ATOM      6  N   UNL     1      -4.286  12.508  19.328  0.00  0.00    +0.000 N 
ATOM      7  C   UNL     1      -2.951  12.558  19.636  0.00  0.00    +0.000 A 
ATOM      8  C   UNL     1      -2.080  11.716  19.049  0.00  0.00    +0.000 A 
ATOM      9  H   UNL     1      -4.323  10.158  17.115  0.00  0.00    +0.000 HD
ATOM     10  H   UNL     1      -4.928  13.121  19.825  0.00  0.00    +0.000 HD
ENDROOT
BRANCH   7  11
ATOM     11  C   UNL     1      -2.604  13.502  20.655  0.00  0.00    +0.000 A 
ATOM     12  C   UNL     1      -1.580  14.491  20.540  0.00  0.00    +0.000 A 
ATOM     13  C   UNL     1      -1.467  15.253  21.680  0.00  0.00    +0.000 A 
ATOM     14  S   UNL     1      -2.582  14.774  22.888  0.00  0.00    +0.000 S 
ATOM     15  C   UNL     1      -3.222  13.542  21.887  0.00  0.00    +0.000 A 
ENDBRANCH   7  11
BRANCH   8  16
ATOM     16  C   UNL     1      -0.610  11.625  19.361  0.00  0.00    +0.000 C 
BRANCH  16  17
ATOM     17  C   UNL     1      -0.098  10.473  20.233  0.00  0.00    +0.000 A 
ATOM     18  C   UNL     1      -0.387  10.290  21.600  0.00  0.00    +0.000 A 
ATOM     19  C   UNL     1       0.153   9.235  22.327  0.00  0.00    +0.000 A 
ATOM     20  C   UNL     1       1.007   8.324  21.723  0.00  0.00    +0.000 A 
ATOM     21  C   UNL     1       1.329   8.451  20.372  0.00  0.00    +0.000 A 
ATOM     22  C   UNL     1       2.205   7.514  19.804  0.00  0.00    +0.000 A 
ATOM     23  C   UNL     1       2.564   7.586  18.463  0.00  0.00    +0.000 A 
ATOM     24  C   UNL     1       2.049   8.608  17.677  0.00  0.00    +0.000 A 
ATOM     25  C   UNL     1       1.178   9.551  18.239  0.00  0.00    +0.000 A 
ATOM     26  C   UNL     1       0.787   9.512  19.601  0.00  0.00    +0.000 A 
BRANCH  18  27
ATOM     27  O   UNL     1      -1.170  11.099  22.375  0.00  0.00    +0.000 OA
ATOM     28  H   UNL     1      -1.998  11.288  21.922  0.00  0.00    +0.000 HD
ENDBRANCH  18  27
ENDBRANCH  16  17
ENDBRANCH   8  16
TORSDOF 4
ENDMDL
MODEL 5
REMARK VINA RESULT:      -6.8      3.761      6.870
REMARK  Name = 
REMARK  4 active torsions:
REMARK  status: ('A' for Active; 'I' for Inactive)
REMARK    1  A    between atoms: C_7  and  C_8
REMARK    2  A    between atoms: C_13  and  C_14
REMARK    3  A    between atoms: C_14  and  C_15
REMARK    4  A    between atoms: C_16  and  O_17
REMARK                            x       y       z     vdW  Elec       q    Type
REMARK                         _______ _______ _______ _____ _____    ______ ____
ROOT
ATOM      1  O   UNL     1       4.696   2.885  16.702  0.00  0.00    +0.000 OA
ATOM      2  C   UNL     1       5.531   3.698  16.329  0.00  0.00    +0.000 A 
ATOM      3  N   UNL     1       5.963   3.728  15.030  0.00  0.00    +0.000 N 
ATOM      4  C   UNL     1       6.813   4.657  14.516  0.00  0.00    +0.000 A 
ATOM      5  S   UNL     1       7.242   4.662  12.912  0.00  0.00    +0.000 S 
ATOM      6  N   UNL     1       7.288   5.587  15.388  0.00  0.00    +0.000 N 
ATOM      7  C   UNL     1       6.936   5.646  16.712  0.00  0.00    +0.000 A 
ATOM      8  C   UNL     1       6.058   4.767  17.228  0.00  0.00    +0.000 A 
ATOM      9  H   UNL     1       5.577   3.031  14.407  0.00  0.00    +0.000 HD
ATOM     10  H   UNL     1       7.914   6.297  15.014  0.00  0.00    +0.000 HD
ENDROOT
BRANCH   7  11
ATOM     11  C   UNL     1       7.512   6.737  17.439  0.00  0.00    +0.000 A 
ATOM     12  C   UNL     1       8.178   6.622  18.697  0.00  0.00    +0.000 A 
ATOM     13  C   UNL     1       8.624   7.838  19.160  0.00  0.00    +0.000 A 
ATOM     14  S   UNL     1       8.233   9.116  18.090  0.00  0.00    +0.000 S 
ATOM     15  C   UNL     1       7.465   8.044  16.999  0.00  0.00    +0.000 A 
ENDBRANCH   7  11
BRANCH   8  16
ATOM     16  C   UNL     1       5.538   4.779  18.641  0.00  0.00    +0.000 C 
BRANCH  16  17
ATOM     17  C   UNL     1       4.101   5.240  18.908  0.00  0.00    +0.000 A 
ATOM     18  C   UNL     1       3.522   6.432  18.430  0.00  0.00    +0.000 A 
ATOM     19  C   UNL     1       2.219   6.793  18.754  0.00  0.00    +0.000 A 
ATOM     20  C   UNL     1       1.443   5.984  19.570  0.00  0.00    +0.000 A 
ATOM     21  C   UNL     1       1.960   4.790  20.072  0.00  0.00    +0.000 A 
ATOM     22  C   UNL     1       1.144   4.007  20.903  0.00  0.00    +0.000 A 
ATOM     23  C   UNL     1       1.601   2.806  21.434  0.00  0.00    +0.000 A 
ATOM     24  C   UNL     1       2.889   2.380  21.139  0.00  0.00    +0.000 A 
ATOM     25  C   UNL     1       3.712   3.161  20.314  0.00  0.00    +0.000 A 
ATOM     26  C   UNL     1       3.284   4.389  19.752  0.00  0.00    +0.000 A 
BRANCH  18  27
ATOM     27  O   UNL     1       4.135   7.373  17.651  0.00  0.00    +0.000 OA
ATOM     28  H   UNL     1       4.710   7.924  18.192  0.00  0.00    +0.000 HD
ENDBRANCH  18  27
ENDBRANCH  16  17
ENDBRANCH   8  16
TORSDOF 4
ENDMDL
MODEL 6
REMARK VINA RESULT:      -6.8      8.517     11.475
REMARK  Name = 
REMARK  4 active torsions:
REMARK  status: ('A' for Active; 'I' for Inactive)
REMARK    1  A    between atoms: C_7  and  C_8
REMARK    2  A    between atoms: C_13  and  C_14
REMARK    3  A    between atoms: C_14  and  C_15
REMARK    4  A    between atoms: C_16  and  O_17
REMARK                            x       y       z     vdW  Elec       q    Type
REMARK                         _______ _______ _______ _____ _____    ______ ____
ROOT
ATOM      1  O   UNL     1      -1.353  14.230  24.230  0.00  0.00    +0.000 OA
ATOM      2  C   UNL     1      -2.529  14.568  24.261  0.00  0.00    +0.000 A 
ATOM      3  N   UNL     1      -2.900  15.805  24.718  0.00  0.00    +0.000 N 
ATOM      4  C   UNL     1      -4.170  16.290  24.695  0.00  0.00    +0.000 A 
ATOM      5  S   UNL     1      -4.534  17.826  25.211  0.00  0.00    +0.000 S 
ATOM      6  N   UNL     1      -5.129  15.449  24.219  0.00  0.00    +0.000 N 
ATOM      7  C   UNL     1      -4.875  14.187  23.749  0.00  0.00    +0.000 A 
ATOM      8  C   UNL     1      -3.618  13.707  23.717  0.00  0.00    +0.000 A 
ATOM      9  H   UNL     1      -2.160  16.408  25.049  0.00  0.00    +0.000 HD
ATOM     10  H   UNL     1      -6.082  15.805  24.183  0.00  0.00    +0.000 HD
ENDROOT
BRANCH   7  11
ATOM     11  C   UNL     1      -6.021  13.491  23.246  0.00  0.00    +0.000 A 
ATOM     12  C   UNL     1      -6.866  12.638  24.020  0.00  0.00    +0.000 A 
ATOM     13  C   UNL     1      -7.886  12.101  23.268  0.00  0.00    +0.000 A 
ATOM     14  S   UNL     1      -7.820  12.612  21.635  0.00  0.00    +0.000 S 
ATOM     15  C   UNL     1      -6.424  13.558  21.928  0.00  0.00    +0.000 A 
ENDBRANCH   7  11
BRANCH   8  16
ATOM     16  C   UNL     1      -3.208  12.372  23.154  0.00  0.00    +0.000 C 
BRANCH  16  17
ATOM     17  C   UNL     1      -2.226  12.323  21.977  0.00  0.00    +0.000 A 
ATOM     18  C   UNL     1      -2.291  13.127  20.822  0.00  0.00    +0.000 A 
ATOM     19  C   UNL     1      -1.379  12.989  19.783  0.00  0.00    +0.000 A 
ATOM     20  C   UNL     1      -0.368  12.043  19.850  0.00  0.00    +0.000 A 
ATOM     21  C   UNL     1      -0.249  11.219  20.970  0.00  0.00    +0.000 A 
ATOM     22  C   UNL     1       0.782  10.267  20.992  0.00  0.00    +0.000 A 
ATOM     23  C   UNL     1       0.953   9.418  22.079  0.00  0.00    +0.000 A 
ATOM     24  C   UNL     1       0.083   9.512  23.157  0.00  0.00    +0.000 A 
ATOM     25  C   UNL     1      -0.953  10.457  23.139  0.00  0.00    +0.000 A 
ATOM     26  C   UNL     1      -1.160  11.341  22.051  0.00  0.00    +0.000 A 
BRANCH  18  27
ATOM     27  O   UNL     1      -3.232  14.081  20.555  0.00  0.00    +0.000 OA
ATOM     28  H   UNL     1      -3.587  13.955  19.669  0.00  0.00    +0.000 HD
ENDBRANCH  18  27
ENDBRANCH  16  17
ENDBRANCH   8  16
TORSDOF 4
ENDMDL
MODEL 7
REMARK VINA RESULT:      -6.6      6.011      8.902
REMARK  Name = 
REMARK  4 active torsions:
REMARK  status: ('A' for Active; 'I' for Inactive)
REMARK    1  A    between atoms: C_7  and  C_8
REMARK    2  A    between atoms: C_13  and  C_14
REMARK    3  A    between atoms: C_14  and  C_15
REMARK    4  A    between atoms: C_16  and  O_17
REMARK                            x       y       z     vdW  Elec       q    Type
REMARK                         _______ _______ _______ _____ _____    ______ ____
ROOT
ATOM      1  O   UNL     1      -1.929  10.876  17.695  0.00  0.00    +0.000 OA
ATOM      2  C   UNL     1      -2.762  11.452  18.381  0.00  0.00    +0.000 A 
ATOM      3  N   UNL     1      -4.092  11.422  18.058  0.00  0.00    +0.000 N 
ATOM      4  C   UNL     1      -5.087  11.953  18.818  0.00  0.00    +0.000 A 
ATOM      5  S   UNL     1      -6.686  11.823  18.389  0.00  0.00    +0.000 S 
ATOM      6  N   UNL     1      -4.700  12.594  19.955  0.00  0.00    +0.000 N 
ATOM      7  C   UNL     1      -3.398  12.698  20.371  0.00  0.00    +0.000 A 
ATOM      8  C   UNL     1      -2.405  12.136  19.658  0.00  0.00    +0.000 A 
ATOM      9  H   UNL     1      -4.344  10.924  17.215  0.00  0.00    +0.000 HD
ATOM     10  H   UNL     1      -5.436  12.984  20.541  0.00  0.00    +0.000 HD
ENDROOT
BRANCH   7  11
ATOM     11  C   UNL     1      -3.218  13.368  21.623  0.00  0.00    +0.000 A 
ATOM     12  C   UNL     1      -3.936  13.071  22.822  0.00  0.00    +0.000 A 
ATOM     13  C   UNL     1      -3.556  13.882  23.866  0.00  0.00    +0.000 A 
ATOM     14  S   UNL     1      -2.347  15.003  23.404  0.00  0.00    +0.000 S 
ATOM     15  C   UNL     1      -2.327  14.405  21.801  0.00  0.00    +0.000 A 
ENDBRANCH   7  11
BRANCH   8  16
ATOM     16  C   UNL     1      -0.951  12.116  20.052  0.00  0.00    +0.000 C 
BRANCH  16  17
ATOM     17  C   UNL     1      -0.377  10.874  20.743  0.00  0.00    +0.000 A 
ATOM     18  C   UNL     1      -0.573  10.524  22.093  0.00  0.00    +0.000 A 
ATOM     19  C   UNL     1       0.020   9.397  22.650  0.00  0.00    +0.000 A 
ATOM     20  C   UNL     1       0.834   8.575  21.886  0.00  0.00    +0.000 A 
ATOM     21  C   UNL     1       1.064   8.868  20.541  0.00  0.00    +0.000 A 
ATOM     22  C   UNL     1       1.904   8.016  19.807  0.00  0.00    +0.000 A 
ATOM     23  C   UNL     1       2.171   8.254  18.464  0.00  0.00    +0.000 A 
ATOM     24  C   UNL     1       1.601   9.356  17.843  0.00  0.00    +0.000 A 
ATOM     25  C   UNL     1       0.765  10.215  18.572  0.00  0.00    +0.000 A 
ATOM     26  C   UNL     1       0.467  10.007  19.942  0.00  0.00    +0.000 A 
BRANCH  18  27
ATOM     27  O   UNL     1      -1.305  11.225  23.011  0.00  0.00    +0.000 OA
ATOM     28  H   UNL     1      -1.342  12.155  22.761  0.00  0.00    +0.000 HD
ENDBRANCH  18  27
ENDBRANCH  16  17
ENDBRANCH   8  16
TORSDOF 4
ENDMDL
MODEL 8
REMARK VINA RESULT:      -6.6      2.998      7.000
REMARK  Name = 
REMARK  4 active torsions:
REMARK  status: ('A' for Active; 'I' for Inactive)
REMARK    1  A    between atoms: C_7  and  C_8
REMARK    2  A    between atoms: C_13  and  C_14
REMARK    3  A    between atoms: C_14  and  C_15
REMARK    4  A    between atoms: C_16  and  O_17
REMARK                            x       y       z     vdW  Elec       q    Type
REMARK                         _______ _______ _______ _____ _____    ______ ____
ROOT
ATOM      1  O   UNL     1       0.692   5.580  20.641  0.00  0.00    +0.000 OA
ATOM      2  C   UNL     1       1.608   5.047  20.031  0.00  0.00    +0.000 A 
ATOM      3  N   UNL     1       1.500   3.764  19.565  0.00  0.00    +0.000 N 
ATOM      4  C   UNL     1       2.431   3.136  18.798  0.00  0.00    +0.000 A 
ATOM      5  S   UNL     1       2.200   1.597  18.219  0.00  0.00    +0.000 S 
ATOM      6  N   UNL     1       3.562   3.841  18.525  0.00  0.00    +0.000 N 
ATOM      7  C   UNL     1       3.785   5.126  18.949  0.00  0.00    +0.000 A 
ATOM      8  C   UNL     1       2.855   5.782  19.666  0.00  0.00    +0.000 A 
ATOM      9  H   UNL     1       0.639   3.276  19.774  0.00  0.00    +0.000 HD
ATOM     10  H   UNL     1       4.262   3.389  17.940  0.00  0.00    +0.000 HD
ENDROOT
BRANCH   7  11
ATOM     11  C   UNL     1       5.020   5.700  18.506  0.00  0.00    +0.000 A 
ATOM     12  C   UNL     1       5.173   6.514  17.342  0.00  0.00    +0.000 A 
ATOM     13  C   UNL     1       6.476   6.919  17.163  0.00  0.00    +0.000 A 
ATOM     14  S   UNL     1       7.512   6.315  18.384  0.00  0.00    +0.000 S 
ATOM     15  C   UNL     1       6.218   5.507  19.160  0.00  0.00    +0.000 A 
ENDBRANCH   7  11
BRANCH   8  16
ATOM     16  C   UNL     1       2.952   7.214  20.120  0.00  0.00    +0.000 C 
BRANCH  16  17
ATOM     17  C   UNL     1       1.953   8.243  19.578  0.00  0.00    +0.000 A 
ATOM     18  C   UNL     1       1.804   8.605  18.225  0.00  0.00    +0.000 A 
ATOM     19  C   UNL     1       0.897   9.579  17.824  0.00  0.00    +0.000 A 
ATOM     20  C   UNL     1       0.107  10.235  18.755  0.00  0.00    +0.000 A 
ATOM     21  C   UNL     1       0.207   9.919  20.110  0.00  0.00    +0.000 A 
ATOM     22  C   UNL     1      -0.604  10.616  21.020  0.00  0.00    +0.000 A 
ATOM     23  C   UNL     1      -0.550  10.346  22.382  0.00  0.00    +0.000 A 
ATOM     24  C   UNL     1       0.325   9.374  22.848  0.00  0.00    +0.000 A 
ATOM     25  C   UNL     1       1.142   8.679  21.946  0.00  0.00    +0.000 A 
ATOM     26  C   UNL     1       1.117   8.923  20.550  0.00  0.00    +0.000 A 
BRANCH  18  27
ATOM     27  O   UNL     1       2.516   8.103  17.172  0.00  0.00    +0.000 OA
ATOM     28  H   UNL     1       3.074   8.791  16.794  0.00  0.00    +0.000 HD
ENDBRANCH  18  27
ENDBRANCH  16  17
ENDBRANCH   8  16
TORSDOF 4
ENDMDL
MODEL 9
REMARK VINA RESULT:      -6.6      7.711     10.575
REMARK  Name = 
REMARK  4 active torsions:
REMARK  status: ('A' for Active; 'I' for Inactive)
REMARK    1  A    between atoms: C_7  and  C_8
REMARK    2  A    between atoms: C_13  and  C_14
REMARK    3  A    between atoms: C_14  and  C_15
REMARK    4  A    between atoms: C_16  and  O_17
REMARK                            x       y       z     vdW  Elec       q    Type
REMARK                         _______ _______ _______ _____ _____    ______ ____
ROOT
ATOM      1  O   UNL     1      -3.947  11.820  18.709  0.00  0.00    +0.000 OA
ATOM      2  C   UNL     1      -4.439  12.297  19.723  0.00  0.00    +0.000 A 
ATOM      3  N   UNL     1      -5.729  12.016  20.087  0.00  0.00    +0.000 N 
ATOM      4  C   UNL     1      -6.316  12.427  21.243  0.00  0.00    +0.000 A 
ATOM      5  S   UNL     1      -7.868  11.994  21.643  0.00  0.00    +0.000 S 
ATOM      6  N   UNL     1      -5.557  13.209  22.059  0.00  0.00    +0.000 N 
ATOM      7  C   UNL     1      -4.261  13.564  21.792  0.00  0.00    +0.000 A 
ATOM      8  C   UNL     1      -3.646  13.126  20.677  0.00  0.00    +0.000 A 
ATOM      9  H   UNL     1      -6.257  11.420  19.464  0.00  0.00    +0.000 HD
ATOM     10  H   UNL     1      -5.979  13.511  22.935  0.00  0.00    +0.000 HD
ENDROOT
BRANCH   7  11
ATOM     11  C   UNL     1      -3.629  14.348  22.810  0.00  0.00    +0.000 A 
ATOM     12  C   UNL     1      -3.337  15.742  22.706  0.00  0.00    +0.000 A 
ATOM     13  C   UNL     1      -2.722  16.227  23.838  0.00  0.00    +0.000 A 
ATOM     14  S   UNL     1      -2.488  15.008  25.016  0.00  0.00    +0.000 S 
ATOM     15  C   UNL     1      -3.212  13.823  24.015  0.00  0.00    +0.000 A 
ENDBRANCH   7  11
BRANCH   8  16
ATOM     16  C   UNL     1      -2.207  13.385  20.315  0.00  0.00    +0.000 C 
BRANCH  16  17
ATOM     17  C   UNL     1      -1.317  12.210  19.893  0.00  0.00    +0.000 A 
ATOM     18  C   UNL     1      -0.882  11.943  18.581  0.00  0.00    +0.000 A 
ATOM     19  C   UNL     1      -0.106  10.830  18.280  0.00  0.00    +0.000 A 
ATOM     20  C   UNL     1       0.264   9.936  19.273  0.00  0.00    +0.000 A 
ATOM     21  C   UNL     1      -0.134  10.148  20.593  0.00  0.00    +0.000 A 
ATOM     22  C   UNL     1       0.253   9.213  21.566  0.00  0.00    +0.000 A 
ATOM     23  C   UNL     1      -0.112   9.369  22.898  0.00  0.00    +0.000 A 
ATOM     24  C   UNL     1      -0.876  10.466  23.268  0.00  0.00    +0.000 A 
ATOM     25  C   UNL     1      -1.271  11.402  22.301  0.00  0.00    +0.000 A 
ATOM     26  C   UNL     1      -0.920  11.280  20.934  0.00  0.00    +0.000 A 
BRANCH  18  27
ATOM     27  O   UNL     1      -1.174  12.680  17.467  0.00  0.00    +0.000 OA
ATOM     28  H   UNL     1      -0.690  13.513  17.487  0.00  0.00    +0.000 HD
ENDBRANCH  18  27
ENDBRANCH  16  17
ENDBRANCH   8  16
TORSDOF 4
ENDMDL
