MODEL 1
REMARK VINA RESULT:      -9.0      0.000      0.000
REMARK  Name = 
REMARK  7 active torsions:
REMARK  status: ('A' for Active; 'I' for Inactive)
REMARK    1  A    between atoms: C_1  and  C_2
REMARK    2  A    between atoms: C_6  and  S_7
REMARK    3  A    between atoms: S_7  and  N_10
REMARK    4  A    between atoms: N_10  and  C_11
REMARK    5  A    between atoms: C_20  and  N_21
REMARK    6  A    between atoms: N_21  and  C_22
REMARK    7  A    between atoms: C_22  and  C_23
REMARK                            x       y       z     vdW  Elec       q    Type
REMARK                         _______ _______ _______ _____ _____    ______ ____
ROOT
ATOM      1  C   UNL     1       4.050   5.649  17.460  0.00  0.00    +0.000 A 
ATOM      2  N   UNL     1       3.436   6.793  17.097  0.00  0.00    +0.000 NA
ATOM      3  C   UNL     1       2.788   7.444  18.081  0.00  0.00    +0.000 A 
ATOM      4  C   UNL     1       2.131   8.640  17.808  0.00  0.00    +0.000 A 
ATOM      5  C   UNL     1       1.382   9.303  18.784  0.00  0.00    +0.000 A 
ATOM      6  C   UNL     1       1.288   8.762  20.060  0.00  0.00    +0.000 A 
ATOM      7  C   UNL     1       1.974   7.585  20.358  0.00  0.00    +0.000 A 
ATOM      8  C   UNL     1       2.736   6.927  19.400  0.00  0.00    +0.000 A 
ATOM      9  N   UNL     1       3.384   5.797  19.743  0.00  0.00    +0.000 NA
ATOM     10  C   UNL     1       4.050   5.137  18.773  0.00  0.00    +0.000 A 
ENDROOT
BRANCH   1  11
ATOM     11  N   UNL     1       4.690   4.988  16.380  0.00  0.00    +0.000 N 
ATOM     12  H   UNL     1       4.243   5.176  15.488  0.00  0.00    +0.000 HD
BRANCH  11  13
ATOM     13  S   UNL     1       6.346   5.272  16.243  0.00  0.00    +0.000 S 
ATOM     14  O   UNL     1       7.102   4.345  17.058  0.00  0.00    +0.000 OA
ATOM     15  O   UNL     1       6.509   6.706  16.400  0.00  0.00    +0.000 OA
BRANCH  13  21
ATOM     16  C   UNL     1       5.409   2.563  11.833  0.00  0.00    +0.000 C 
ATOM     17  C   UNL     1       6.220   3.607  12.543  0.00  0.00    +0.000 A 
ATOM     18  C   UNL     1       7.258   4.281  11.886  0.00  0.00    +0.000 A 
ATOM     19  C   UNL     1       8.018   5.243  12.557  0.00  0.00    +0.000 A 
ATOM     20  C   UNL     1       7.737   5.556  13.886  0.00  0.00    +0.000 A 
ATOM     21  C   UNL     1       6.685   4.906  14.537  0.00  0.00    +0.000 A 
ATOM     22  C   UNL     1       5.947   3.914  13.882  0.00  0.00    +0.000 A 
ENDBRANCH  13  21
ENDBRANCH  11  13
ENDBRANCH   1  11
BRANCH  10  23
ATOM     23  N   UNL     1       4.601   3.868  19.039  0.00  0.00    +0.000 N 
ATOM     24  H   UNL     1       5.535   3.874  18.629  0.00  0.00    +0.000 HD
BRANCH  23  25
ATOM     25  C   UNL     1       3.828   2.709  18.573  0.00  0.00    +0.000 C 
BRANCH  25  26
ATOM     26  C   UNL     1       2.786   2.268  19.613  0.00  0.00    +0.000 C 
ATOM     27  C   UNL     1       1.423   2.938  19.519  0.00  0.00    +0.000 C 
ATOM     28  C   UNL     1       0.942   2.862  20.949  0.00  0.00    +0.000 C 
ATOM     29  C   UNL     1       2.219   3.081  21.729  0.00  0.00    +0.000 C 
ATOM     30  O   UNL     1       3.283   2.534  20.943  0.00  0.00    +0.000 OA
ENDBRANCH  25  26
ENDBRANCH  23  25
ENDBRANCH  10  23
TORSDOF 6
ENDMDL
MODEL 2
REMARK VINA RESULT:      -8.3      3.045      7.674
REMARK  Name = 
REMARK  7 active torsions:
REMARK  status: ('A' for Active; 'I' for Inactive)
REMARK    1  A    between atoms: C_1  and  C_2
REMARK    2  A    between atoms: C_6  and  S_7
REMARK    3  A    between atoms: S_7  and  N_10
REMARK    4  A    between atoms: N_10  and  C_11
REMARK    5  A    between atoms: C_20  and  N_21
REMARK    6  A    between atoms: N_21  and  C_22
REMARK    7  A    between atoms: C_22  and  C_23
REMARK                            x       y       z     vdW  Elec       q    Type
REMARK                         _______ _______ _______ _____ _____    ______ ____
ROOT
ATOM      1  C   UNL     1       6.144   4.404  16.652  0.00  0.00    +0.000 A 
ATOM      2  N   UNL     1       5.723   3.649  15.618  0.00  0.00    +0.000 NA
ATOM      3  C   UNL     1       6.275   3.936  14.424  0.00  0.00    +0.000 A 
ATOM      4  C   UNL     1       5.911   3.205  13.297  0.00  0.00    +0.000 A 
ATOM      5  C   UNL     1       6.403   3.525  12.028  0.00  0.00    +0.000 A 
ATOM      6  C   UNL     1       7.276   4.596  11.881  0.00  0.00    +0.000 A 
ATOM      7  C   UNL     1       7.679   5.311  13.009  0.00  0.00    +0.000 A 
ATOM      8  C   UNL     1       7.211   4.991  14.277  0.00  0.00    +0.000 A 
ATOM      9  N   UNL     1       7.637   5.710  15.332  0.00  0.00    +0.000 NA
ATOM     10  C   UNL     1       7.106   5.428  16.540  0.00  0.00    +0.000 A 
ENDROOT
BRANCH   1  11
ATOM     11  N   UNL     1       5.509   4.081  17.879  0.00  0.00    +0.000 N 
ATOM     12  H   UNL     1       6.173   3.864  18.616  0.00  0.00    +0.000 HD
BRANCH  11  13
ATOM     13  S   UNL     1       4.409   5.226  18.444  0.00  0.00    +0.000 S 
ATOM     14  O   UNL     1       4.014   6.134  17.388  0.00  0.00    +0.000 OA
ATOM     15  O   UNL     1       4.971   5.727  19.685  0.00  0.00    +0.000 OA
BRANCH  13  21
ATOM     16  C   UNL     1       1.576   2.543  21.971  0.00  0.00    +0.000 C 
ATOM     17  C   UNL     1       1.743   3.008  20.554  0.00  0.00    +0.000 A 
ATOM     18  C   UNL     1       0.809   2.662  19.568  0.00  0.00    +0.000 A 
ATOM     19  C   UNL     1       0.977   3.087  18.248  0.00  0.00    +0.000 A 
ATOM     20  C   UNL     1       2.071   3.879  17.901  0.00  0.00    +0.000 A 
ATOM     21  C   UNL     1       2.991   4.249  18.886  0.00  0.00    +0.000 A 
ATOM     22  C   UNL     1       2.848   3.793  20.201  0.00  0.00    +0.000 A 
ENDBRANCH  13  21
ENDBRANCH  11  13
ENDBRANCH   1  11
BRANCH  10  23
ATOM     23  N   UNL     1       7.389   6.258  17.643  0.00  0.00    +0.000 N 
ATOM     24  H   UNL     1       6.911   5.840  18.441  0.00  0.00    +0.000 HD
BRANCH  23  25
ATOM     25  C   UNL     1       7.037   7.677  17.502  0.00  0.00    +0.000 C 
BRANCH  25  26
ATOM     26  C   UNL     1       8.257   8.588  17.715  0.00  0.00    +0.000 C 
ATOM     27  C   UNL     1       8.772   8.693  19.143  0.00  0.00    +0.000 C 
ATOM     28  C   UNL     1       9.405  10.065  19.143  0.00  0.00    +0.000 C 
ATOM     29  C   UNL     1       8.467  10.851  18.255  0.00  0.00    +0.000 C 
ATOM     30  O   UNL     1       7.939   9.932  17.293  0.00  0.00    +0.000 OA
ENDBRANCH  25  26
ENDBRANCH  23  25
ENDBRANCH  10  23
TORSDOF 6
ENDMDL
MODEL 3
REMARK VINA RESULT:      -8.2      1.890      5.771
REMARK  Name = 
REMARK  7 active torsions:
REMARK  status: ('A' for Active; 'I' for Inactive)
REMARK    1  A    between atoms: C_1  and  C_2
REMARK    2  A    between atoms: C_6  and  S_7
REMARK    3  A    between atoms: S_7  and  N_10
REMARK    4  A    between atoms: N_10  and  C_11
REMARK    5  A    between atoms: C_20  and  N_21
REMARK    6  A    between atoms: N_21  and  C_22
REMARK    7  A    between atoms: C_22  and  C_23
REMARK                            x       y       z     vdW  Elec       q    Type
REMARK                         _______ _______ _______ _____ _____    ______ ____
ROOT
ATOM      1  C   UNL     1       6.678   4.199  16.644  0.00  0.00    +0.000 A 
ATOM      2  N   UNL     1       7.542   4.723  15.752  0.00  0.00    +0.000 NA
ATOM      3  C   UNL     1       7.168   4.641  14.461  0.00  0.00    +0.000 A 
ATOM      4  C   UNL     1       7.989   5.162  13.466  0.00  0.00    +0.000 A 
ATOM      5  C   UNL     1       7.674   5.025  12.111  0.00  0.00    +0.000 A 
ATOM      6  C   UNL     1       6.514   4.355  11.742  0.00  0.00    +0.000 A 
ATOM      7  C   UNL     1       5.663   3.863  12.731  0.00  0.00    +0.000 A 
ATOM      8  C   UNL     1       5.957   4.009  14.081  0.00  0.00    +0.000 A 
ATOM      9  N   UNL     1       5.098   3.520  14.995  0.00  0.00    +0.000 NA
ATOM     10  C   UNL     1       5.447   3.606  16.294  0.00  0.00    +0.000 A 
ENDROOT
BRANCH   1  11
ATOM     11  N   UNL     1       7.133   4.284  17.985  0.00  0.00    +0.000 N 
ATOM     12  H   UNL     1       8.074   3.920  18.101  0.00  0.00    +0.000 HD
BRANCH  11  13
ATOM     13  S   UNL     1       7.041   5.817  18.680  0.00  0.00    +0.000 S 
ATOM     14  O   UNL     1       7.824   6.776  17.931  0.00  0.00    +0.000 OA
ATOM     15  O   UNL     1       7.271   5.614  20.099  0.00  0.00    +0.000 OA
BRANCH  13  21
ATOM     16  C   UNL     1       2.073   5.784  20.406  0.00  0.00    +0.000 C 
ATOM     17  C   UNL     1       3.052   6.178  19.338  0.00  0.00    +0.000 A 
ATOM     18  C   UNL     1       2.629   6.858  18.189  0.00  0.00    +0.000 A 
ATOM     19  C   UNL     1       3.544   7.210  17.193  0.00  0.00    +0.000 A 
ATOM     20  C   UNL     1       4.895   6.902  17.343  0.00  0.00    +0.000 A 
ATOM     21  C   UNL     1       5.326   6.247  18.500  0.00  0.00    +0.000 A 
ATOM     22  C   UNL     1       4.408   5.858  19.481  0.00  0.00    +0.000 A 
ENDBRANCH  13  21
ENDBRANCH  11  13
ENDBRANCH   1  11
BRANCH  10  23
ATOM     23  N   UNL     1       4.667   2.962  17.275  0.00  0.00    +0.000 N 
ATOM     24  H   UNL     1       4.900   1.970  17.215  0.00  0.00    +0.000 HD
BRANCH  23  25
ATOM     25  C   UNL     1       3.216   3.169  17.198  0.00  0.00    +0.000 C 
BRANCH  25  26
ATOM     26  C   UNL     1       2.468   2.348  18.260  0.00  0.00    +0.000 C 
ATOM     27  C   UNL     1       1.101   2.873  18.672  0.00  0.00    +0.000 C 
ATOM     28  C   UNL     1       0.980   2.347  20.083  0.00  0.00    +0.000 C 
ATOM     29  C   UNL     1       2.399   2.466  20.592  0.00  0.00    +0.000 C 
ATOM     30  O   UNL     1       3.261   2.276  19.466  0.00  0.00    +0.000 OA
ENDBRANCH  25  26
ENDBRANCH  23  25
ENDBRANCH  10  23
TORSDOF 6
ENDMDL
MODEL 4
REMARK VINA RESULT:      -8.1      2.548      3.519
REMARK  Name = 
REMARK  7 active torsions:
REMARK  status: ('A' for Active; 'I' for Inactive)
REMARK    1  A    between atoms: C_1  and  C_2
REMARK    2  A    between atoms: C_6  and  S_7
REMARK    3  A    between atoms: S_7  and  N_10
REMARK    4  A    between atoms: N_10  and  C_11
REMARK    5  A    between atoms: C_20  and  N_21
REMARK    6  A    between atoms: N_21  and  C_22
REMARK    7  A    between atoms: C_22  and  C_23
REMARK                            x       y       z     vdW  Elec       q    Type
REMARK                         _______ _______ _______ _____ _____    ______ ____
ROOT
ATOM      1  C   UNL     1       3.888   5.415  17.675  0.00  0.00    +0.000 A 
ATOM      2  N   UNL     1       3.328   6.560  17.234  0.00  0.00    +0.000 NA
ATOM      3  C   UNL     1       2.705   7.301  18.170  0.00  0.00    +0.000 A 
ATOM      4  C   UNL     1       2.104   8.505  17.816  0.00  0.00    +0.000 A 
ATOM      5  C   UNL     1       1.381   9.262  18.742  0.00  0.00    +0.000 A 
ATOM      6  C   UNL     1       1.255   8.808  20.049  0.00  0.00    +0.000 A 
ATOM      7  C   UNL     1       1.886   7.622  20.427  0.00  0.00    +0.000 A 
ATOM      8  C   UNL     1       2.623   6.872  19.519  0.00  0.00    +0.000 A 
ATOM      9  N   UNL     1       3.217   5.738  19.938  0.00  0.00    +0.000 NA
ATOM     10  C   UNL     1       3.858   4.989  19.018  0.00  0.00    +0.000 A 
ENDROOT
BRANCH   1  11
ATOM     11  N   UNL     1       4.504   4.658  16.644  0.00  0.00    +0.000 N 
ATOM     12  H   UNL     1       3.833   4.288  15.978  0.00  0.00    +0.000 HD
BRANCH  11  13
ATOM     13  S   UNL     1       5.737   5.449  15.810  0.00  0.00    +0.000 S 
ATOM     14  O   UNL     1       5.221   6.577  15.064  0.00  0.00    +0.000 OA
ATOM     15  O   UNL     1       6.491   4.401  15.147  0.00  0.00    +0.000 OA
BRANCH  13  21
ATOM     16  C   UNL     1       8.382   9.370  18.110  0.00  0.00    +0.000 C 
ATOM     17  C   UNL     1       7.992   7.921  18.108  0.00  0.00    +0.000 A 
ATOM     18  C   UNL     1       8.455   7.050  19.103  0.00  0.00    +0.000 A 
ATOM     19  C   UNL     1       8.098   5.699  19.088  0.00  0.00    +0.000 A 
ATOM     20  C   UNL     1       7.260   5.207  18.088  0.00  0.00    +0.000 A 
ATOM     21  C   UNL     1       6.774   6.077  17.109  0.00  0.00    +0.000 A 
ATOM     22  C   UNL     1       7.160   7.422  17.098  0.00  0.00    +0.000 A 
ENDBRANCH  13  21
ENDBRANCH  11  13
ENDBRANCH   1  11
BRANCH  10  23
ATOM     23  N   UNL     1       4.349   3.715  19.368  0.00  0.00    +0.000 N 
ATOM     24  H   UNL     1       4.227   3.129  18.542  0.00  0.00    +0.000 HD
BRANCH  23  25
ATOM     25  C   UNL     1       3.753   3.086  20.554  0.00  0.00    +0.000 C 
BRANCH  25  26
ATOM     26  C   UNL     1       2.415   2.407  20.223  0.00  0.00    +0.000 C 
ATOM     27  C   UNL     1       2.151   2.130  18.751  0.00  0.00    +0.000 C 
ATOM     28  C   UNL     1       0.641   2.155  18.697  0.00  0.00    +0.000 C 
ATOM     29  C   UNL     1       0.303   3.249  19.684  0.00  0.00    +0.000 C 
ATOM     30  O   UNL     1       1.323   3.231  20.688  0.00  0.00    +0.000 OA
ENDBRANCH  25  26
ENDBRANCH  23  25
ENDBRANCH  10  23
TORSDOF 6
ENDMDL
MODEL 5
REMARK VINA RESULT:      -7.9      1.531      4.392
REMARK  Name = 
REMARK  7 active torsions:
REMARK  status: ('A' for Active; 'I' for Inactive)
REMARK    1  A    between atoms: C_1  and  C_2
REMARK    2  A    between atoms: C_6  and  S_7
REMARK    3  A    between atoms: S_7  and  N_10
REMARK    4  A    between atoms: N_10  and  C_11
REMARK    5  A    between atoms: C_20  and  N_21
REMARK    6  A    between atoms: N_21  and  C_22
REMARK    7  A    between atoms: C_22  and  C_23
REMARK                            x       y       z     vdW  Elec       q    Type
REMARK                         _______ _______ _______ _____ _____    ______ ____
ROOT
ATOM      1  C   UNL     1       3.762   5.163  17.530  0.00  0.00    +0.000 A 
ATOM      2  N   UNL     1       3.707   3.895  17.987  0.00  0.00    +0.000 NA
ATOM      3  C   UNL     1       3.154   3.739  19.205  0.00  0.00    +0.000 A 
ATOM      4  C   UNL     1       3.044   2.468  19.759  0.00  0.00    +0.000 A 
ATOM      5  C   UNL     1       2.549   2.274  21.052  0.00  0.00    +0.000 A 
ATOM      6  C   UNL     1       2.155   3.372  21.806  0.00  0.00    +0.000 A 
ATOM      7  C   UNL     1       2.223   4.648  21.247  0.00  0.00    +0.000 A 
ATOM      8  C   UNL     1       2.696   4.850  19.957  0.00  0.00    +0.000 A 
ATOM      9  N   UNL     1       2.735   6.102  19.463  0.00  0.00    +0.000 NA
ATOM     10  C   UNL     1       3.273   6.278  18.239  0.00  0.00    +0.000 A 
ENDROOT
BRANCH   1  11
ATOM     11  N   UNL     1       4.380   5.275  16.258  0.00  0.00    +0.000 N 
ATOM     12  H   UNL     1       4.018   6.053  15.715  0.00  0.00    +0.000 HD
BRANCH  11  13
ATOM     13  S   UNL     1       6.064   5.351  16.281  0.00  0.00    +0.000 S 
ATOM     14  O   UNL     1       6.620   4.338  17.153  0.00  0.00    +0.000 OA
ATOM     15  O   UNL     1       6.387   6.754  16.469  0.00  0.00    +0.000 OA
BRANCH  13  21
ATOM     16  C   UNL     1       5.385   2.577  11.864  0.00  0.00    +0.000 C 
ATOM     17  C   UNL     1       6.166   3.618  12.611  0.00  0.00    +0.000 A 
ATOM     18  C   UNL     1       7.262   4.258  12.019  0.00  0.00    +0.000 A 
ATOM     19  C   UNL     1       7.993   5.218  12.725  0.00  0.00    +0.000 A 
ATOM     20  C   UNL     1       7.625   5.562  14.025  0.00  0.00    +0.000 A 
ATOM     21  C   UNL     1       6.516   4.945  14.610  0.00  0.00    +0.000 A 
ATOM     22  C   UNL     1       5.805   3.956  13.922  0.00  0.00    +0.000 A 
ENDBRANCH  13  21
ENDBRANCH  11  13
ENDBRANCH   1  11
BRANCH  10  23
ATOM     23  N   UNL     1       3.491   7.581  17.749  0.00  0.00    +0.000 N 
ATOM     24  H   UNL     1       4.145   8.021  18.397  0.00  0.00    +0.000 HD
BRANCH  23  25
ATOM     25  C   UNL     1       2.299   8.416  17.554  0.00  0.00    +0.000 C 
BRANCH  25  26
ATOM     26  C   UNL     1       2.154   9.466  18.666  0.00  0.00    +0.000 C 
ATOM     27  C   UNL     1       0.993   9.266  19.628  0.00  0.00    +0.000 C 
ATOM     28  C   UNL     1       0.710  10.682  20.071  0.00  0.00    +0.000 C 
ATOM     29  C   UNL     1       0.961  11.470  18.805  0.00  0.00    +0.000 C 
ATOM     30  O   UNL     1       1.981  10.775  18.080  0.00  0.00    +0.000 OA
ENDBRANCH  25  26
ENDBRANCH  23  25
ENDBRANCH  10  23
TORSDOF 6
ENDMDL
MODEL 6
REMARK VINA RESULT:      -7.9      0.561      1.380
REMARK  Name = 
REMARK  7 active torsions:
REMARK  status: ('A' for Active; 'I' for Inactive)
REMARK    1  A    between atoms: C_1  and  C_2
REMARK    2  A    between atoms: C_6  and  S_7
REMARK    3  A    between atoms: S_7  and  N_10
REMARK    4  A    between atoms: N_10  and  C_11
REMARK    5  A    between atoms: C_20  and  N_21
REMARK    6  A    between atoms: N_21  and  C_22
REMARK    7  A    between atoms: C_22  and  C_23
REMARK                            x       y       z     vdW  Elec       q    Type
REMARK                         _______ _______ _______ _____ _____    ______ ____
ROOT
ATOM      1  C   UNL     1       4.494   5.196  17.721  0.00  0.00    +0.000 A 
ATOM      2  N   UNL     1       3.940   6.297  17.173  0.00  0.00    +0.000 NA
ATOM      3  C   UNL     1       3.190   7.046  18.003  0.00  0.00    +0.000 A 
ATOM      4  C   UNL     1       2.584   8.207  17.533  0.00  0.00    +0.000 A 
ATOM      5  C   UNL     1       1.736   8.968  18.342  0.00  0.00    +0.000 A 
ATOM      6  C   UNL     1       1.487   8.562  19.647  0.00  0.00    +0.000 A 
ATOM      7  C   UNL     1       2.119   7.422  20.143  0.00  0.00    +0.000 A 
ATOM      8  C   UNL     1       2.979   6.668  19.353  0.00  0.00    +0.000 A 
ATOM      9  N   UNL     1       3.569   5.580  19.883  0.00  0.00    +0.000 NA
ATOM     10  C   UNL     1       4.335   4.823  19.071  0.00  0.00    +0.000 A 
ENDROOT
BRANCH   1  11
ATOM     11  N   UNL     1       5.247   4.426  16.797  0.00  0.00    +0.000 N 
ATOM     12  H   UNL     1       4.731   4.224  15.947  0.00  0.00    +0.000 HD
BRANCH  11  13
ATOM     13  S   UNL     1       6.756   5.061  16.394  0.00  0.00    +0.000 S 
ATOM     14  O   UNL     1       7.820   4.333  17.051  0.00  0.00    +0.000 OA
ATOM     15  O   UNL     1       6.628   6.498  16.554  0.00  0.00    +0.000 OA
BRANCH  13  21
ATOM     16  C   UNL     1       8.501   6.331  11.598  0.00  0.00    +0.000 C 
ATOM     17  C   UNL     1       7.693   5.406  12.460  0.00  0.00    +0.000 A 
ATOM     18  C   UNL     1       7.012   4.316  11.903  0.00  0.00    +0.000 A 
ATOM     19  C   UNL     1       6.251   3.464  12.709  0.00  0.00    +0.000 A 
ATOM     20  C   UNL     1       6.177   3.683  14.084  0.00  0.00    +0.000 A 
ATOM     21  C   UNL     1       6.877   4.753  14.648  0.00  0.00    +0.000 A 
ATOM     22  C   UNL     1       7.608   5.631  13.839  0.00  0.00    +0.000 A 
ENDBRANCH  13  21
ENDBRANCH  11  13
ENDBRANCH   1  11
BRANCH  10  23
ATOM     23  N   UNL     1       4.835   3.587  19.528  0.00  0.00    +0.000 N 
ATOM     24  H   UNL     1       5.815   3.558  19.246  0.00  0.00    +0.000 HD
BRANCH  23  25
ATOM     25  C   UNL     1       4.120   2.385  19.080  0.00  0.00    +0.000 C 
BRANCH  25  26
ATOM     26  C   UNL     1       2.867   2.122  19.929  0.00  0.00    +0.000 C 
ATOM     27  C   UNL     1       1.591   2.813  19.470  0.00  0.00    +0.000 C 
ATOM     28  C   UNL     1       0.829   2.948  20.767  0.00  0.00    +0.000 C 
ATOM     29  C   UNL     1       1.933   3.233  21.760  0.00  0.00    +0.000 C 
ATOM     30  O   UNL     1       3.100   2.552  21.288  0.00  0.00    +0.000 OA
ENDBRANCH  25  26
ENDBRANCH  23  25
ENDBRANCH  10  23
TORSDOF 6
ENDMDL
MODEL 7
REMARK VINA RESULT:      -7.8      1.536      2.554
REMARK  Name = 
REMARK  7 active torsions:
REMARK  status: ('A' for Active; 'I' for Inactive)
REMARK    1  A    between atoms: C_1  and  C_2
REMARK    2  A    between atoms: C_6  and  S_7
REMARK    3  A    between atoms: S_7  and  N_10
REMARK    4  A    between atoms: N_10  and  C_11
REMARK    5  A    between atoms: C_20  and  N_21
REMARK    6  A    between atoms: N_21  and  C_22
REMARK    7  A    between atoms: C_22  and  C_23
REMARK                            x       y       z     vdW  Elec       q    Type
REMARK                         _______ _______ _______ _____ _____    ______ ____
ROOT
ATOM      1  C   UNL     1       2.861   6.695  18.519  0.00  0.00    +0.000 A 
ATOM      2  N   UNL     1       2.485   7.813  17.866  0.00  0.00    +0.000 NA
ATOM      3  C   UNL     1       1.816   8.721  18.603  0.00  0.00    +0.000 A 
ATOM      4  C   UNL     1       1.393   9.912  18.021  0.00  0.00    +0.000 A 
ATOM      5  C   UNL     1       0.628  10.841  18.732  0.00  0.00    +0.000 A 
ATOM      6  C   UNL     1       0.279  10.577  20.050  0.00  0.00    +0.000 A 
ATOM      7  C   UNL     1       0.730   9.405  20.657  0.00  0.00    +0.000 A 
ATOM      8  C   UNL     1       1.506   8.482  19.966  0.00  0.00    +0.000 A 
ATOM      9  N   UNL     1       1.920   7.370  20.602  0.00  0.00    +0.000 NA
ATOM     10  C   UNL     1       2.604   6.455  19.884  0.00  0.00    +0.000 A 
ENDROOT
BRANCH   1  11
ATOM     11  N   UNL     1       3.535   5.761  17.691  0.00  0.00    +0.000 N 
ATOM     12  H   UNL     1       3.187   5.764  16.737  0.00  0.00    +0.000 HD
BRANCH  11  13
ATOM     13  S   UNL     1       5.215   5.897  17.670  0.00  0.00    +0.000 S 
ATOM     14  O   UNL     1       5.811   5.158  18.761  0.00  0.00    +0.000 OA
ATOM     15  O   UNL     1       5.487   7.313  17.493  0.00  0.00    +0.000 OA
BRANCH  13  21
ATOM     16  C   UNL     1       8.168   5.591  13.328  0.00  0.00    +0.000 C 
ATOM     17  C   UNL     1       7.050   5.026  14.156  0.00  0.00    +0.000 A 
ATOM     18  C   UNL     1       6.346   3.891  13.734  0.00  0.00    +0.000 A 
ATOM     19  C   UNL     1       5.298   3.377  14.503  0.00  0.00    +0.000 A 
ATOM     20  C   UNL     1       4.955   3.982  15.712  0.00  0.00    +0.000 A 
ATOM     21  C   UNL     1       5.672   5.098  16.150  0.00  0.00    +0.000 A 
ATOM     22  C   UNL     1       6.696   5.640  15.364  0.00  0.00    +0.000 A 
ENDBRANCH  13  21
ENDBRANCH  11  13
ENDBRANCH   1  11
BRANCH  10  23
ATOM     23  N   UNL     1       2.912   5.204  20.454  0.00  0.00    +0.000 N 
ATOM     24  H   UNL     1       3.657   4.808  19.879  0.00  0.00    +0.000 HD
BRANCH  23  25
ATOM     25  C   UNL     1       1.798   4.258  20.600  0.00  0.00    +0.000 C 
BRANCH  25  26
ATOM     26  C   UNL     1       2.100   2.917  19.914  0.00  0.00    +0.000 C 
ATOM     27  C   UNL     1       3.568   2.612  19.656  0.00  0.00    +0.000 C 
ATOM     28  C   UNL     1       3.489   1.704  18.452  0.00  0.00    +0.000 C 
ATOM     29  C   UNL     1       2.341   2.304  17.672  0.00  0.00    +0.000 C 
ATOM     30  O   UNL     1       1.439   2.868  18.630  0.00  0.00    +0.000 OA
ENDBRANCH  25  26
ENDBRANCH  23  25
ENDBRANCH  10  23
TORSDOF 6
ENDMDL
MODEL 8
REMARK VINA RESULT:      -7.7      1.563      2.237
REMARK  Name = 
REMARK  7 active torsions:
REMARK  status: ('A' for Active; 'I' for Inactive)
REMARK    1  A    between atoms: C_1  and  C_2
REMARK    2  A    between atoms: C_6  and  S_7
REMARK    3  A    between atoms: S_7  and  N_10
REMARK    4  A    between atoms: N_10  and  C_11
REMARK    5  A    between atoms: C_20  and  N_21
REMARK    6  A    between atoms: N_21  and  C_22
REMARK    7  A    between atoms: C_22  and  C_23
REMARK                            x       y       z     vdW  Elec       q    Type
REMARK                         _______ _______ _______ _____ _____    ______ ____
ROOT
ATOM      1  C   UNL     1       2.939   6.421  18.514  0.00  0.00    +0.000 A 
ATOM      2  N   UNL     1       2.673   7.552  17.829  0.00  0.00    +0.000 NA
ATOM      3  C   UNL     1       2.022   8.510  18.517  0.00  0.00    +0.000 A 
ATOM      4  C   UNL     1       1.711   9.717  17.900  0.00  0.00    +0.000 A 
ATOM      5  C   UNL     1       0.969  10.703  18.555  0.00  0.00    +0.000 A 
ATOM      6  C   UNL     1       0.528  10.480  19.854  0.00  0.00    +0.000 A 
ATOM      7  C   UNL     1       0.867   9.290  20.497  0.00  0.00    +0.000 A 
ATOM      8  C   UNL     1       1.621   8.311  19.862  0.00  0.00    +0.000 A 
ATOM      9  N   UNL     1       1.926   7.183  20.532  0.00  0.00    +0.000 NA
ATOM     10  C   UNL     1       2.589   6.217  19.864  0.00  0.00    +0.000 A 
ENDROOT
BRANCH   1  11
ATOM     11  N   UNL     1       3.597   5.434  17.735  0.00  0.00    +0.000 N 
ATOM     12  H   UNL     1       3.436   5.553  16.740  0.00  0.00    +0.000 HD
BRANCH  11  13
ATOM     13  S   UNL     1       5.252   5.281  18.016  0.00  0.00    +0.000 S 
ATOM     14  O   UNL     1       5.541   4.095  18.793  0.00  0.00    +0.000 OA
ATOM     15  O   UNL     1       5.692   6.590  18.464  0.00  0.00    +0.000 OA
BRANCH  13  21
ATOM     16  C   UNL     1       4.867   3.516  13.077  0.00  0.00    +0.000 C 
ATOM     17  C   UNL     1       5.694   4.192  14.131  0.00  0.00    +0.000 A 
ATOM     18  C   UNL     1       7.000   4.621  13.857  0.00  0.00    +0.000 A 
ATOM     19  C   UNL     1       7.769   5.238  14.847  0.00  0.00    +0.000 A 
ATOM     20  C   UNL     1       7.235   5.451  16.117  0.00  0.00    +0.000 A 
ATOM     21  C   UNL     1       5.924   5.049  16.388  0.00  0.00    +0.000 A 
ATOM     22  C   UNL     1       5.165   4.395  15.412  0.00  0.00    +0.000 A 
ENDBRANCH  13  21
ENDBRANCH  11  13
ENDBRANCH   1  11
BRANCH  10  23
ATOM     23  N   UNL     1       2.783   4.956  20.463  0.00  0.00    +0.000 N 
ATOM     24  H   UNL     1       3.541   4.512  19.946  0.00  0.00    +0.000 HD
BRANCH  23  25
ATOM     25  C   UNL     1       1.608   4.078  20.536  0.00  0.00    +0.000 C 
BRANCH  25  26
ATOM     26  C   UNL     1       1.819   2.782  19.738  0.00  0.00    +0.000 C 
ATOM     27  C   UNL     1       3.216   2.181  19.793  0.00  0.00    +0.000 C 
ATOM     28  C   UNL     1       3.288   1.445  18.476  0.00  0.00    +0.000 C 
ATOM     29  C   UNL     1       2.527   2.368  17.551  0.00  0.00    +0.000 C 
ATOM     30  O   UNL     1       1.528   3.018  18.343  0.00  0.00    +0.000 OA
ENDBRANCH  25  26
ENDBRANCH  23  25
ENDBRANCH  10  23
TORSDOF 6
ENDMDL
MODEL 9
REMARK VINA RESULT:      -7.7      1.787      5.886
REMARK  Name = 
REMARK  7 active torsions:
REMARK  status: ('A' for Active; 'I' for Inactive)
REMARK    1  A    between atoms: C_1  and  C_2
REMARK    2  A    between atoms: C_6  and  S_7
REMARK    3  A    between atoms: S_7  and  N_10
REMARK    4  A    between atoms: N_10  and  C_11
REMARK    5  A    between atoms: C_20  and  N_21
REMARK    6  A    between atoms: N_21  and  C_22
REMARK    7  A    between atoms: C_22  and  C_23
REMARK                            x       y       z     vdW  Elec       q    Type
REMARK                         _______ _______ _______ _____ _____    ______ ____
ROOT
ATOM      1  C   UNL     1       6.578   4.221  16.622  0.00  0.00    +0.000 A 
ATOM      2  N   UNL     1       7.478   4.699  15.739  0.00  0.00    +0.000 NA
ATOM      3  C   UNL     1       7.120   4.619  14.443  0.00  0.00    +0.000 A 
ATOM      4  C   UNL     1       7.978   5.094  13.455  0.00  0.00    +0.000 A 
ATOM      5  C   UNL     1       7.677   4.956  12.098  0.00  0.00    +0.000 A 
ATOM      6  C   UNL     1       6.496   4.333  11.717  0.00  0.00    +0.000 A 
ATOM      7  C   UNL     1       5.609   3.887  12.697  0.00  0.00    +0.000 A 
ATOM      8  C   UNL     1       5.889   4.035  14.050  0.00  0.00    +0.000 A 
ATOM      9  N   UNL     1       4.995   3.594  14.955  0.00  0.00    +0.000 NA
ATOM     10  C   UNL     1       5.329   3.678  16.259  0.00  0.00    +0.000 A 
ENDROOT
BRANCH   1  11
ATOM     11  N   UNL     1       7.016   4.302  17.969  0.00  0.00    +0.000 N 
ATOM     12  H   UNL     1       7.962   3.953  18.093  0.00  0.00    +0.000 HD
BRANCH  11  13
ATOM     13  S   UNL     1       6.888   5.825  18.678  0.00  0.00    +0.000 S 
ATOM     14  O   UNL     1       7.403   6.854  17.799  0.00  0.00    +0.000 OA
ATOM     15  O   UNL     1       7.404   5.671  20.026  0.00  0.00    +0.000 OA
BRANCH  13  21
ATOM     16  C   UNL     1       2.445   8.336  17.406  0.00  0.00    +0.000 C 
ATOM     17  C   UNL     1       3.124   7.273  18.220  0.00  0.00    +0.000 A 
ATOM     18  C   UNL     1       2.396   6.480  19.117  0.00  0.00    +0.000 A 
ATOM     19  C   UNL     1       3.037   5.500  19.881  0.00  0.00    +0.000 A 
ATOM     20  C   UNL     1       4.408   5.290  19.744  0.00  0.00    +0.000 A 
ATOM     21  C   UNL     1       5.133   6.061  18.830  0.00  0.00    +0.000 A 
ATOM     22  C   UNL     1       4.503   7.069  18.092  0.00  0.00    +0.000 A 
ENDBRANCH  13  21
ENDBRANCH  11  13
ENDBRANCH   1  11
BRANCH  10  23
ATOM     23  N   UNL     1       4.507   3.078  17.234  0.00  0.00    +0.000 N 
ATOM     24  H   UNL     1       4.830   2.114  17.322  0.00  0.00    +0.000 HD
BRANCH  23  25
ATOM     25  C   UNL     1       3.059   3.129  16.992  0.00  0.00    +0.000 C 
BRANCH  25  26
ATOM     26  C   UNL     1       2.280   2.320  18.041  0.00  0.00    +0.000 C 
ATOM     27  C   UNL     1       1.039   2.987  18.614  0.00  0.00    +0.000 C 
ATOM     28  C   UNL     1       0.947   2.348  19.980  0.00  0.00    +0.000 C 
ATOM     29  C   UNL     1       2.402   2.219  20.372  0.00  0.00    +0.000 C 
ATOM     30  O   UNL     1       3.141   2.022  19.162  0.00  0.00    +0.000 OA
ENDBRANCH  25  26
ENDBRANCH  23  25
ENDBRANCH  10  23
TORSDOF 6
ENDMDL
