MODEL 1
REMARK VINA RESULT:      -9.0      0.000      0.000
REMARK  Name = 
REMARK  8 active torsions:
REMARK  status: ('A' for Active; 'I' for Inactive)
REMARK    1  A    between atoms: C_1  and  S_2
REMARK    2  A    between atoms: S_2  and  C_5
REMARK    3  A    between atoms: C_9  and  C_10
REMARK    4  A    between atoms: C_13  and  C_14
REMARK    5  A    between atoms: C_14  and  C_15
REMARK    6  A    between atoms: C_15  and  C_16
REMARK    7  A    between atoms: C_15  and  N_18
REMARK    8  A    between atoms: C_19  and  C_21
REMARK                            x       y       z     vdW  Elec       q    Type
REMARK                         _______ _______ _______ _____ _____    ______ ____
ROOT
ATOM      1  C   UNL     1       8.520   9.092  18.599  0.00  0.00    +0.000 A 
ATOM      2  C   UNL     1       7.741   9.047  17.428  0.00  0.00    +0.000 A 
ATOM      3  C   UNL     1       7.200   7.843  16.950  0.00  0.00    +0.000 A 
ATOM      4  C   UNL     1       7.415   6.643  17.637  0.00  0.00    +0.000 A 
ATOM      5  C   UNL     1       8.194   6.685  18.794  0.00  0.00    +0.000 A 
ATOM      6  F   UNL     1       8.434   5.557  19.475  0.00  0.00    +0.000 F 
ATOM      7  C   UNL     1       8.737   7.876  19.267  0.00  0.00    +0.000 A 
ENDROOT
BRANCH   1  12
ATOM      8  C   UNL     1      10.198  12.501  18.719  0.00  0.00    +0.000 A 
ATOM      9  C   UNL     1      10.409  12.683  20.084  0.00  0.00    +0.000 A 
ATOM     10  C   UNL     1       9.978  11.700  20.967  0.00  0.00    +0.000 A 
ATOM     11  C   UNL     1       9.343  10.552  20.480  0.00  0.00    +0.000 A 
ATOM     12  C   UNL     1       9.121  10.349  19.102  0.00  0.00    +0.000 A 
ATOM     13  C   UNL     1       9.541  11.364  18.228  0.00  0.00    +0.000 A 
BRANCH   8  15
ATOM     14  C   UNL     1      12.333  14.216  18.354  0.00  0.00    +0.000 C 
ATOM     15  S   UNL     1      10.827  13.699  17.570  0.00  0.00    +0.000 S 
ATOM     16  O   UNL     1       9.913  14.821  17.555  0.00  0.00    +0.000 OA
ATOM     17  O   UNL     1      11.167  12.994  16.347  0.00  0.00    +0.000 OA
ENDBRANCH   8  15
ENDBRANCH   1  12
BRANCH   4  18
ATOM     18  C   UNL     1       6.842   5.336  17.138  0.00  0.00    +0.000 C 
BRANCH  18  19
ATOM     19  C   UNL     1       5.534   5.466  16.326  0.00  0.00    +0.000 C 
BRANCH  19  20
ATOM     20  N   UNL     1       4.406   4.870  17.056  0.00  0.00    +0.000 N 
ATOM     21  C   UNL     1       3.589   5.647  17.844  0.00  0.00    +0.000 C 
ATOM     22  O   UNL     1       3.765   6.855  17.967  0.00  0.00    +0.000 OA
ATOM     23  H   UNL     1       4.131   3.909  16.868  0.00  0.00    +0.000 HD
BRANCH  21  24
ATOM     24  C   UNL     1       2.424   4.898  18.511  0.00  0.00    +0.000 C 
ATOM     25  N   UNL     1       2.180   3.541  17.875  0.00  0.00    +0.000 NA
ATOM     26  C   UNL     1       2.320   2.595  19.020  0.00  0.00    +0.000 C 
ATOM     27  C   UNL     1       3.494   3.223  19.772  0.00  0.00    +0.000 C 
ATOM     28  C   UNL     1       2.746   4.546  19.985  0.00  0.00    +0.000 C 
ATOM     29  C   UNL     1       1.426   4.127  20.630  0.00  0.00    +0.000 C 
ATOM     30  C   UNL     1       1.208   2.870  21.438  0.00  0.00    +0.000 C 
ATOM     31  C   UNL     1       1.121   2.835  19.931  0.00  0.00    +0.000 C 
ATOM     32  H   UNL     1       2.956   3.341  17.242  0.00  0.00    +0.000 HD
ENDBRANCH  21  24
ENDBRANCH  19  20
BRANCH  19  33
ATOM     33  C   UNL     1       5.677   4.821  15.009  0.00  0.00    +0.000 C 
ATOM     34  N   UNL     1       5.789   4.282  13.984  0.00  0.00    +0.000 NA
ENDBRANCH  19  33
ENDBRANCH  18  19
ENDBRANCH   4  18
TORSDOF 7
ENDMDL
MODEL 2
REMARK VINA RESULT:      -9.0      7.047      9.529
REMARK  Name = 
REMARK  8 active torsions:
REMARK  status: ('A' for Active; 'I' for Inactive)
REMARK    1  A    between atoms: C_1  and  S_2
REMARK    2  A    between atoms: S_2  and  C_5
REMARK    3  A    between atoms: C_9  and  C_10
REMARK    4  A    between atoms: C_13  and  C_14
REMARK    5  A    between atoms: C_14  and  C_15
REMARK    6  A    between atoms: C_15  and  C_16
REMARK    7  A    between atoms: C_15  and  N_18
REMARK    8  A    between atoms: C_19  and  C_21
REMARK                            x       y       z     vdW  Elec       q    Type
REMARK                         _______ _______ _______ _____ _____    ______ ____
ROOT
ATOM      1  C   UNL     1       2.744   7.211  18.470  0.00  0.00    +0.000 A 
ATOM      2  C   UNL     1       2.171   7.232  19.755  0.00  0.00    +0.000 A 
ATOM      3  C   UNL     1       1.509   8.368  20.247  0.00  0.00    +0.000 A 
ATOM      4  C   UNL     1       1.392   9.520  19.462  0.00  0.00    +0.000 A 
ATOM      5  C   UNL     1       1.967   9.504  18.191  0.00  0.00    +0.000 A 
ATOM      6  F   UNL     1       1.888  10.590  17.411  0.00  0.00    +0.000 F 
ATOM      7  C   UNL     1       2.629   8.381  17.702  0.00  0.00    +0.000 A 
ENDROOT
BRANCH   1  12
ATOM      8  C   UNL     1       5.447   5.012  16.951  0.00  0.00    +0.000 A 
ATOM      9  C   UNL     1       4.792   3.791  16.802  0.00  0.00    +0.000 A 
ATOM     10  C   UNL     1       3.472   3.682  17.223  0.00  0.00    +0.000 A 
ATOM     11  C   UNL     1       2.824   4.788  17.787  0.00  0.00    +0.000 A 
ATOM     12  C   UNL     1       3.470   6.031  17.946  0.00  0.00    +0.000 A 
ATOM     13  C   UNL     1       4.810   6.115  17.537  0.00  0.00    +0.000 A 
BRANCH   8  15
ATOM     14  C   UNL     1       6.914   4.750  14.624  0.00  0.00    +0.000 C 
ATOM     15  S   UNL     1       7.100   5.199  16.331  0.00  0.00    +0.000 S 
ATOM     16  O   UNL     1       7.930   4.202  16.975  0.00  0.00    +0.000 OA
ATOM     17  O   UNL     1       7.436   6.609  16.400  0.00  0.00    +0.000 OA
ENDBRANCH   8  15
ENDBRANCH   1  12
BRANCH   4  18
ATOM     18  C   UNL     1       0.684  10.754  19.974  0.00  0.00    +0.000 C 
BRANCH  18  19
ATOM     19  C   UNL     1      -0.691  10.492  20.629  0.00  0.00    +0.000 C 
BRANCH  19  20
ATOM     20  N   UNL     1      -1.726  11.342  20.027  0.00  0.00    +0.000 N 
ATOM     21  C   UNL     1      -2.270  11.028  18.802  0.00  0.00    +0.000 C 
ATOM     22  O   UNL     1      -1.917  10.035  18.173  0.00  0.00    +0.000 OA
ATOM     23  H   UNL     1      -2.155  12.085  20.573  0.00  0.00    +0.000 HD
BRANCH  21  24
ATOM     24  C   UNL     1      -3.373  11.980  18.315  0.00  0.00    +0.000 C 
ATOM     25  N   UNL     1      -3.696  11.774  16.846  0.00  0.00    +0.000 NA
ATOM     26  C   UNL     1      -5.156  11.463  16.856  0.00  0.00    +0.000 C 
ATOM     27  C   UNL     1      -5.255  10.583  18.103  0.00  0.00    +0.000 C 
ATOM     28  C   UNL     1      -4.722  11.692  19.019  0.00  0.00    +0.000 C 
ATOM     29  C   UNL     1      -5.630  12.886  18.724  0.00  0.00    +0.000 C 
ATOM     30  C   UNL     1      -7.044  12.801  18.200  0.00  0.00    +0.000 C 
ATOM     31  C   UNL     1      -5.871  12.751  17.249  0.00  0.00    +0.000 C 
ATOM     32  H   UNL     1      -3.226  10.924  16.532  0.00  0.00    +0.000 HD
ENDBRANCH  21  24
ENDBRANCH  19  20
BRANCH  19  33
ATOM     33  C   UNL     1      -0.625  10.733  22.081  0.00  0.00    +0.000 C 
ATOM     34  N   UNL     1      -0.544  10.936  23.224  0.00  0.00    +0.000 NA
ENDBRANCH  19  33
ENDBRANCH  18  19
ENDBRANCH   4  18
TORSDOF 7
ENDMDL
MODEL 3
REMARK VINA RESULT:      -9.0      7.420      9.694
REMARK  Name = 
REMARK  8 active torsions:
REMARK  status: ('A' for Active; 'I' for Inactive)
REMARK    1  A    between atoms: C_1  and  S_2
REMARK    2  A    between atoms: S_2  and  C_5
REMARK    3  A    between atoms: C_9  and  C_10
REMARK    4  A    between atoms: C_13  and  C_14
REMARK    5  A    between atoms: C_14  and  C_15
REMARK    6  A    between atoms: C_15  and  C_16
REMARK    7  A    between atoms: C_15  and  N_18
REMARK    8  A    between atoms: C_19  and  C_21
REMARK                            x       y       z     vdW  Elec       q    Type
REMARK                         _______ _______ _______ _____ _____    ______ ____
ROOT
ATOM      1  C   UNL     1       2.559   7.370  18.498  0.00  0.00    +0.000 A 
ATOM      2  C   UNL     1       2.295   8.427  17.607  0.00  0.00    +0.000 A 
ATOM      3  C   UNL     1       1.521   9.535  17.988  0.00  0.00    +0.000 A 
ATOM      4  C   UNL     1       0.993   9.624  19.280  0.00  0.00    +0.000 A 
ATOM      5  C   UNL     1       1.247   8.573  20.162  0.00  0.00    +0.000 A 
ATOM      6  F   UNL     1       0.749   8.613  21.405  0.00  0.00    +0.000 F 
ATOM      7  C   UNL     1       2.008   7.470  19.786  0.00  0.00    +0.000 A 
ENDROOT
BRANCH   1  12
ATOM      8  C   UNL     1       5.393   5.168  17.246  0.00  0.00    +0.000 A 
ATOM      9  C   UNL     1       4.800   3.908  17.211  0.00  0.00    +0.000 A 
ATOM     10  C   UNL     1       3.479   3.775  17.622  0.00  0.00    +0.000 A 
ATOM     11  C   UNL     1       2.768   4.898  18.063  0.00  0.00    +0.000 A 
ATOM     12  C   UNL     1       3.350   6.181  18.105  0.00  0.00    +0.000 A 
ATOM     13  C   UNL     1       4.692   6.291  17.709  0.00  0.00    +0.000 A 
BRANCH   8  15
ATOM     14  C   UNL     1       6.908   4.772  14.969  0.00  0.00    +0.000 C 
ATOM     15  S   UNL     1       7.046   5.374  16.633  0.00  0.00    +0.000 S 
ATOM     16  O   UNL     1       7.908   4.475  17.373  0.00  0.00    +0.000 OA
ATOM     17  O   UNL     1       7.319   6.799  16.583  0.00  0.00    +0.000 OA
ENDBRANCH   8  15
ENDBRANCH   1  12
BRANCH   4  18
ATOM     18  C   UNL     1       0.156  10.808  19.709  0.00  0.00    +0.000 C 
BRANCH  18  19
ATOM     19  C   UNL     1       0.816  11.727  20.761  0.00  0.00    +0.000 C 
BRANCH  19  20
ATOM     20  N   UNL     1      -0.196  12.523  21.467  0.00  0.00    +0.000 N 
ATOM     21  C   UNL     1      -0.772  12.058  22.627  0.00  0.00    +0.000 C 
ATOM     22  O   UNL     1      -0.467  10.974  23.113  0.00  0.00    +0.000 OA
ATOM     23  H   UNL     1      -0.371  13.485  21.189  0.00  0.00    +0.000 HD
BRANCH  21  24
ATOM     24  C   UNL     1      -1.782  13.016  23.282  0.00  0.00    +0.000 C 
ATOM     25  N   UNL     1      -1.965  14.288  22.475  0.00  0.00    +0.000 NA
ATOM     26  C   UNL     1      -3.430  14.306  22.191  0.00  0.00    +0.000 C 
ATOM     27  C   UNL     1      -3.689  12.825  21.917  0.00  0.00    +0.000 C 
ATOM     28  C   UNL     1      -3.205  12.405  23.311  0.00  0.00    +0.000 C 
ATOM     29  C   UNL     1      -4.029  13.269  24.266  0.00  0.00    +0.000 C 
ATOM     30  C   UNL     1      -5.385  13.858  23.962  0.00  0.00    +0.000 C 
ATOM     31  C   UNL     1      -4.127  14.568  23.522  0.00  0.00    +0.000 C 
ATOM     32  H   UNL     1      -1.501  14.165  21.573  0.00  0.00    +0.000 HD
ENDBRANCH  21  24
ENDBRANCH  19  20
BRANCH  19  33
ATOM     33  C   UNL     1       1.801  12.618  20.123  0.00  0.00    +0.000 C 
ATOM     34  N   UNL     1       2.563  13.348  19.633  0.00  0.00    +0.000 NA
ENDBRANCH  19  33
ENDBRANCH  18  19
ENDBRANCH   4  18
TORSDOF 7
ENDMDL
MODEL 4
REMARK VINA RESULT:      -8.7      7.721     10.394
REMARK  Name = 
REMARK  8 active torsions:
REMARK  status: ('A' for Active; 'I' for Inactive)
REMARK    1  A    between atoms: C_1  and  S_2
REMARK    2  A    between atoms: S_2  and  C_5
REMARK    3  A    between atoms: C_9  and  C_10
REMARK    4  A    between atoms: C_13  and  C_14
REMARK    5  A    between atoms: C_14  and  C_15
REMARK    6  A    between atoms: C_15  and  C_16
REMARK    7  A    between atoms: C_15  and  N_18
REMARK    8  A    between atoms: C_19  and  C_21
REMARK                            x       y       z     vdW  Elec       q    Type
REMARK                         _______ _______ _______ _____ _____    ______ ____
ROOT
ATOM      1  C   UNL     1       2.554   7.450  18.634  0.00  0.00    +0.000 A 
ATOM      2  C   UNL     1       2.293   8.491  17.725  0.00  0.00    +0.000 A 
ATOM      3  C   UNL     1       1.502   9.596  18.079  0.00  0.00    +0.000 A 
ATOM      4  C   UNL     1       0.952   9.696  19.361  0.00  0.00    +0.000 A 
ATOM      5  C   UNL     1       1.203   8.661  20.261  0.00  0.00    +0.000 A 
ATOM      6  F   UNL     1       0.685   8.712  21.495  0.00  0.00    +0.000 F 
ATOM      7  C   UNL     1       1.982   7.561  19.912  0.00  0.00    +0.000 A 
ENDROOT
BRANCH   1  12
ATOM      8  C   UNL     1       4.005   3.936  18.597  0.00  0.00    +0.000 A 
ATOM      9  C   UNL     1       5.031   4.045  17.661  0.00  0.00    +0.000 A 
ATOM     10  C   UNL     1       5.231   5.264  17.023  0.00  0.00    +0.000 A 
ATOM     11  C   UNL     1       4.406   6.355  17.325  0.00  0.00    +0.000 A 
ATOM     12  C   UNL     1       3.364   6.264  18.269  0.00  0.00    +0.000 A 
ATOM     13  C   UNL     1       3.162   5.019  18.885  0.00  0.00    +0.000 A 
BRANCH   8  15
ATOM     14  C   UNL     1       2.555   2.853  20.685  0.00  0.00    +0.000 C 
ATOM     15  S   UNL     1       3.796   2.418  19.493  0.00  0.00    +0.000 S 
ATOM     16  O   UNL     1       5.031   2.148  20.200  0.00  0.00    +0.000 OA
ATOM     17  O   UNL     1       3.230   1.444  18.577  0.00  0.00    +0.000 OA
ENDBRANCH   8  15
ENDBRANCH   1  12
BRANCH   4  18
ATOM     18  C   UNL     1       0.096  10.877  19.761  0.00  0.00    +0.000 C 
BRANCH  18  19
ATOM     19  C   UNL     1       0.699  11.777  20.863  0.00  0.00    +0.000 C 
BRANCH  19  20
ATOM     20  N   UNL     1      -0.353  12.543  21.544  0.00  0.00    +0.000 N 
ATOM     21  C   UNL     1      -0.909  12.085  22.716  0.00  0.00    +0.000 C 
ATOM     22  O   UNL     1      -0.553  11.031  23.234  0.00  0.00    +0.000 OA
ATOM     23  H   UNL     1      -0.573  13.487  21.238  0.00  0.00    +0.000 HD
BRANCH  21  24
ATOM     24  C   UNL     1      -1.965  13.011  23.341  0.00  0.00    +0.000 C 
ATOM     25  N   UNL     1      -2.153  14.285  22.538  0.00  0.00    +0.000 NA
ATOM     26  C   UNL     1      -3.607  14.268  22.202  0.00  0.00    +0.000 C 
ATOM     27  C   UNL     1      -3.817  12.782  21.907  0.00  0.00    +0.000 C 
ATOM     28  C   UNL     1      -3.372  12.364  23.315  0.00  0.00    +0.000 C 
ATOM     29  C   UNL     1      -4.252  13.198  24.246  0.00  0.00    +0.000 C 
ATOM     30  C   UNL     1      -5.611  13.756  23.897  0.00  0.00    +0.000 C 
ATOM     31  C   UNL     1      -4.357  14.501  23.508  0.00  0.00    +0.000 C 
ATOM     32  H   UNL     1      -1.654  14.181  21.652  0.00  0.00    +0.000 HD
ENDBRANCH  21  24
ENDBRANCH  19  20
BRANCH  19  33
ATOM     33  C   UNL     1       1.699  12.695  20.290  0.00  0.00    +0.000 C 
ATOM     34  N   UNL     1       2.464  13.443  19.834  0.00  0.00    +0.000 NA
ENDBRANCH  19  33
ENDBRANCH  18  19
ENDBRANCH   4  18
TORSDOF 7
ENDMDL
MODEL 5
REMARK VINA RESULT:      -8.7      6.384      9.859
REMARK  Name = 
REMARK  8 active torsions:
REMARK  status: ('A' for Active; 'I' for Inactive)
REMARK    1  A    between atoms: C_1  and  S_2
REMARK    2  A    between atoms: S_2  and  C_5
REMARK    3  A    between atoms: C_9  and  C_10
REMARK    4  A    between atoms: C_13  and  C_14
REMARK    5  A    between atoms: C_14  and  C_15
REMARK    6  A    between atoms: C_15  and  C_16
REMARK    7  A    between atoms: C_15  and  N_18
REMARK    8  A    between atoms: C_19  and  C_21
REMARK                            x       y       z     vdW  Elec       q    Type
REMARK                         _______ _______ _______ _____ _____    ______ ____
ROOT
ATOM      1  C   UNL     1       2.657   7.104  18.548  0.00  0.00    +0.000 A 
ATOM      2  C   UNL     1       2.277   8.214  17.772  0.00  0.00    +0.000 A 
ATOM      3  C   UNL     1       1.537   9.276  18.318  0.00  0.00    +0.000 A 
ATOM      4  C   UNL     1       1.161   9.263  19.665  0.00  0.00    +0.000 A 
ATOM      5  C   UNL     1       1.531   8.159  20.434  0.00  0.00    +0.000 A 
ATOM      6  F   UNL     1       1.180   8.102  21.726  0.00  0.00    +0.000 F 
ATOM      7  C   UNL     1       2.259   7.102  19.895  0.00  0.00    +0.000 A 
ENDROOT
BRANCH   1  12
ATOM      8  C   UNL     1       5.429   5.028  16.981  0.00  0.00    +0.000 A 
ATOM      9  C   UNL     1       4.799   3.805  16.761  0.00  0.00    +0.000 A 
ATOM     10  C   UNL     1       3.473   3.653  17.149  0.00  0.00    +0.000 A 
ATOM     11  C   UNL     1       2.794   4.719  17.751  0.00  0.00    +0.000 A 
ATOM     12  C   UNL     1       3.414   5.964  17.983  0.00  0.00    +0.000 A 
ATOM     13  C   UNL     1       4.760   6.090  17.606  0.00  0.00    +0.000 A 
BRANCH   8  15
ATOM     14  C   UNL     1       6.969   4.796  14.699  0.00  0.00    +0.000 C 
ATOM     15  S   UNL     1       7.090   5.273  16.405  0.00  0.00    +0.000 S 
ATOM     16  O   UNL     1       7.940   4.318  17.085  0.00  0.00    +0.000 OA
ATOM     17  O   UNL     1       7.367   6.697  16.463  0.00  0.00    +0.000 OA
ENDBRANCH   8  15
ENDBRANCH   1  12
BRANCH   4  18
ATOM     18  C   UNL     1       0.363  10.395  20.271  0.00  0.00    +0.000 C 
BRANCH  18  19
ATOM     19  C   UNL     1       0.147  11.611  19.341  0.00  0.00    +0.000 C 
BRANCH  19  20
ATOM     20  N   UNL     1       0.978  12.745  19.765  0.00  0.00    +0.000 N 
ATOM     21  C   UNL     1       2.120  13.078  19.072  0.00  0.00    +0.000 C 
ATOM     22  O   UNL     1       2.485  12.449  18.084  0.00  0.00    +0.000 OA
ATOM     23  H   UNL     1       0.640  13.384  20.480  0.00  0.00    +0.000 HD
BRANCH  21  24
ATOM     24  C   UNL     1       2.866  14.314  19.601  0.00  0.00    +0.000 C 
ATOM     25  N   UNL     1       3.733  14.955  18.532  0.00  0.00    +0.000 NA
ATOM     26  C   UNL     1       3.218  16.354  18.467  0.00  0.00    +0.000 C 
ATOM     27  C   UNL     1       1.715  16.116  18.616  0.00  0.00    +0.000 C 
ATOM     28  C   UNL     1       1.883  15.447  19.987  0.00  0.00    +0.000 C 
ATOM     29  C   UNL     1       2.686  16.461  20.800  0.00  0.00    +0.000 C 
ATOM     30  C   UNL     1       2.718  17.951  20.554  0.00  0.00    +0.000 C 
ATOM     31  C   UNL     1       3.622  17.028  19.773  0.00  0.00    +0.000 C 
ATOM     32  H   UNL     1       3.506  14.525  17.634  0.00  0.00    +0.000 HD
ENDBRANCH  21  24
ENDBRANCH  19  20
BRANCH  19  33
ATOM     33  C   UNL     1      -1.272  12.005  19.328  0.00  0.00    +0.000 C 
ATOM     34  N   UNL     1      -2.397  12.301  19.289  0.00  0.00    +0.000 NA
ENDBRANCH  19  33
ENDBRANCH  18  19
ENDBRANCH   4  18
TORSDOF 7
ENDMDL
MODEL 6
REMARK VINA RESULT:      -8.6      7.261      9.782
REMARK  Name = 
REMARK  8 active torsions:
REMARK  status: ('A' for Active; 'I' for Inactive)
REMARK    1  A    between atoms: C_1  and  S_2
REMARK    2  A    between atoms: S_2  and  C_5
REMARK    3  A    between atoms: C_9  and  C_10
REMARK    4  A    between atoms: C_13  and  C_14
REMARK    5  A    between atoms: C_14  and  C_15
REMARK    6  A    between atoms: C_15  and  C_16
REMARK    7  A    between atoms: C_15  and  N_18
REMARK    8  A    between atoms: C_19  and  C_21
REMARK                            x       y       z     vdW  Elec       q    Type
REMARK                         _______ _______ _______ _____ _____    ______ ____
ROOT
ATOM      1  C   UNL     1       2.387   7.491  18.537  0.00  0.00    +0.000 A 
ATOM      2  C   UNL     1       2.108   8.575  17.684  0.00  0.00    +0.000 A 
ATOM      3  C   UNL     1       1.511   9.752  18.162  0.00  0.00    +0.000 A 
ATOM      4  C   UNL     1       1.181   9.885  19.515  0.00  0.00    +0.000 A 
ATOM      5  C   UNL     1       1.449   8.808  20.360  0.00  0.00    +0.000 A 
ATOM      6  F   UNL     1       1.137   8.889  21.660  0.00  0.00    +0.000 F 
ATOM      7  C   UNL     1       2.036   7.636  19.889  0.00  0.00    +0.000 A 
ENDROOT
BRANCH   1  12
ATOM      8  C   UNL     1       4.858   4.995  17.082  0.00  0.00    +0.000 A 
ATOM      9  C   UNL     1       4.085   3.842  16.964  0.00  0.00    +0.000 A 
ATOM     10  C   UNL     1       2.761   3.875  17.385  0.00  0.00    +0.000 A 
ATOM     11  C   UNL     1       2.226   5.054  17.918  0.00  0.00    +0.000 A 
ATOM     12  C   UNL     1       2.992   6.231  18.045  0.00  0.00    +0.000 A 
ATOM     13  C   UNL     1       4.334   6.171  17.637  0.00  0.00    +0.000 A 
BRANCH   8  15
ATOM     14  C   UNL     1       6.417   3.870  15.097  0.00  0.00    +0.000 C 
ATOM     15  S   UNL     1       6.521   5.001  16.461  0.00  0.00    +0.000 S 
ATOM     16  O   UNL     1       7.374   4.415  17.474  0.00  0.00    +0.000 OA
ATOM     17  O   UNL     1       6.787   6.328  15.935  0.00  0.00    +0.000 OA
ENDBRANCH   8  15
ENDBRANCH   1  12
BRANCH   4  18
ATOM     18  C   UNL     1       0.535  11.144  20.048  0.00  0.00    +0.000 C 
BRANCH  18  19
ATOM     19  C   UNL     1      -0.840  10.937  20.721  0.00  0.00    +0.000 C 
BRANCH  19  20
ATOM     20  N   UNL     1      -1.881  11.710  20.030  0.00  0.00    +0.000 N 
ATOM     21  C   UNL     1      -2.476  11.224  18.888  0.00  0.00    +0.000 C 
ATOM     22  O   UNL     1      -2.165  10.138  18.408  0.00  0.00    +0.000 OA
ATOM     23  H   UNL     1      -2.275  12.538  20.469  0.00  0.00    +0.000 HD
BRANCH  21  24
ATOM     24  C   UNL     1      -3.578  12.117  18.297  0.00  0.00    +0.000 C 
ATOM     25  N   UNL     1      -3.922  11.728  16.871  0.00  0.00    +0.000 NA
ATOM     26  C   UNL     1      -5.384  11.435  16.938  0.00  0.00    +0.000 C 
ATOM     27  C   UNL     1      -5.473  10.721  18.287  0.00  0.00    +0.000 C 
ATOM     28  C   UNL     1      -4.920  11.933  19.049  0.00  0.00    +0.000 C 
ATOM     29  C   UNL     1      -5.823  13.088  18.616  0.00  0.00    +0.000 C 
ATOM     30  C   UNL     1      -7.244  12.950  18.124  0.00  0.00    +0.000 C 
ATOM     31  C   UNL     1      -6.084  12.769  17.173  0.00  0.00    +0.000 C 
ATOM     32  H   UNL     1      -3.463  10.841  16.661  0.00  0.00    +0.000 HD
ENDBRANCH  21  24
ENDBRANCH  19  20
BRANCH  19  33
ATOM     33  C   UNL     1      -0.784  11.327  22.141  0.00  0.00    +0.000 C 
ATOM     34  N   UNL     1      -0.708  11.628  23.262  0.00  0.00    +0.000 NA
ENDBRANCH  19  33
ENDBRANCH  18  19
ENDBRANCH   4  18
TORSDOF 7
ENDMDL
MODEL 7
REMARK VINA RESULT:      -8.6      7.440      9.667
REMARK  Name = 
REMARK  8 active torsions:
REMARK  status: ('A' for Active; 'I' for Inactive)
REMARK    1  A    between atoms: C_1  and  S_2
REMARK    2  A    between atoms: S_2  and  C_5
REMARK    3  A    between atoms: C_9  and  C_10
REMARK    4  A    between atoms: C_13  and  C_14
REMARK    5  A    between atoms: C_14  and  C_15
REMARK    6  A    between atoms: C_15  and  C_16
REMARK    7  A    between atoms: C_15  and  N_18
REMARK    8  A    between atoms: C_19  and  C_21
REMARK                            x       y       z     vdW  Elec       q    Type
REMARK                         _______ _______ _______ _____ _____    ______ ____
ROOT
ATOM      1  C   UNL     1       2.529   7.231  18.688  0.00  0.00    +0.000 A 
ATOM      2  C   UNL     1       2.075   7.324  20.016  0.00  0.00    +0.000 A 
ATOM      3  C   UNL     1       1.260   8.385  20.443  0.00  0.00    +0.000 A 
ATOM      4  C   UNL     1       0.867   9.386  19.548  0.00  0.00    +0.000 A 
ATOM      5  C   UNL     1       1.323   9.300  18.233  0.00  0.00    +0.000 A 
ATOM      6  F   UNL     1       0.980  10.244  17.347  0.00  0.00    +0.000 F 
ATOM      7  C   UNL     1       2.136   8.252  17.807  0.00  0.00    +0.000 A 
ENDROOT
BRANCH   1  12
ATOM      8  C   UNL     1       5.610   5.272  17.632  0.00  0.00    +0.000 A 
ATOM      9  C   UNL     1       5.065   4.067  17.196  0.00  0.00    +0.000 A 
ATOM     10  C   UNL     1       3.689   3.886  17.273  0.00  0.00    +0.000 A 
ATOM     11  C   UNL     1       2.877   4.907  17.782  0.00  0.00    +0.000 A 
ATOM     12  C   UNL     1       3.410   6.134  18.227  0.00  0.00    +0.000 A 
ATOM     13  C   UNL     1       4.804   6.287  18.164  0.00  0.00    +0.000 A 
BRANCH   8  15
ATOM     14  C   UNL     1       7.860   5.853  19.128  0.00  0.00    +0.000 C 
ATOM     15  S   UNL     1       7.353   5.559  17.452  0.00  0.00    +0.000 S 
ATOM     16  O   UNL     1       7.525   6.786  16.703  0.00  0.00    +0.000 OA
ATOM     17  O   UNL     1       7.956   4.317  17.003  0.00  0.00    +0.000 OA
ENDBRANCH   8  15
ENDBRANCH   1  12
BRANCH   4  18
ATOM     18  C   UNL     1      -0.007  10.538  19.989  0.00  0.00    +0.000 C 
BRANCH  18  19
ATOM     19  C   UNL     1       0.670  11.539  20.952  0.00  0.00    +0.000 C 
BRANCH  19  20
ATOM     20  N   UNL     1      -0.334  12.372  21.628  0.00  0.00    +0.000 N 
ATOM     21  C   UNL     1      -0.954  11.933  22.775  0.00  0.00    +0.000 C 
ATOM     22  O   UNL     1      -0.697  10.841  23.274  0.00  0.00    +0.000 OA
ATOM     23  H   UNL     1      -0.470  13.338  21.341  0.00  0.00    +0.000 HD
BRANCH  21  24
ATOM     24  C   UNL     1      -1.948  12.926  23.400  0.00  0.00    +0.000 C 
ATOM     25  N   UNL     1      -2.058  14.205  22.590  0.00  0.00    +0.000 NA
ATOM     26  C   UNL     1      -3.512  14.278  22.260  0.00  0.00    +0.000 C 
ATOM     27  C   UNL     1      -3.817  12.807  21.974  0.00  0.00    +0.000 C 
ATOM     28  C   UNL     1      -3.393  12.368  23.382  0.00  0.00    +0.000 C 
ATOM     29  C   UNL     1      -4.214  13.260  24.312  0.00  0.00    +0.000 C 
ATOM     30  C   UNL     1      -5.538  13.900  23.966  0.00  0.00    +0.000 C 
ATOM     31  C   UNL     1      -4.240  14.563  23.568  0.00  0.00    +0.000 C 
ATOM     32  H   UNL     1      -1.571  14.066  21.704  0.00  0.00    +0.000 HD
ENDBRANCH  21  24
ENDBRANCH  19  20
BRANCH  19  33
ATOM     33  C   UNL     1       1.622  12.394  20.221  0.00  0.00    +0.000 C 
ATOM     34  N   UNL     1       2.348  13.086  19.631  0.00  0.00    +0.000 NA
ENDBRANCH  19  33
ENDBRANCH  18  19
ENDBRANCH   4  18
TORSDOF 7
ENDMDL
MODEL 8
REMARK VINA RESULT:      -8.5      7.070     10.058
REMARK  Name = 
REMARK  8 active torsions:
REMARK  status: ('A' for Active; 'I' for Inactive)
REMARK    1  A    between atoms: C_1  and  S_2
REMARK    2  A    between atoms: S_2  and  C_5
REMARK    3  A    between atoms: C_9  and  C_10
REMARK    4  A    between atoms: C_13  and  C_14
REMARK    5  A    between atoms: C_14  and  C_15
REMARK    6  A    between atoms: C_15  and  C_16
REMARK    7  A    between atoms: C_15  and  N_18
REMARK    8  A    between atoms: C_19  and  C_21
REMARK                            x       y       z     vdW  Elec       q    Type
REMARK                         _______ _______ _______ _____ _____    ______ ____
ROOT
ATOM      1  C   UNL     1       2.556   7.251  18.599  0.00  0.00    +0.000 A 
ATOM      2  C   UNL     1       2.220   8.311  17.737  0.00  0.00    +0.000 A 
ATOM      3  C   UNL     1       1.466   9.409  18.181  0.00  0.00    +0.000 A 
ATOM      4  C   UNL     1       1.031   9.484  19.508  0.00  0.00    +0.000 A 
ATOM      5  C   UNL     1       1.356   8.430  20.362  0.00  0.00    +0.000 A 
ATOM      6  F   UNL     1       0.949   8.457  21.637  0.00  0.00    +0.000 F 
ATOM      7  C   UNL     1       2.099   7.337  19.924  0.00  0.00    +0.000 A 
ENDROOT
BRANCH   1  12
ATOM      8  C   UNL     1       5.426   5.019  17.490  0.00  0.00    +0.000 A 
ATOM      9  C   UNL     1       4.769   3.849  17.116  0.00  0.00    +0.000 A 
ATOM     10  C   UNL     1       3.388   3.782  17.252  0.00  0.00    +0.000 A 
ATOM     11  C   UNL     1       2.681   4.880  17.758  0.00  0.00    +0.000 A 
ATOM     12  C   UNL     1       3.328   6.073  18.141  0.00  0.00    +0.000 A 
ATOM     13  C   UNL     1       4.726   6.112  18.019  0.00  0.00    +0.000 A 
BRANCH   8  15
ATOM     14  C   UNL     1       7.452   6.899  17.455  0.00  0.00    +0.000 C 
ATOM     15  S   UNL     1       7.178   5.159  17.234  0.00  0.00    +0.000 S 
ATOM     16  O   UNL     1       7.451   4.827  15.851  0.00  0.00    +0.000 OA
ATOM     17  O   UNL     1       7.836   4.450  18.317  0.00  0.00    +0.000 OA
ENDBRANCH   8  15
ENDBRANCH   1  12
BRANCH   4  18
ATOM     18  C   UNL     1       0.216  10.657  20.005  0.00  0.00    +0.000 C 
BRANCH  18  19
ATOM     19  C   UNL     1      -0.106  11.726  18.937  0.00  0.00    +0.000 C 
BRANCH  19  20
ATOM     20  N   UNL     1       0.335  13.056  19.380  0.00  0.00    +0.000 N 
ATOM     21  C   UNL     1       1.451  13.645  18.832  0.00  0.00    +0.000 C 
ATOM     22  O   UNL     1       2.115  13.092  17.961  0.00  0.00    +0.000 OA
ATOM     23  H   UNL     1      -0.262  13.614  19.985  0.00  0.00    +0.000 HD
BRANCH  21  24
ATOM     24  C   UNL     1       1.768  15.055  19.358  0.00  0.00    +0.000 C 
ATOM     25  N   UNL     1       2.294  15.966  18.263  0.00  0.00    +0.000 NA
ATOM     26  C   UNL     1       1.333  17.107  18.276  0.00  0.00    +0.000 C 
ATOM     27  C   UNL     1       0.013  16.370  18.505  0.00  0.00    +0.000 C 
ATOM     28  C   UNL     1       0.488  15.781  19.840  0.00  0.00    +0.000 C 
ATOM     29  C   UNL     1       0.953  16.998  20.638  0.00  0.00    +0.000 C 
ATOM     30  C   UNL     1       0.462  18.413  20.442  0.00  0.00    +0.000 C 
ATOM     31  C   UNL     1       1.572  17.862  19.578  0.00  0.00    +0.000 C 
ATOM     32  H   UNL     1       2.167  15.495  17.366  0.00  0.00    +0.000 HD
ENDBRANCH  21  24
ENDBRANCH  19  20
BRANCH  19  33
ATOM     33  C   UNL     1      -1.550  11.747  18.646  0.00  0.00    +0.000 C 
ATOM     34  N   UNL     1      -2.696  11.773  18.448  0.00  0.00    +0.000 NA
ENDBRANCH  19  33
ENDBRANCH  18  19
ENDBRANCH   4  18
TORSDOF 7
ENDMDL
MODEL 9
REMARK VINA RESULT:      -8.4      6.322      9.780
REMARK  Name = 
REMARK  8 active torsions:
REMARK  status: ('A' for Active; 'I' for Inactive)
REMARK    1  A    between atoms: C_1  and  S_2
REMARK    2  A    between atoms: S_2  and  C_5
REMARK    3  A    between atoms: C_9  and  C_10
REMARK    4  A    between atoms: C_13  and  C_14
REMARK    5  A    between atoms: C_14  and  C_15
REMARK    6  A    between atoms: C_15  and  C_16
REMARK    7  A    between atoms: C_15  and  N_18
REMARK    8  A    between atoms: C_19  and  C_21
REMARK                            x       y       z     vdW  Elec       q    Type
REMARK                         _______ _______ _______ _____ _____    ______ ____
ROOT
ATOM      1  C   UNL     1       2.559   7.240  18.591  0.00  0.00    +0.000 A 
ATOM      2  C   UNL     1       2.236   8.305  17.732  0.00  0.00    +0.000 A 
ATOM      3  C   UNL     1       1.494   9.411  18.176  0.00  0.00    +0.000 A 
ATOM      4  C   UNL     1       1.057   9.489  19.503  0.00  0.00    +0.000 A 
ATOM      5  C   UNL     1       1.369   8.429  20.355  0.00  0.00    +0.000 A 
ATOM      6  F   UNL     1       0.960   8.458  21.630  0.00  0.00    +0.000 F 
ATOM      7  C   UNL     1       2.100   7.328  19.916  0.00  0.00    +0.000 A 
ENDROOT
BRANCH   1  12
ATOM      8  C   UNL     1       5.401   4.983  17.461  0.00  0.00    +0.000 A 
ATOM      9  C   UNL     1       4.732   3.813  17.107  0.00  0.00    +0.000 A 
ATOM     10  C   UNL     1       3.352   3.755  17.263  0.00  0.00    +0.000 A 
ATOM     11  C   UNL     1       2.659   4.861  17.770  0.00  0.00    +0.000 A 
ATOM     12  C   UNL     1       3.317   6.053  18.133  0.00  0.00    +0.000 A 
ATOM     13  C   UNL     1       4.714   6.084  17.990  0.00  0.00    +0.000 A 
BRANCH   8  15
ATOM     14  C   UNL     1       7.442   6.845  17.417  0.00  0.00    +0.000 C 
ATOM     15  S   UNL     1       7.149   5.111  17.177  0.00  0.00    +0.000 S 
ATOM     16  O   UNL     1       7.396   4.796  15.785  0.00  0.00    +0.000 OA
ATOM     17  O   UNL     1       7.818   4.383  18.239  0.00  0.00    +0.000 OA
ENDBRANCH   8  15
ENDBRANCH   1  12
BRANCH   4  18
ATOM     18  C   UNL     1       0.256  10.670  20.000  0.00  0.00    +0.000 C 
BRANCH  18  19
ATOM     19  C   UNL     1      -0.150  11.688  18.910  0.00  0.00    +0.000 C 
BRANCH  19  20
ATOM     20  N   UNL     1       0.372  13.025  19.224  0.00  0.00    +0.000 N 
ATOM     21  C   UNL     1       1.566  13.456  18.693  0.00  0.00    +0.000 C 
ATOM     22  O   UNL     1       2.234  12.751  17.943  0.00  0.00    +0.000 OA
ATOM     23  H   UNL     1      -0.213  13.696  19.715  0.00  0.00    +0.000 HD
BRANCH  21  24
ATOM     24  C   UNL     1       1.967  14.891  19.071  0.00  0.00    +0.000 C 
ATOM     25  N   UNL     1       1.384  15.311  20.409  0.00  0.00    +0.000 NA
ATOM     26  C   UNL     1       2.590  15.676  21.208  0.00  0.00    +0.000 C 
ATOM     27  C   UNL     1       3.569  14.588  20.768  0.00  0.00    +0.000 C 
ATOM     28  C   UNL     1       3.494  15.013  19.295  0.00  0.00    +0.000 C 
ATOM     29  C   UNL     1       3.812  16.507  19.323  0.00  0.00    +0.000 C 
ATOM     30  C   UNL     1       4.623  17.209  20.386  0.00  0.00    +0.000 C 
ATOM     31  C   UNL     1       3.149  16.954  20.592  0.00  0.00    +0.000 C 
ATOM     32  H   UNL     1       0.984  14.485  20.857  0.00  0.00    +0.000 HD
ENDBRANCH  21  24
ENDBRANCH  19  20
BRANCH  19  33
ATOM     33  C   UNL     1      -1.616  11.741  18.774  0.00  0.00    +0.000 C 
ATOM     34  N   UNL     1      -2.775  11.802  18.693  0.00  0.00    +0.000 NA
ENDBRANCH  19  33
ENDBRANCH  18  19
ENDBRANCH   4  18
TORSDOF 7
ENDMDL
