MODEL 1
REMARK VINA RESULT:      -7.2      0.000      0.000
REMARK  Name = 
REMARK  4 active torsions:
REMARK  status: ('A' for Active; 'I' for Inactive)
REMARK    1  A    between atoms: S_2  and  C_4
REMARK    2  A    between atoms: S_2  and  N_8
REMARK    3  A    between atoms: C_4  and  C_5
REMARK    4  A    between atoms: N_8  and  C_9
REMARK                            x       y       z     vdW  Elec       q    Type
REMARK                         _______ _______ _______ _____ _____    ______ ____
ROOT
ATOM      1  N   UNL     1       4.834   5.848  18.761  0.00  0.00    +0.000 NA
ATOM      2  H   UNL     1       4.810   6.245  17.822  0.00  0.00    +0.000 HD
ENDROOT
BRANCH   1   3
ATOM      3  C   UNL     1       3.581   5.722  19.502  0.00  0.00    +0.000 C 
ATOM      4  C   UNL     1       2.439   6.550  18.985  0.00  0.00    +0.000 C 
ATOM      5  C   UNL     1       2.275   5.048  19.075  0.00  0.00    +0.000 C 
ATOM      6  C   UNL     1       1.281   4.622  20.137  0.00  0.00    +0.000 C 
ATOM      7  C   UNL     1       1.064   3.122  20.263  0.00  0.00    +0.000 C 
ATOM      8  C   UNL     1       1.071   2.323  18.966  0.00  0.00    +0.000 C 
ATOM      9  C   UNL     1       2.022   2.828  17.884  0.00  0.00    +0.000 C 
ATOM     10  C   UNL     1       2.098   4.343  17.752  0.00  0.00    +0.000 C 
ENDBRANCH   1   3
BRANCH   1  12
ATOM     11  O   UNL     1       5.471   3.511  19.323  0.00  0.00    +0.000 OA
ATOM     12  S   UNL     1       6.099   4.763  18.975  0.00  0.00    +0.000 S 
ATOM     13  O   UNL     1       7.043   5.387  19.874  0.00  0.00    +0.000 OA
BRANCH  12  14
ATOM     14  C   UNL     1       6.826   4.647  17.317  0.00  0.00    +0.000 C 
BRANCH  14  15
ATOM     15  C   UNL     1       5.674   4.477  16.361  0.00  0.00    +0.000 C 
ATOM     16  C   UNL     1       5.498   5.455  15.224  0.00  0.00    +0.000 C 
ATOM     17  C   UNL     1       5.904   4.033  14.940  0.00  0.00    +0.000 C 
ENDBRANCH  14  15
ENDBRANCH  12  14
ENDBRANCH   1  12
TORSDOF 4
ENDMDL
MODEL 2
REMARK VINA RESULT:      -7.1      1.491      1.613
REMARK  Name = 
REMARK  4 active torsions:
REMARK  status: ('A' for Active; 'I' for Inactive)
REMARK    1  A    between atoms: S_2  and  C_4
REMARK    2  A    between atoms: S_2  and  N_8
REMARK    3  A    between atoms: C_4  and  C_5
REMARK    4  A    between atoms: N_8  and  C_9
REMARK                            x       y       z     vdW  Elec       q    Type
REMARK                         _______ _______ _______ _____ _____    ______ ____
ROOT
ATOM      1  N   UNL     1       5.953   4.109  18.223  0.00  0.00    +0.000 NA
ATOM      2  H   UNL     1       6.171   3.154  18.509  0.00  0.00    +0.000 HD
ENDROOT
BRANCH   1   3
ATOM      3  C   UNL     1       4.745   4.741  18.748  0.00  0.00    +0.000 C 
ATOM      4  C   UNL     1       4.052   5.689  17.810  0.00  0.00    +0.000 C 
ATOM      5  C   UNL     1       3.286   4.502  18.353  0.00  0.00    +0.000 C 
ATOM      6  C   UNL     1       2.185   4.898  19.318  0.00  0.00    +0.000 C 
ATOM      7  C   UNL     1       1.370   3.746  19.886  0.00  0.00    +0.000 C 
ATOM      8  C   UNL     1       1.074   2.591  18.938  0.00  0.00    +0.000 C 
ATOM      9  C   UNL     1       2.167   2.271  17.924  0.00  0.00    +0.000 C 
ATOM     10  C   UNL     1       2.860   3.486  17.321  0.00  0.00    +0.000 C 
ENDBRANCH   1   3
BRANCH   1  12
ATOM     11  O   UNL     1       8.414   4.054  17.865  0.00  0.00    +0.000 OA
ATOM     12  S   UNL     1       7.327   5.003  17.851  0.00  0.00    +0.000 S 
ATOM     13  O   UNL     1       7.337   6.147  18.733  0.00  0.00    +0.000 OA
BRANCH  12  14
ATOM     14  C   UNL     1       7.010   5.551  16.150  0.00  0.00    +0.000 C 
BRANCH  14  15
ATOM     15  C   UNL     1       6.617   4.321  15.375  0.00  0.00    +0.000 C 
ATOM     16  C   UNL     1       5.341   4.324  14.568  0.00  0.00    +0.000 C 
ATOM     17  C   UNL     1       6.675   4.300  13.870  0.00  0.00    +0.000 C 
ENDBRANCH  14  15
ENDBRANCH  12  14
ENDBRANCH   1  12
TORSDOF 4
ENDMDL
MODEL 3
REMARK VINA RESULT:      -6.7      2.058      2.894
REMARK  Name = 
REMARK  4 active torsions:
REMARK  status: ('A' for Active; 'I' for Inactive)
REMARK    1  A    between atoms: S_2  and  C_4
REMARK    2  A    between atoms: S_2  and  N_8
REMARK    3  A    between atoms: C_4  and  C_5
REMARK    4  A    between atoms: N_8  and  C_9
REMARK                            x       y       z     vdW  Elec       q    Type
REMARK                         _______ _______ _______ _____ _____    ______ ____
ROOT
ATOM      1  N   UNL     1       5.182   3.949  17.591  0.00  0.00    +0.000 NA
ATOM      2  H   UNL     1       5.521   2.992  17.500  0.00  0.00    +0.000 HD
ENDROOT
BRANCH   1   3
ATOM      3  C   UNL     1       3.743   4.175  17.716  0.00  0.00    +0.000 C 
ATOM      4  C   UNL     1       2.868   3.123  17.098  0.00  0.00    +0.000 C 
ATOM      5  C   UNL     1       2.723   3.424  18.574  0.00  0.00    +0.000 C 
ATOM      6  C   UNL     1       1.407   4.095  18.917  0.00  0.00    +0.000 C 
ATOM      7  C   UNL     1       1.200   4.410  20.390  0.00  0.00    +0.000 C 
ATOM      8  C   UNL     1       1.729   3.384  21.384  0.00  0.00    +0.000 C 
ATOM      9  C   UNL     1       3.010   2.664  20.973  0.00  0.00    +0.000 C 
ATOM     10  C   UNL     1       3.090   2.289  19.498  0.00  0.00    +0.000 C 
ENDBRANCH   1   3
BRANCH   1  12
ATOM     11  O   UNL     1       7.585   4.349  18.089  0.00  0.00    +0.000 OA
ATOM     12  S   UNL     1       6.302   4.968  18.320  0.00  0.00    +0.000 S 
ATOM     13  O   UNL     1       5.835   5.215  19.665  0.00  0.00    +0.000 OA
BRANCH  12  14
ATOM     14  C   UNL     1       6.169   6.490  17.342  0.00  0.00    +0.000 C 
BRANCH  14  15
ATOM     15  C   UNL     1       7.547   7.096  17.311  0.00  0.00    +0.000 C 
ATOM     16  C   UNL     1       7.723   8.565  17.614  0.00  0.00    +0.000 C 
ATOM     17  C   UNL     1       8.235   7.528  18.580  0.00  0.00    +0.000 C 
ENDBRANCH  14  15
ENDBRANCH  12  14
ENDBRANCH   1  12
TORSDOF 4
ENDMDL
MODEL 4
REMARK VINA RESULT:      -6.6      1.704      2.278
REMARK  Name = 
REMARK  4 active torsions:
REMARK  status: ('A' for Active; 'I' for Inactive)
REMARK    1  A    between atoms: S_2  and  C_4
REMARK    2  A    between atoms: S_2  and  N_8
REMARK    3  A    between atoms: C_4  and  C_5
REMARK    4  A    between atoms: N_8  and  C_9
REMARK                            x       y       z     vdW  Elec       q    Type
REMARK                         _______ _______ _______ _____ _____    ______ ____
ROOT
ATOM      1  N   UNL     1       5.906   4.620  19.104  0.00  0.00    +0.000 NA
ATOM      2  H   UNL     1       6.024   4.848  20.091  0.00  0.00    +0.000 HD
ENDROOT
BRANCH   1   3
ATOM      3  C   UNL     1       4.552   4.463  18.576  0.00  0.00    +0.000 C 
ATOM      4  C   UNL     1       4.314   3.219  17.768  0.00  0.00    +0.000 C 
ATOM      5  C   UNL     1       3.465   3.470  18.996  0.00  0.00    +0.000 C 
ATOM      6  C   UNL     1       2.018   3.775  18.665  0.00  0.00    +0.000 C 
ATOM      7  C   UNL     1       1.113   4.023  19.862  0.00  0.00    +0.000 C 
ATOM      8  C   UNL     1       1.373   3.170  21.098  0.00  0.00    +0.000 C 
ATOM      9  C   UNL     1       2.832   2.809  21.357  0.00  0.00    +0.000 C 
ATOM     10  C   UNL     1       3.641   2.470  20.112  0.00  0.00    +0.000 C 
ENDBRANCH   1   3
BRANCH   1  12
ATOM     11  O   UNL     1       8.058   4.077  17.982  0.00  0.00    +0.000 OA
ATOM     12  S   UNL     1       7.163   5.197  18.150  0.00  0.00    +0.000 S 
ATOM     13  O   UNL     1       7.625   6.424  18.757  0.00  0.00    +0.000 OA
BRANCH  12  14
ATOM     14  C   UNL     1       6.344   5.571  16.574  0.00  0.00    +0.000 C 
BRANCH  14  15
ATOM     15  C   UNL     1       6.897   4.596  15.568  0.00  0.00    +0.000 C 
ATOM     16  C   UNL     1       5.970   3.961  14.559  0.00  0.00    +0.000 C 
ATOM     17  C   UNL     1       7.002   4.961  14.110  0.00  0.00    +0.000 C 
ENDBRANCH  14  15
ENDBRANCH  12  14
ENDBRANCH   1  12
TORSDOF 4
ENDMDL
MODEL 5
REMARK VINA RESULT:      -6.5      1.181      1.366
REMARK  Name = 
REMARK  4 active torsions:
REMARK  status: ('A' for Active; 'I' for Inactive)
REMARK    1  A    between atoms: S_2  and  C_4
REMARK    2  A    between atoms: S_2  and  N_8
REMARK    3  A    between atoms: C_4  and  C_5
REMARK    4  A    between atoms: N_8  and  C_9
REMARK                            x       y       z     vdW  Elec       q    Type
REMARK                         _______ _______ _______ _____ _____    ______ ____
ROOT
ATOM      1  N   UNL     1       5.091   4.858  17.866  0.00  0.00    +0.000 NA
ATOM      2  H   UNL     1       4.993   3.915  17.491  0.00  0.00    +0.000 HD
ENDROOT
BRANCH   1   3
ATOM      3  C   UNL     1       4.116   5.329  18.847  0.00  0.00    +0.000 C 
ATOM      4  C   UNL     1       3.181   6.402  18.365  0.00  0.00    +0.000 C 
ATOM      5  C   UNL     1       2.602   5.102  18.883  0.00  0.00    +0.000 C 
ATOM      6  C   UNL     1       1.862   5.265  20.196  0.00  0.00    +0.000 C 
ATOM      7  C   UNL     1       1.246   3.993  20.760  0.00  0.00    +0.000 C 
ATOM      8  C   UNL     1       0.651   3.021  19.748  0.00  0.00    +0.000 C 
ATOM      9  C   UNL     1       1.370   2.942  18.405  0.00  0.00    +0.000 C 
ATOM     10  C   UNL     1       1.861   4.277  17.860  0.00  0.00    +0.000 C 
ENDBRANCH   1   3
BRANCH   1  12
ATOM     11  O   UNL     1       7.263   4.814  19.077  0.00  0.00    +0.000 OA
ATOM     12  S   UNL     1       6.686   5.387  17.884  0.00  0.00    +0.000 S 
ATOM     13  O   UNL     1       6.658   6.819  17.695  0.00  0.00    +0.000 OA
BRANCH  12  14
ATOM     14  C   UNL     1       7.397   4.594  16.415  0.00  0.00    +0.000 C 
BRANCH  14  15
ATOM     15  C   UNL     1       6.519   4.985  15.256  0.00  0.00    +0.000 C 
ATOM     16  C   UNL     1       7.028   4.813  13.844  0.00  0.00    +0.000 C 
ATOM     17  C   UNL     1       5.910   3.942  14.356  0.00  0.00    +0.000 C 
ENDBRANCH  14  15
ENDBRANCH  12  14
ENDBRANCH   1  12
TORSDOF 4
ENDMDL
MODEL 6
REMARK VINA RESULT:      -6.5      2.410      3.196
REMARK  Name = 
REMARK  4 active torsions:
REMARK  status: ('A' for Active; 'I' for Inactive)
REMARK    1  A    between atoms: S_2  and  C_4
REMARK    2  A    between atoms: S_2  and  N_8
REMARK    3  A    between atoms: C_4  and  C_5
REMARK    4  A    between atoms: N_8  and  C_9
REMARK                            x       y       z     vdW  Elec       q    Type
REMARK                         _______ _______ _______ _____ _____    ______ ____
ROOT
ATOM      1  N   UNL     1       4.865   3.549  17.264  0.00  0.00    +0.000 NA
ATOM      2  H   UNL     1       5.409   3.032  17.954  0.00  0.00    +0.000 HD
ENDROOT
BRANCH   1   3
ATOM      3  C   UNL     1       3.528   4.014  17.628  0.00  0.00    +0.000 C 
ATOM      4  C   UNL     1       2.394   3.139  17.173  0.00  0.00    +0.000 C 
ATOM      5  C   UNL     1       2.552   3.427  18.651  0.00  0.00    +0.000 C 
ATOM      6  C   UNL     1       1.447   4.304  19.206  0.00  0.00    +0.000 C 
ATOM      7  C   UNL     1       1.546   4.616  20.691  0.00  0.00    +0.000 C 
ATOM      8  C   UNL     1       2.051   3.493  21.589  0.00  0.00    +0.000 C 
ATOM      9  C   UNL     1       3.103   2.576  20.972  0.00  0.00    +0.000 C 
ATOM     10  C   UNL     1       2.870   2.226  19.508  0.00  0.00    +0.000 C 
ENDBRANCH   1   3
BRANCH   1  12
ATOM     11  O   UNL     1       5.104   5.615  15.900  0.00  0.00    +0.000 OA
ATOM     12  S   UNL     1       5.829   4.399  16.181  0.00  0.00    +0.000 S 
ATOM     13  O   UNL     1       6.174   3.485  15.116  0.00  0.00    +0.000 OA
BRANCH  12  14
ATOM     14  C   UNL     1       7.309   4.778  17.159  0.00  0.00    +0.000 C 
BRANCH  14  15
ATOM     15  C   UNL     1       6.998   6.033  17.930  0.00  0.00    +0.000 C 
ATOM     16  C   UNL     1       8.057   6.648  18.814  0.00  0.00    +0.000 C 
ATOM     17  C   UNL     1       7.623   7.351  17.554  0.00  0.00    +0.000 C 
ENDBRANCH  14  15
ENDBRANCH  12  14
ENDBRANCH   1  12
TORSDOF 4
ENDMDL
MODEL 7
REMARK VINA RESULT:      -6.5      1.186      1.352
REMARK  Name = 
REMARK  4 active torsions:
REMARK  status: ('A' for Active; 'I' for Inactive)
REMARK    1  A    between atoms: S_2  and  C_4
REMARK    2  A    between atoms: S_2  and  N_8
REMARK    3  A    between atoms: C_4  and  C_5
REMARK    4  A    between atoms: N_8  and  C_9
REMARK                            x       y       z     vdW  Elec       q    Type
REMARK                         _______ _______ _______ _____ _____    ______ ____
ROOT
ATOM      1  N   UNL     1       4.719   5.692  17.534  0.00  0.00    +0.000 NA
ATOM      2  H   UNL     1       4.503   6.028  16.595  0.00  0.00    +0.000 HD
ENDROOT
BRANCH   1   3
ATOM      3  C   UNL     1       3.779   5.981  18.615  0.00  0.00    +0.000 C 
ATOM      4  C   UNL     1       2.622   6.866  18.247  0.00  0.00    +0.000 C 
ATOM      5  C   UNL     1       2.343   5.484  18.798  0.00  0.00    +0.000 C 
ATOM      6  C   UNL     1       1.722   5.512  20.181  0.00  0.00    +0.000 C 
ATOM      7  C   UNL     1       1.406   4.151  20.782  0.00  0.00    +0.000 C 
ATOM      8  C   UNL     1       0.896   3.086  19.819  0.00  0.00    +0.000 C 
ATOM      9  C   UNL     1       1.478   3.136  18.409  0.00  0.00    +0.000 C 
ATOM     10  C   UNL     1       1.663   4.537  17.840  0.00  0.00    +0.000 C 
ENDBRANCH   1   3
BRANCH   1  12
ATOM     11  O   UNL     1       4.802   3.273  16.967  0.00  0.00    +0.000 OA
ATOM     12  S   UNL     1       5.653   4.295  17.526  0.00  0.00    +0.000 S 
ATOM     13  O   UNL     1       6.205   4.150  18.853  0.00  0.00    +0.000 OA
BRANCH  12  14
ATOM     14  C   UNL     1       6.981   4.697  16.357  0.00  0.00    +0.000 C 
BRANCH  14  15
ATOM     15  C   UNL     1       6.314   4.977  15.036  0.00  0.00    +0.000 C 
ATOM     16  C   UNL     1       7.138   4.981  13.771  0.00  0.00    +0.000 C 
ATOM     17  C   UNL     1       6.131   3.887  14.012  0.00  0.00    +0.000 C 
ENDBRANCH  14  15
ENDBRANCH  12  14
ENDBRANCH   1  12
TORSDOF 4
ENDMDL
MODEL 8
REMARK VINA RESULT:      -6.5      2.505      3.374
REMARK  Name = 
REMARK  4 active torsions:
REMARK  status: ('A' for Active; 'I' for Inactive)
REMARK    1  A    between atoms: S_2  and  C_4
REMARK    2  A    between atoms: S_2  and  N_8
REMARK    3  A    between atoms: C_4  and  C_5
REMARK    4  A    between atoms: N_8  and  C_9
REMARK                            x       y       z     vdW  Elec       q    Type
REMARK                         _______ _______ _______ _____ _____    ______ ____
ROOT
ATOM      1  N   UNL     1       4.412   5.469  17.040  0.00  0.00    +0.000 NA
ATOM      2  H   UNL     1       3.791   6.272  17.136  0.00  0.00    +0.000 HD
ENDROOT
BRANCH   1   3
ATOM      3  C   UNL     1       3.953   4.165  17.513  0.00  0.00    +0.000 C 
ATOM      4  C   UNL     1       4.834   3.501  18.533  0.00  0.00    +0.000 C 
ATOM      5  C   UNL     1       3.389   3.784  18.884  0.00  0.00    +0.000 C 
ATOM      6  C   UNL     1       2.553   2.526  19.016  0.00  0.00    +0.000 C 
ATOM      7  C   UNL     1       1.094   2.748  19.382  0.00  0.00    +0.000 C 
ATOM      8  C   UNL     1       0.804   3.875  20.366  0.00  0.00    +0.000 C 
ATOM      9  C   UNL     1       1.716   5.093  20.264  0.00  0.00    +0.000 C 
ATOM     10  C   UNL     1       3.183   4.777  20.002  0.00  0.00    +0.000 C 
ENDBRANCH   1   3
BRANCH   1  12
ATOM     11  O   UNL     1       5.195   6.917  15.175  0.00  0.00    +0.000 OA
ATOM     12  S   UNL     1       5.463   5.614  15.736  0.00  0.00    +0.000 S 
ATOM     13  O   UNL     1       5.308   4.422  14.935  0.00  0.00    +0.000 OA
BRANCH  12  14
ATOM     14  C   UNL     1       7.097   5.608  16.524  0.00  0.00    +0.000 C 
BRANCH  14  15
ATOM     15  C   UNL     1       6.959   6.407  17.793  0.00  0.00    +0.000 C 
ATOM     16  C   UNL     1       7.811   6.059  18.990  0.00  0.00    +0.000 C 
ATOM     17  C   UNL     1       8.048   7.346  18.243  0.00  0.00    +0.000 C 
ENDBRANCH  14  15
ENDBRANCH  12  14
ENDBRANCH   1  12
TORSDOF 4
ENDMDL
MODEL 9
REMARK VINA RESULT:      -6.4      2.432      2.848
REMARK  Name = 
REMARK  4 active torsions:
REMARK  status: ('A' for Active; 'I' for Inactive)
REMARK    1  A    between atoms: S_2  and  C_4
REMARK    2  A    between atoms: S_2  and  N_8
REMARK    3  A    between atoms: C_4  and  C_5
REMARK    4  A    between atoms: N_8  and  C_9
REMARK                            x       y       z     vdW  Elec       q    Type
REMARK                         _______ _______ _______ _____ _____    ______ ____
ROOT
ATOM      1  N   UNL     1       4.463   4.820  17.005  0.00  0.00    +0.000 NA
ATOM      2  H   UNL     1       4.359   3.841  16.741  0.00  0.00    +0.000 HD
ENDROOT
BRANCH   1   3
ATOM      3  C   UNL     1       3.779   5.301  18.204  0.00  0.00    +0.000 C 
ATOM      4  C   UNL     1       2.699   6.319  17.968  0.00  0.00    +0.000 C 
ATOM      5  C   UNL     1       2.348   5.025  18.671  0.00  0.00    +0.000 C 
ATOM      6  C   UNL     1       1.996   5.220  20.132  0.00  0.00    +0.000 C 
ATOM      7  C   UNL     1       1.620   3.955  20.887  0.00  0.00    +0.000 C 
ATOM      8  C   UNL     1       0.811   2.919  20.116  0.00  0.00    +0.000 C 
ATOM      9  C   UNL     1       1.130   2.805  18.629  0.00  0.00    +0.000 C 
ATOM     10  C   UNL     1       1.389   4.130  17.924  0.00  0.00    +0.000 C 
ENDBRANCH   1   3
BRANCH   1  12
ATOM     11  O   UNL     1       5.575   6.467  15.510  0.00  0.00    +0.000 OA
ATOM     12  S   UNL     1       5.925   5.477  16.500  0.00  0.00    +0.000 S 
ATOM     13  O   UNL     1       6.790   4.370  16.161  0.00  0.00    +0.000 OA
BRANCH  12  14
ATOM     14  C   UNL     1       6.546   6.295  17.996  0.00  0.00    +0.000 C 
BRANCH  14  15
ATOM     15  C   UNL     1       7.690   7.170  17.557  0.00  0.00    +0.000 C 
ATOM     16  C   UNL     1       7.545   8.672  17.615  0.00  0.00    +0.000 C 
ATOM     17  C   UNL     1       8.487   7.967  18.557  0.00  0.00    +0.000 C 
ENDBRANCH  14  15
ENDBRANCH  12  14
ENDBRANCH   1  12
TORSDOF 4
ENDMDL
