MODEL 1
REMARK VINA RESULT:      -6.8      0.000      0.000
REMARK  Name = 
REMARK  2 active torsions:
REMARK  status: ('A' for Active; 'I' for Inactive)
REMARK    1  A    between atoms: CA_4  and  C_5
REMARK    2  A    between atoms: C_5  and  OXT_7
REMARK                            x       y       z     vdW  Elec       q    Type
REMARK                         _______ _______ _______ _____ _____    ______ ____
ROOT
ATOM      1  O   UNL     1      -4.601  12.251  17.523  0.00  0.00    +0.000 OA
ATOM      2  C   UNL     1      -4.542  11.983  18.718  0.00  0.00    +0.000 C 
ATOM      3  N   UNL     1      -3.563  11.063  19.208  0.00  0.00    +0.000 N 
ATOM      4  CA  UNL     1      -2.172  10.744  18.489  0.00  0.00    +0.000 C 
ATOM      5  C   UNL     1      -0.528  10.086  18.674  0.00  0.00    +0.000 C 
ATOM      6  C   UNL     1       0.175   9.863  20.031  0.00  0.00    +0.000 A 
ATOM      7  C   UNL     1       1.060   8.826  20.382  0.00  0.00    +0.000 A 
ATOM      8  C   UNL     1       1.438   8.610  21.734  0.00  0.00    +0.000 A 
ATOM      9  C   UNL     1       0.842   9.352  22.750  0.00  0.00    +0.000 A 
ATOM     10  C   UNL     1       0.048  10.417  22.376  0.00  0.00    +0.000 A 
ATOM     11  C   UNL     1      -0.042  10.782  21.025  0.00  0.00    +0.000 A 
ATOM     12  O   UNL     1      -0.781  10.990  23.327  0.00  0.00    +0.000 OA
ATOM     13  C   UNL     1      -1.910  11.533  22.637  0.00  0.00    +0.000 C 
ATOM     14  C   UNL     1      -3.049  12.048  23.478  0.00  0.00    +0.000 C 
ATOM     15  C   UNL     1      -3.846  12.917  22.512  0.00  0.00    +0.000 C 
ATOM     16  C   UNL     1      -4.733  13.973  23.139  0.00  0.00    +0.000 C 
ATOM     17  O   UNL     1      -4.983  15.066  22.194  0.00  0.00    +0.000 OA
ATOM     18  C   UNL     1      -5.828  14.635  21.163  0.00  0.00    +0.000 A 
ATOM     19  C   UNL     1      -7.083  14.237  21.584  0.00  0.00    +0.000 A 
ATOM     20  C   UNL     1      -7.519  13.005  21.117  0.00  0.00    +0.000 A 
ATOM     21  C   UNL     1      -6.690  12.208  20.259  0.00  0.00    +0.000 A 
ATOM     22  C   UNL     1      -5.496  12.707  19.707  0.00  0.00    +0.000 A 
ATOM     23  C   UNL     1      -5.224  14.041  20.033  0.00  0.00    +0.000 A 
ATOM     24  H   UNL     1      -4.067  10.189  19.311  0.00  0.00    +0.000 HD
ENDROOT
BRANCH   4  25
ATOM     25  C   UNL     1      -1.689  12.180  18.352  0.00  0.00    +0.000 C 
ATOM     26  O   UNL     1      -1.508  12.970  19.267  0.00  0.00    +0.000 OA
BRANCH  25  27
ATOM     27  OXT UNL     1      -1.476  12.552  17.080  0.00  0.00    +0.000 OA
ATOM     28  HXT UNL     1      -2.105  12.164  16.432  0.00  0.00    +0.000 HD
ENDBRANCH  25  27
ENDBRANCH   4  25
TORSDOF 2
ENDMDL
MODEL 2
REMARK VINA RESULT:      -6.4      2.021      3.055
REMARK  Name = 
REMARK  2 active torsions:
REMARK  status: ('A' for Active; 'I' for Inactive)
REMARK    1  A    between atoms: CA_4  and  C_5
REMARK    2  A    between atoms: C_5  and  OXT_7
REMARK                            x       y       z     vdW  Elec       q    Type
REMARK                         _______ _______ _______ _____ _____    ______ ____
ROOT
ATOM      1  O   UNL     1      -7.916  11.765  19.649  0.00  0.00    +0.000 OA
ATOM      2  C   UNL     1      -6.962  11.830  20.416  0.00  0.00    +0.000 C 
ATOM      3  N   UNL     1      -5.726  11.187  20.092  0.00  0.00    +0.000 N 
ATOM      4  CA  UNL     1      -5.236  10.850  18.609  0.00  0.00    +0.000 C 
ATOM      5  C   UNL     1      -3.851  10.454  17.563  0.00  0.00    +0.000 C 
ATOM      6  C   UNL     1      -2.373  10.676  17.951  0.00  0.00    +0.000 A 
ATOM      7  C   UNL     1      -1.265   9.875  17.617  0.00  0.00    +0.000 A 
ATOM      8  C   UNL     1      -0.005  10.066  18.244  0.00  0.00    +0.000 A 
ATOM      9  C   UNL     1       0.120  10.976  19.290  0.00  0.00    +0.000 A 
ATOM     10  C   UNL     1      -0.952  11.809  19.539  0.00  0.00    +0.000 A 
ATOM     11  C   UNL     1      -2.062  11.793  18.684  0.00  0.00    +0.000 A 
ATOM     12  O   UNL     1      -0.979  12.514  20.731  0.00  0.00    +0.000 OA
ATOM     13  C   UNL     1      -2.352  12.725  21.070  0.00  0.00    +0.000 C 
ATOM     14  C   UNL     1      -2.644  13.311  22.428  0.00  0.00    +0.000 C 
ATOM     15  C   UNL     1      -4.083  13.799  22.307  0.00  0.00    +0.000 C 
ATOM     16  C   UNL     1      -4.507  14.876  23.285  0.00  0.00    +0.000 C 
ATOM     17  O   UNL     1      -5.634  15.647  22.749  0.00  0.00    +0.000 OA
ATOM     18  C   UNL     1      -6.798  14.868  22.741  0.00  0.00    +0.000 A 
ATOM     19  C   UNL     1      -7.214  14.455  23.993  0.00  0.00    +0.000 A 
ATOM     20  C   UNL     1      -7.496  13.102  24.125  0.00  0.00    +0.000 A 
ATOM     21  C   UNL     1      -7.343  12.206  23.014  0.00  0.00    +0.000 A 
ATOM     22  C   UNL     1      -7.086  12.675  21.713  0.00  0.00    +0.000 A 
ATOM     23  C   UNL     1      -7.039  14.070  21.601  0.00  0.00    +0.000 A 
ATOM     24  H   UNL     1      -5.747  10.319  20.618  0.00  0.00    +0.000 HD
ENDROOT
BRANCH   4  25
ATOM     25  C   UNL     1      -5.405  12.245  18.025  0.00  0.00    +0.000 C 
ATOM     26  O   UNL     1      -5.834  12.514  16.913  0.00  0.00    +0.000 OA
BRANCH  25  27
ATOM     27  OXT UNL     1      -5.011  13.222  18.857  0.00  0.00    +0.000 OA
ATOM     28  HXT UNL     1      -4.125  13.598  18.651  0.00  0.00    +0.000 HD
ENDBRANCH  25  27
ENDBRANCH   4  25
TORSDOF 2
ENDMDL
MODEL 3
REMARK VINA RESULT:      -6.4      2.372      3.695
REMARK  Name = 
REMARK  2 active torsions:
REMARK  status: ('A' for Active; 'I' for Inactive)
REMARK    1  A    between atoms: CA_4  and  C_5
REMARK    2  A    between atoms: C_5  and  OXT_7
REMARK                            x       y       z     vdW  Elec       q    Type
REMARK                         _______ _______ _______ _____ _____    ______ ____
ROOT
ATOM      1  O   UNL     1      -0.739  13.095  17.771  0.00  0.00    +0.000 OA
ATOM      2  C   UNL     1      -1.058  12.275  18.625  0.00  0.00    +0.000 C 
ATOM      3  N   UNL     1      -0.623  10.917  18.525  0.00  0.00    +0.000 N 
ATOM      4  CA  UNL     1       0.682  10.434  17.739  0.00  0.00    +0.000 C 
ATOM      5  C   UNL     1       1.884   9.138  17.523  0.00  0.00    +0.000 C 
ATOM      6  C   UNL     1       2.125   7.994  18.532  0.00  0.00    +0.000 A 
ATOM      7  C   UNL     1       2.465   6.658  18.253  0.00  0.00    +0.000 A 
ATOM      8  C   UNL     1       2.417   5.661  19.264  0.00  0.00    +0.000 A 
ATOM      9  C   UNL     1       1.916   5.974  20.525  0.00  0.00    +0.000 A 
ATOM     10  C   UNL     1       1.673   7.305  20.800  0.00  0.00    +0.000 A 
ATOM     11  C   UNL     1       2.035   8.288  19.868  0.00  0.00    +0.000 A 
ATOM     12  O   UNL     1       0.914   7.622  21.915  0.00  0.00    +0.000 OA
ATOM     13  C   UNL     1       0.252   8.859  21.642  0.00  0.00    +0.000 C 
ATOM     14  C   UNL     1      -0.782   9.321  22.636  0.00  0.00    +0.000 C 
ATOM     15  C   UNL     1      -0.963  10.798  22.307  0.00  0.00    +0.000 C 
ATOM     16  C   UNL     1      -1.523  11.666  23.416  0.00  0.00    +0.000 C 
ATOM     17  O   UNL     1      -1.134  13.067  23.223  0.00  0.00    +0.000 OA
ATOM     18  C   UNL     1      -1.816  13.617  22.131  0.00  0.00    +0.000 A 
ATOM     19  C   UNL     1      -3.191  13.647  22.275  0.00  0.00    +0.000 A 
ATOM     20  C   UNL     1      -3.925  13.137  21.213  0.00  0.00    +0.000 A 
ATOM     21  C   UNL     1      -3.270  12.606  20.053  0.00  0.00    +0.000 A 
ATOM     22  C   UNL     1      -1.884  12.742  19.855  0.00  0.00    +0.000 A 
ATOM     23  C   UNL     1      -1.227  13.469  20.855  0.00  0.00    +0.000 A 
ATOM     24  H   UNL     1      -1.420  10.423  18.138  0.00  0.00    +0.000 HD
ENDROOT
BRANCH   4  25
ATOM     25  C   UNL     1       1.672  11.377  18.406  0.00  0.00    +0.000 C 
ATOM     26  O   UNL     1       1.836  11.517  19.609  0.00  0.00    +0.000 OA
BRANCH  25  27
ATOM     27  OXT UNL     1       2.388  12.103  17.533  0.00  0.00    +0.000 OA
ATOM     28  HXT UNL     1       2.653  12.991  17.864  0.00  0.00    +0.000 HD
ENDBRANCH  25  27
ENDBRANCH   4  25
TORSDOF 2
ENDMDL
MODEL 4
REMARK VINA RESULT:      -6.3      2.727      6.288
REMARK  Name = 
REMARK  2 active torsions:
REMARK  status: ('A' for Active; 'I' for Inactive)
REMARK    1  A    between atoms: CA_4  and  C_5
REMARK    2  A    between atoms: C_5  and  OXT_7
REMARK                            x       y       z     vdW  Elec       q    Type
REMARK                         _______ _______ _______ _____ _____    ______ ____
ROOT
ATOM      1  O   UNL     1      -6.924  11.282  18.180  0.00  0.00    +0.000 OA
ATOM      2  C   UNL     1      -5.847  11.868  18.180  0.00  0.00    +0.000 C 
ATOM      3  N   UNL     1      -5.692  13.101  18.887  0.00  0.00    +0.000 N 
ATOM      4  CA  UNL     1      -6.580  13.552  20.137  0.00  0.00    +0.000 C 
ATOM      5  C   UNL     1      -6.706  14.625  21.552  0.00  0.00    +0.000 C 
ATOM      6  C   UNL     1      -5.515  15.375  22.187  0.00  0.00    +0.000 A 
ATOM      7  C   UNL     1      -5.516  16.655  22.772  0.00  0.00    +0.000 A 
ATOM      8  C   UNL     1      -4.301  17.317  23.095  0.00  0.00    +0.000 A 
ATOM      9  C   UNL     1      -3.083  16.752  22.727  0.00  0.00    +0.000 A 
ATOM     10  C   UNL     1      -3.103  15.461  22.237  0.00  0.00    +0.000 A 
ATOM     11  C   UNL     1      -4.303  14.735  22.230  0.00  0.00    +0.000 A 
ATOM     12  O   UNL     1      -1.973  14.978  21.598  0.00  0.00    +0.000 OA
ATOM     13  C   UNL     1      -2.405  14.005  20.645  0.00  0.00    +0.000 C 
ATOM     14  C   UNL     1      -1.369  13.467  19.691  0.00  0.00    +0.000 C 
ATOM     15  C   UNL     1      -2.011  12.199  19.140  0.00  0.00    +0.000 C 
ATOM     16  C   UNL     1      -1.062  11.164  18.570  0.00  0.00    +0.000 C 
ATOM     17  O   UNL     1      -1.670   9.830  18.605  0.00  0.00    +0.000 OA
ATOM     18  C   UNL     1      -2.705   9.741  17.665  0.00  0.00    +0.000 A 
ATOM     19  C   UNL     1      -2.299   9.911  16.354  0.00  0.00    +0.000 A 
ATOM     20  C   UNL     1      -3.031  10.821  15.604  0.00  0.00    +0.000 A 
ATOM     21  C   UNL     1      -4.131  11.537  16.184  0.00  0.00    +0.000 A 
ATOM     22  C   UNL     1      -4.631  11.223  17.461  0.00  0.00    +0.000 A 
ATOM     23  C   UNL     1      -3.995  10.139  18.078  0.00  0.00    +0.000 A 
ATOM     24  H   UNL     1      -5.777  13.816  18.172  0.00  0.00    +0.000 HD
ENDROOT
BRANCH   4  25
ATOM     25  C   UNL     1      -6.381  12.301  20.980  0.00  0.00    +0.000 C 
ATOM     26  O   UNL     1      -5.329  11.925  21.475  0.00  0.00    +0.000 OA
BRANCH  25  27
ATOM     27  OXT UNL     1      -7.504  11.582  21.141  0.00  0.00    +0.000 OA
ATOM     28  HXT UNL     1      -7.673  11.296  22.067  0.00  0.00    +0.000 HD
ENDBRANCH  25  27
ENDBRANCH   4  25
TORSDOF 2
ENDMDL
MODEL 5
REMARK VINA RESULT:      -6.2      2.605      5.175
REMARK  Name = 
REMARK  2 active torsions:
REMARK  status: ('A' for Active; 'I' for Inactive)
REMARK    1  A    between atoms: CA_4  and  C_5
REMARK    2  A    between atoms: C_5  and  OXT_7
REMARK                            x       y       z     vdW  Elec       q    Type
REMARK                         _______ _______ _______ _____ _____    ______ ____
ROOT
ATOM      1  O   UNL     1       1.029  14.180  22.322  0.00  0.00    +0.000 OA
ATOM      2  C   UNL     1      -0.130  14.450  22.026  0.00  0.00    +0.000 C 
ATOM      3  N   UNL     1      -0.665  14.059  20.760  0.00  0.00    +0.000 N 
ATOM      4  CA  UNL     1      -0.131  12.834  19.884  0.00  0.00    +0.000 C 
ATOM      5  C   UNL     1      -0.490  11.686  18.570  0.00  0.00    +0.000 C 
ATOM      6  C   UNL     1      -1.907  11.394  18.030  0.00  0.00    +0.000 A 
ATOM      7  C   UNL     1      -2.281  11.111  16.703  0.00  0.00    +0.000 A 
ATOM      8  C   UNL     1      -3.646  11.104  16.310  0.00  0.00    +0.000 A 
ATOM      9  C   UNL     1      -4.631  11.495  17.213  0.00  0.00    +0.000 A 
ATOM     10  C   UNL     1      -4.251  11.681  18.527  0.00  0.00    +0.000 A 
ATOM     11  C   UNL     1      -2.943  11.370  18.927  0.00  0.00    +0.000 A 
ATOM     12  O   UNL     1      -5.121  12.340  19.380  0.00  0.00    +0.000 OA
ATOM     13  C   UNL     1      -4.329  12.990  20.378  0.00  0.00    +0.000 C 
ATOM     14  C   UNL     1      -5.040  13.930  21.318  0.00  0.00    +0.000 C 
ATOM     15  C   UNL     1      -4.057  14.098  22.470  0.00  0.00    +0.000 C 
ATOM     16  C   UNL     1      -4.648  14.546  23.792  0.00  0.00    +0.000 C 
ATOM     17  O   UNL     1      -3.787  14.138  24.907  0.00  0.00    +0.000 OA
ATOM     18  C   UNL     1      -2.606  14.891  24.913  0.00  0.00    +0.000 A 
ATOM     19  C   UNL     1      -2.798  16.248  25.092  0.00  0.00    +0.000 A 
ATOM     20  C   UNL     1      -2.154  17.078  24.185  0.00  0.00    +0.000 A 
ATOM     21  C   UNL     1      -1.352  16.532  23.128  0.00  0.00    +0.000 A 
ATOM     22  C   UNL     1      -1.033  15.162  23.069  0.00  0.00    +0.000 A 
ATOM     23  C   UNL     1      -1.525  14.410  24.143  0.00  0.00    +0.000 A 
ATOM     24  H   UNL     1      -0.608  14.896  20.190  0.00  0.00    +0.000 HD
ENDROOT
BRANCH   4  25
ATOM     25  C   UNL     1      -0.208  11.769  20.968  0.00  0.00    +0.000 C 
ATOM     26  O   UNL     1      -1.222  11.391  21.537  0.00  0.00    +0.000 OA
BRANCH  25  27
ATOM     27  OXT UNL     1       0.987  11.251  21.293  0.00  0.00    +0.000 OA
ATOM     28  HXT UNL     1       1.445  11.716  22.030  0.00  0.00    +0.000 HD
ENDBRANCH  25  27
ENDBRANCH   4  25
TORSDOF 2
ENDMDL
MODEL 6
REMARK VINA RESULT:      -6.0      9.017     12.663
REMARK  Name = 
REMARK  2 active torsions:
REMARK  status: ('A' for Active; 'I' for Inactive)
REMARK    1  A    between atoms: CA_4  and  C_5
REMARK    2  A    between atoms: C_5  and  OXT_7
REMARK                            x       y       z     vdW  Elec       q    Type
REMARK                         _______ _______ _______ _____ _____    ______ ____
ROOT
ATOM      1  O   UNL     1       8.974  13.809  23.452  0.00  0.00    +0.000 OA
ATOM      2  C   UNL     1       8.725  13.510  22.289  0.00  0.00    +0.000 C 
ATOM      3  N   UNL     1       7.374  13.467  21.825  0.00  0.00    +0.000 N 
ATOM      4  CA  UNL     1       6.164  14.291  22.467  0.00  0.00    +0.000 C 
ATOM      5  C   UNL     1       4.520  14.933  22.228  0.00  0.00    +0.000 C 
ATOM      6  C   UNL     1       3.835  15.090  20.854  0.00  0.00    +0.000 A 
ATOM      7  C   UNL     1       2.473  14.917  20.545  0.00  0.00    +0.000 A 
ATOM      8  C   UNL     1       2.027  14.855  19.198  0.00  0.00    +0.000 A 
ATOM      9  C   UNL     1       2.953  14.845  18.159  0.00  0.00    +0.000 A 
ATOM     10  C   UNL     1       4.271  15.103  18.480  0.00  0.00    +0.000 A 
ATOM     11  C   UNL     1       4.612  15.470  19.789  0.00  0.00    +0.000 A 
ATOM     12  O   UNL     1       5.248  14.820  17.540  0.00  0.00    +0.000 OA
ATOM     13  C   UNL     1       6.449  14.514  18.252  0.00  0.00    +0.000 C 
ATOM     14  C   UNL     1       7.612  13.990  17.450  0.00  0.00    +0.000 C 
ATOM     15  C   UNL     1       8.805  14.180  18.379  0.00  0.00    +0.000 C 
ATOM     16  C   UNL     1      10.166  14.242  17.715  0.00  0.00    +0.000 C 
ATOM     17  O   UNL     1      11.121  14.966  18.559  0.00  0.00    +0.000 OA
ATOM     18  C   UNL     1      11.448  14.205  19.689  0.00  0.00    +0.000 A 
ATOM     19  C   UNL     1      12.067  13.003  19.405  0.00  0.00    +0.000 A 
ATOM     20  C   UNL     1      11.535  11.882  20.026  0.00  0.00    +0.000 A 
ATOM     21  C   UNL     1      10.400  11.993  20.898  0.00  0.00    +0.000 A 
ATOM     22  C   UNL     1       9.897  13.243  21.306  0.00  0.00    +0.000 A 
ATOM     23  C   UNL     1      10.621  14.340  20.826  0.00  0.00    +0.000 A 
ATOM     24  H   UNL     1       7.128  12.484  21.849  0.00  0.00    +0.000 HD
ENDROOT
BRANCH   4  25
ATOM     25  C   UNL     1       6.815  15.665  22.420  0.00  0.00    +0.000 C 
ATOM     26  O   UNL     1       7.184  16.254  21.414  0.00  0.00    +0.000 OA
BRANCH  25  27
ATOM     27  OXT UNL     1       6.984  16.217  23.632  0.00  0.00    +0.000 OA
ATOM     28  HXT UNL     1       6.240  16.789  23.925  0.00  0.00    +0.000 HD
ENDBRANCH  25  27
ENDBRANCH   4  25
TORSDOF 2
ENDMDL
MODEL 7
REMARK VINA RESULT:      -6.0      2.486      5.176
REMARK  Name = 
REMARK  2 active torsions:
REMARK  status: ('A' for Active; 'I' for Inactive)
REMARK    1  A    between atoms: CA_4  and  C_5
REMARK    2  A    between atoms: C_5  and  OXT_7
REMARK                            x       y       z     vdW  Elec       q    Type
REMARK                         _______ _______ _______ _____ _____    ______ ____
ROOT
ATOM      1  O   UNL     1       1.383  12.705  21.568  0.00  0.00    +0.000 OA
ATOM      2  C   UNL     1       0.303  13.184  21.239  0.00  0.00    +0.000 C 
ATOM      3  N   UNL     1      -0.281  12.857  19.976  0.00  0.00    +0.000 N 
ATOM      4  CA  UNL     1       0.015  11.518  19.155  0.00  0.00    +0.000 C 
ATOM      5  C   UNL     1      -0.544  10.413  17.876  0.00  0.00    +0.000 C 
ATOM      6  C   UNL     1      -1.983  10.382  17.316  0.00  0.00    +0.000 A 
ATOM      7  C   UNL     1      -2.387  10.127  15.993  0.00  0.00    +0.000 A 
ATOM      8  C   UNL     1      -3.722  10.371  15.572  0.00  0.00    +0.000 A 
ATOM      9  C   UNL     1      -4.623  10.981  16.440  0.00  0.00    +0.000 A 
ATOM     10  C   UNL     1      -4.232  11.140  17.754  0.00  0.00    +0.000 A 
ATOM     11  C   UNL     1      -3.017  10.596  18.192  0.00  0.00    +0.000 A 
ATOM     12  O   UNL     1      -4.968  11.988  18.565  0.00  0.00    +0.000 OA
ATOM     13  C   UNL     1      -4.078  12.510  19.555  0.00  0.00    +0.000 C 
ATOM     14  C   UNL     1      -4.604  13.605  20.447  0.00  0.00    +0.000 C 
ATOM     15  C   UNL     1      -3.623  13.623  21.613  0.00  0.00    +0.000 C 
ATOM     16  C   UNL     1      -4.132  14.227  22.905  0.00  0.00    +0.000 C 
ATOM     17  O   UNL     1      -3.384  13.703  24.052  0.00  0.00    +0.000 OA
ATOM     18  C   UNL     1      -2.079  14.211  24.056  0.00  0.00    +0.000 A 
ATOM     19  C   UNL     1      -2.004  15.585  24.183  0.00  0.00    +0.000 A 
ATOM     20  C   UNL     1      -1.197  16.238  23.261  0.00  0.00    +0.000 A 
ATOM     21  C   UNL     1      -0.503  15.505  22.241  0.00  0.00    +0.000 A 
ATOM     22  C   UNL     1      -0.458  14.099  22.238  0.00  0.00    +0.000 A 
ATOM     23  C   UNL     1      -1.102  13.499  23.326  0.00  0.00    +0.000 A 
ATOM     24  H   UNL     1      -0.053  13.644  19.379  0.00  0.00    +0.000 HD
ENDROOT
BRANCH   4  25
ATOM     25  C   UNL     1      -0.284  10.531  20.275  0.00  0.00    +0.000 C 
ATOM     26  O   UNL     1      -1.336  10.435  20.888  0.00  0.00    +0.000 OA
BRANCH  25  27
ATOM     27  OXT UNL     1       0.754   9.735  20.575  0.00  0.00    +0.000 OA
ATOM     28  HXT UNL     1       1.091   9.835  21.494  0.00  0.00    +0.000 HD
ENDBRANCH  25  27
ENDBRANCH   4  25
TORSDOF 2
ENDMDL
MODEL 8
REMARK VINA RESULT:      -5.9      9.759     13.253
REMARK  Name = 
REMARK  2 active torsions:
REMARK  status: ('A' for Active; 'I' for Inactive)
REMARK    1  A    between atoms: CA_4  and  C_5
REMARK    2  A    between atoms: C_5  and  OXT_7
REMARK                            x       y       z     vdW  Elec       q    Type
REMARK                         _______ _______ _______ _____ _____    ______ ____
ROOT
ATOM      1  O   UNL     1      10.037  15.388  22.725  0.00  0.00    +0.000 OA
ATOM      2  C   UNL     1       9.444  14.743  21.867  0.00  0.00    +0.000 C 
ATOM      3  N   UNL     1       8.048  14.953  21.638  0.00  0.00    +0.000 N 
ATOM      4  CA  UNL     1       7.263  16.304  21.972  0.00  0.00    +0.000 C 
ATOM      5  C   UNL     1       5.809  17.285  21.663  0.00  0.00    +0.000 C 
ATOM      6  C   UNL     1       4.860  17.086  20.461  0.00  0.00    +0.000 A 
ATOM      7  C   UNL     1       3.463  17.250  20.430  0.00  0.00    +0.000 A 
ATOM      8  C   UNL     1       2.694  16.797  19.325  0.00  0.00    +0.000 A 
ATOM      9  C   UNL     1       3.305  16.074  18.303  0.00  0.00    +0.000 A 
ATOM     10  C   UNL     1       4.683  16.003  18.311  0.00  0.00    +0.000 A 
ATOM     11  C   UNL     1       5.415  16.735  19.257  0.00  0.00    +0.000 A 
ATOM     12  O   UNL     1       5.302  15.070  17.496  0.00  0.00    +0.000 OA
ATOM     13  C   UNL     1       6.537  14.710  18.121  0.00  0.00    +0.000 C 
ATOM     14  C   UNL     1       7.308  13.566  17.515  0.00  0.00    +0.000 C 
ATOM     15  C   UNL     1       8.705  13.721  18.105  0.00  0.00    +0.000 C 
ATOM     16  C   UNL     1       9.833  13.072  17.329  0.00  0.00    +0.000 C 
ATOM     17  O   UNL     1      11.110  13.727  17.629  0.00  0.00    +0.000 OA
ATOM     18  C   UNL     1      11.520  13.424  18.933  0.00  0.00    +0.000 A 
ATOM     19  C   UNL     1      11.750  12.080  19.159  0.00  0.00    +0.000 A 
ATOM     20  C   UNL     1      11.142  11.539  20.283  0.00  0.00    +0.000 A 
ATOM     21  C   UNL     1      10.318  12.348  21.135  0.00  0.00    +0.000 A 
ATOM     22  C   UNL     1      10.238  13.744  20.983  0.00  0.00    +0.000 A 
ATOM     23  C   UNL     1      11.057  14.262  19.972  0.00  0.00    +0.000 A 
ATOM     24  H   UNL     1       7.593  14.197  22.138  0.00  0.00    +0.000 HD
ENDROOT
BRANCH   4  25
ATOM     25  C   UNL     1       8.185  17.256  21.224  0.00  0.00    +0.000 C 
ATOM     26  O   UNL     1       8.420  17.238  20.025  0.00  0.00    +0.000 OA
BRANCH  25  27
ATOM     27  OXT UNL     1       8.773  18.164  22.019  0.00  0.00    +0.000 OA
ATOM     28  HXT UNL     1       8.410  19.074  21.934  0.00  0.00    +0.000 HD
ENDBRANCH  25  27
ENDBRANCH   4  25
TORSDOF 2
ENDMDL
MODEL 9
REMARK VINA RESULT:      -5.9      2.720      4.770
REMARK  Name = 
REMARK  2 active torsions:
REMARK  status: ('A' for Active; 'I' for Inactive)
REMARK    1  A    between atoms: CA_4  and  C_5
REMARK    2  A    between atoms: C_5  and  OXT_7
REMARK                            x       y       z     vdW  Elec       q    Type
REMARK                         _______ _______ _______ _____ _____    ______ ____
ROOT
ATOM      1  O   UNL     1      -2.893  14.892  23.254  0.00  0.00    +0.000 OA
ATOM      2  C   UNL     1      -3.825  14.575  22.523  0.00  0.00    +0.000 C 
ATOM      3  N   UNL     1      -3.588  14.220  21.158  0.00  0.00    +0.000 N 
ATOM      4  CA  UNL     1      -2.207  13.649  20.592  0.00  0.00    +0.000 C 
ATOM      5  C   UNL     1      -1.402  12.765  19.273  0.00  0.00    +0.000 C 
ATOM      6  C   UNL     1      -2.136  11.894  18.230  0.00  0.00    +0.000 A 
ATOM      7  C   UNL     1      -1.816  11.724  16.870  0.00  0.00    +0.000 A 
ATOM      8  C   UNL     1      -2.718  11.088  15.977  0.00  0.00    +0.000 A 
ATOM      9  C   UNL     1      -3.990  10.726  16.414  0.00  0.00    +0.000 A 
ATOM     10  C   UNL     1      -4.248  10.821  17.767  0.00  0.00    +0.000 A 
ATOM     11  C   UNL     1      -3.215  11.160  18.652  0.00  0.00    +0.000 A 
ATOM     12  O   UNL     1      -5.563  10.751  18.196  0.00  0.00    +0.000 OA
ATOM     13  C   UNL     1      -5.657  11.507  19.405  0.00  0.00    +0.000 C 
ATOM     14  C   UNL     1      -7.036  11.737  19.969  0.00  0.00    +0.000 C 
ATOM     15  C   UNL     1      -6.770  12.160  21.409  0.00  0.00    +0.000 C 
ATOM     16  C   UNL     1      -7.914  11.968  22.384  0.00  0.00    +0.000 C 
ATOM     17  O   UNL     1      -7.411  11.855  23.756  0.00  0.00    +0.000 OA
ATOM     18  C   UNL     1      -6.930  13.093  24.203  0.00  0.00    +0.000 A 
ATOM     19  C   UNL     1      -7.888  14.089  24.257  0.00  0.00    +0.000 A 
ATOM     20  C   UNL     1      -7.550  15.291  23.652  0.00  0.00    +0.000 A 
ATOM     21  C   UNL     1      -6.280  15.459  23.006  0.00  0.00    +0.000 A 
ATOM     22  C   UNL     1      -5.260  14.495  23.112  0.00  0.00    +0.000 A 
ATOM     23  C   UNL     1      -5.580  13.404  23.928  0.00  0.00    +0.000 A 
ATOM     24  H   UNL     1      -3.815  15.059  20.635  0.00  0.00    +0.000 HD
ENDROOT
BRANCH   4  25
ATOM     25  C   UNL     1      -2.044  12.510  21.588  0.00  0.00    +0.000 C 
ATOM     26  O   UNL     1      -0.998  12.155  22.111  0.00  0.00    +0.000 OA
BRANCH  25  27
ATOM     27  OXT UNL     1      -3.192  11.869  21.858  0.00  0.00    +0.000 OA
ATOM     28  HXT UNL     1      -3.495  11.261  21.147  0.00  0.00    +0.000 HD
ENDBRANCH  25  27
ENDBRANCH   4  25
TORSDOF 2
ENDMDL
