MODEL 1
REMARK VINA RESULT:      -7.5      0.000      0.000
REMARK  Name = 
REMARK  7 active torsions:
REMARK  status: ('A' for Active; 'I' for Inactive)
REMARK    1  A    between atoms: C_1  and  C_2
REMARK    2  A    between atoms: C_2  and  C_4
REMARK    3  A    between atoms: C_4  and  C_5
REMARK    4  A    between atoms: C_6  and  C_7
REMARK    5  A    between atoms: C_9  and  O_10
REMARK    6  A    between atoms: C_13  and  C_14
REMARK    7  A    between atoms: C_13  and  O_15
REMARK                            x       y       z     vdW  Elec       q    Type
REMARK                         _______ _______ _______ _____ _____    ______ ____
ROOT
ATOM      1  C   UNL     1       5.840   5.169  17.745  0.00  0.00    +0.000 C 
ATOM      2  C   UNL     1       6.374   5.037  19.194  0.00  0.00    +0.000 C 
ATOM      3  C   UNL     1       5.717   6.675  17.442  0.00  0.00    +0.000 C 
ATOM      4  C   UNL     1       6.962   7.490  17.191  0.00  0.00    +0.000 C 
ATOM      5  C   UNL     1       4.526   7.306  17.420  0.00  0.00    +0.000 C 
ATOM      6  C   UNL     1       3.208   6.658  17.710  0.00  0.00    +0.000 C 
ATOM      7  C   UNL     1       3.338   5.250  18.320  0.00  0.00    +0.000 C 
ATOM      8  C   UNL     1       1.969   4.545  18.305  0.00  0.00    +0.000 C 
ATOM      9  C   UNL     1       2.064   3.088  18.769  0.00  0.00    +0.000 C 
ATOM     10  C   UNL     1       0.689   2.421  18.750  0.00  0.00    +0.000 C 
ATOM     11  C   UNL     1       3.056   2.334  17.877  0.00  0.00    +0.000 C 
ATOM     12  C   UNL     1       4.451   2.963  17.932  0.00  0.00    +0.000 C 
ATOM     13  C   UNL     1       4.439   4.462  17.570  0.00  0.00    +0.000 C 
ENDROOT
BRANCH   1  15
ATOM     14  C   UNL     1       6.446   4.248  15.346  0.00  0.00    +0.000 C 
ATOM     15  C   UNL     1       6.862   4.510  16.775  0.00  0.00    +0.000 C 
ATOM     16  O   UNL     1       8.007   4.211  17.136  0.00  0.00    +0.000 OA
ENDBRANCH   1  15
BRANCH   6  17
ATOM     17  O   UNL     1       2.494   7.499  18.608  0.00  0.00    +0.000 OA
ATOM     18  H   UNL     1       1.762   7.895  18.105  0.00  0.00    +0.000 HD
ENDBRANCH   6  17
BRANCH   9  19
ATOM     19  O   UNL     1       2.552   3.049  20.112  0.00  0.00    +0.000 OA
ATOM     20  H   UNL     1       1.787   2.991  20.710  0.00  0.00    +0.000 HD
ENDBRANCH   9  19
TORSDOF 3
ENDMDL
MODEL 2
REMARK VINA RESULT:      -6.6      1.556      4.753
REMARK  Name = 
REMARK  7 active torsions:
REMARK  status: ('A' for Active; 'I' for Inactive)
REMARK    1  A    between atoms: C_1  and  C_2
REMARK    2  A    between atoms: C_2  and  C_4
REMARK    3  A    between atoms: C_4  and  C_5
REMARK    4  A    between atoms: C_6  and  C_7
REMARK    5  A    between atoms: C_9  and  O_10
REMARK    6  A    between atoms: C_13  and  C_14
REMARK    7  A    between atoms: C_13  and  O_15
REMARK                            x       y       z     vdW  Elec       q    Type
REMARK                         _______ _______ _______ _____ _____    ______ ____
ROOT
ATOM      1  C   UNL     1       3.323   3.556  18.429  0.00  0.00    +0.000 C 
ATOM      2  C   UNL     1       2.877   3.324  16.963  0.00  0.00    +0.000 C 
ATOM      3  C   UNL     1       2.102   4.106  19.193  0.00  0.00    +0.000 C 
ATOM      4  C   UNL     1       0.968   3.179  19.554  0.00  0.00    +0.000 C 
ATOM      5  C   UNL     1       1.996   5.406  19.532  0.00  0.00    +0.000 C 
ATOM      6  C   UNL     1       2.999   6.464  19.195  0.00  0.00    +0.000 C 
ATOM      7  C   UNL     1       4.054   6.005  18.170  0.00  0.00    +0.000 C 
ATOM      8  C   UNL     1       5.203   7.027  18.108  0.00  0.00    +0.000 C 
ATOM      9  C   UNL     1       6.351   6.553  17.210  0.00  0.00    +0.000 C 
ATOM     10  C   UNL     1       7.469   7.593  17.164  0.00  0.00    +0.000 C 
ATOM     11  C   UNL     1       6.870   5.204  17.718  0.00  0.00    +0.000 C 
ATOM     12  C   UNL     1       5.767   4.141  17.716  0.00  0.00    +0.000 C 
ATOM     13  C   UNL     1       4.526   4.574  18.522  0.00  0.00    +0.000 C 
ENDROOT
BRANCH   1  15
ATOM     14  C   UNL     1       4.354   2.175  20.429  0.00  0.00    +0.000 C 
ATOM     15  C   UNL     1       3.765   2.195  19.038  0.00  0.00    +0.000 C 
ATOM     16  O   UNL     1       3.634   1.130  18.422  0.00  0.00    +0.000 OA
ENDBRANCH   1  15
BRANCH   6  17
ATOM     17  O   UNL     1       2.296   7.588  18.679  0.00  0.00    +0.000 OA
ATOM     18  H   UNL     1       2.097   8.169  19.433  0.00  0.00    +0.000 HD
ENDBRANCH   6  17
BRANCH   9  19
ATOM     19  O   UNL     1       5.866   6.372  15.877  0.00  0.00    +0.000 OA
ATOM     20  H   UNL     1       4.905   6.521  15.882  0.00  0.00    +0.000 HD
ENDBRANCH   9  19
TORSDOF 3
ENDMDL
MODEL 3
REMARK VINA RESULT:      -6.5      1.077      1.109
REMARK  Name = 
REMARK  7 active torsions:
REMARK  status: ('A' for Active; 'I' for Inactive)
REMARK    1  A    between atoms: C_1  and  C_2
REMARK    2  A    between atoms: C_2  and  C_4
REMARK    3  A    between atoms: C_4  and  C_5
REMARK    4  A    between atoms: C_6  and  C_7
REMARK    5  A    between atoms: C_9  and  O_10
REMARK    6  A    between atoms: C_13  and  C_14
REMARK    7  A    between atoms: C_13  and  O_15
REMARK                            x       y       z     vdW  Elec       q    Type
REMARK                         _______ _______ _______ _____ _____    ______ ____
ROOT
ATOM      1  C   UNL     1       5.189   5.219  17.359  0.00  0.00    +0.000 C 
ATOM      2  C   UNL     1       6.065   4.843  18.581  0.00  0.00    +0.000 C 
ATOM      3  C   UNL     1       4.997   6.748  17.391  0.00  0.00    +0.000 C 
ATOM      4  C   UNL     1       6.142   7.652  17.005  0.00  0.00    +0.000 C 
ATOM      5  C   UNL     1       3.839   7.316  17.781  0.00  0.00    +0.000 C 
ATOM      6  C   UNL     1       2.632   6.566  18.253  0.00  0.00    +0.000 C 
ATOM      7  C   UNL     1       2.907   5.076  18.530  0.00  0.00    +0.000 C 
ATOM      8  C   UNL     1       1.576   4.324  18.715  0.00  0.00    +0.000 C 
ATOM      9  C   UNL     1       1.781   2.812  18.852  0.00  0.00    +0.000 C 
ATOM     10  C   UNL     1       0.443   2.098  19.041  0.00  0.00    +0.000 C 
ATOM     11  C   UNL     1       2.519   2.285  17.617  0.00  0.00    +0.000 C 
ATOM     12  C   UNL     1       3.886   2.956  17.451  0.00  0.00    +0.000 C 
ATOM     13  C   UNL     1       3.787   4.494  17.398  0.00  0.00    +0.000 C 
ENDROOT
BRANCH   1  15
ATOM     14  C   UNL     1       7.358   4.297  16.170  0.00  0.00    +0.000 C 
ATOM     15  C   UNL     1       5.937   4.801  16.061  0.00  0.00    +0.000 C 
ATOM     16  O   UNL     1       5.399   4.856  14.949  0.00  0.00    +0.000 OA
ENDBRANCH   1  15
BRANCH   6  17
ATOM     17  O   UNL     1       2.165   7.190  19.443  0.00  0.00    +0.000 OA
ATOM     18  H   UNL     1       1.224   7.395  19.305  0.00  0.00    +0.000 HD
ENDBRANCH   6  17
BRANCH   9  19
ATOM     19  O   UNL     1       2.586   2.545  20.002  0.00  0.00    +0.000 OA
ATOM     20  H   UNL     1       3.520   2.652  19.750  0.00  0.00    +0.000 HD
ENDBRANCH   9  19
TORSDOF 3
ENDMDL
MODEL 4
REMARK VINA RESULT:      -6.5      1.540      5.005
REMARK  Name = 
REMARK  7 active torsions:
REMARK  status: ('A' for Active; 'I' for Inactive)
REMARK    1  A    between atoms: C_1  and  C_2
REMARK    2  A    between atoms: C_2  and  C_4
REMARK    3  A    between atoms: C_4  and  C_5
REMARK    4  A    between atoms: C_6  and  C_7
REMARK    5  A    between atoms: C_9  and  O_10
REMARK    6  A    between atoms: C_13  and  C_14
REMARK    7  A    between atoms: C_13  and  O_15
REMARK                            x       y       z     vdW  Elec       q    Type
REMARK                         _______ _______ _______ _____ _____    ______ ____
ROOT
ATOM      1  C   UNL     1       2.984   5.543  18.939  0.00  0.00    +0.000 C 
ATOM      2  C   UNL     1       4.055   5.317  20.036  0.00  0.00    +0.000 C 
ATOM      3  C   UNL     1       1.842   4.541  19.206  0.00  0.00    +0.000 C 
ATOM      4  C   UNL     1       0.895   4.779  20.355  0.00  0.00    +0.000 C 
ATOM      5  C   UNL     1       1.674   3.433  18.458  0.00  0.00    +0.000 C 
ATOM      6  C   UNL     1       2.561   3.019  17.325  0.00  0.00    +0.000 C 
ATOM      7  C   UNL     1       3.872   3.824  17.249  0.00  0.00    +0.000 C 
ATOM      8  C   UNL     1       4.575   3.553  15.906  0.00  0.00    +0.000 C 
ATOM      9  C   UNL     1       5.813   4.435  15.714  0.00  0.00    +0.000 C 
ATOM     10  C   UNL     1       6.490   4.135  14.377  0.00  0.00    +0.000 C 
ATOM     11  C   UNL     1       5.407   5.909  15.809  0.00  0.00    +0.000 C 
ATOM     12  C   UNL     1       4.776   6.231  17.167  0.00  0.00    +0.000 C 
ATOM     13  C   UNL     1       3.573   5.323  17.491  0.00  0.00    +0.000 C 
ENDROOT
BRANCH   1  15
ATOM     14  C   UNL     1       2.081   7.741  17.789  0.00  0.00    +0.000 C 
ATOM     15  C   UNL     1       2.453   7.000  19.053  0.00  0.00    +0.000 C 
ATOM     16  O   UNL     1       2.313   7.562  20.146  0.00  0.00    +0.000 OA
ENDBRANCH   1  15
BRANCH   6  17
ATOM     17  O   UNL     1       2.862   1.639  17.485  0.00  0.00    +0.000 OA
ATOM     18  H   UNL     1       2.015   1.176  17.608  0.00  0.00    +0.000 HD
ENDBRANCH   6  17
BRANCH   9  19
ATOM     19  O   UNL     1       6.755   4.163  16.753  0.00  0.00    +0.000 OA
ATOM     20  H   UNL     1       6.270   3.802  17.515  0.00  0.00    +0.000 HD
ENDBRANCH   9  19
TORSDOF 3
ENDMDL
MODEL 5
REMARK VINA RESULT:      -5.9      1.787      4.652
REMARK  Name = 
REMARK  7 active torsions:
REMARK  status: ('A' for Active; 'I' for Inactive)
REMARK    1  A    between atoms: C_1  and  C_2
REMARK    2  A    between atoms: C_2  and  C_4
REMARK    3  A    between atoms: C_4  and  C_5
REMARK    4  A    between atoms: C_6  and  C_7
REMARK    5  A    between atoms: C_9  and  O_10
REMARK    6  A    between atoms: C_13  and  C_14
REMARK    7  A    between atoms: C_13  and  O_15
REMARK                            x       y       z     vdW  Elec       q    Type
REMARK                         _______ _______ _______ _____ _____    ______ ____
ROOT
ATOM      1  C   UNL     1       2.731   3.914  18.533  0.00  0.00    +0.000 C 
ATOM      2  C   UNL     1       1.626   3.684  17.472  0.00  0.00    +0.000 C 
ATOM      3  C   UNL     1       2.282   5.103  19.406  0.00  0.00    +0.000 C 
ATOM      4  C   UNL     1       1.178   4.913  20.416  0.00  0.00    +0.000 C 
ATOM      5  C   UNL     1       2.828   6.329  19.279  0.00  0.00    +0.000 C 
ATOM      6  C   UNL     1       3.885   6.699  18.286  0.00  0.00    +0.000 C 
ATOM      7  C   UNL     1       4.114   5.624  17.206  0.00  0.00    +0.000 C 
ATOM      8  C   UNL     1       5.400   5.939  16.420  0.00  0.00    +0.000 C 
ATOM      9  C   UNL     1       5.757   4.827  15.428  0.00  0.00    +0.000 C 
ATOM     10  C   UNL     1       7.031   5.174  14.659  0.00  0.00    +0.000 C 
ATOM     11  C   UNL     1       5.909   3.502  16.181  0.00  0.00    +0.000 C 
ATOM     12  C   UNL     1       4.618   3.119  16.910  0.00  0.00    +0.000 C 
ATOM     13  C   UNL     1       4.128   4.224  17.867  0.00  0.00    +0.000 C 
ENDROOT
BRANCH   1  15
ATOM     14  C   UNL     1       4.034   2.509  20.350  0.00  0.00    +0.000 C 
ATOM     15  C   UNL     1       2.861   2.632  19.404  0.00  0.00    +0.000 C 
ATOM     16  O   UNL     1       2.025   1.721  19.356  0.00  0.00    +0.000 OA
ENDBRANCH   1  15
BRANCH   6  17
ATOM     17  O   UNL     1       3.496   7.917  17.664  0.00  0.00    +0.000 OA
ATOM     18  H   UNL     1       4.226   8.183  17.079  0.00  0.00    +0.000 HD
ENDBRANCH   6  17
BRANCH   9  19
ATOM     19  O   UNL     1       4.699   4.682  14.478  0.00  0.00    +0.000 OA
ATOM     20  H   UNL     1       4.949   3.983  13.850  0.00  0.00    +0.000 HD
ENDBRANCH   9  19
TORSDOF 3
ENDMDL
MODEL 6
REMARK VINA RESULT:      -5.9      1.916      5.037
REMARK  Name = 
REMARK  7 active torsions:
REMARK  status: ('A' for Active; 'I' for Inactive)
REMARK    1  A    between atoms: C_1  and  C_2
REMARK    2  A    between atoms: C_2  and  C_4
REMARK    3  A    between atoms: C_4  and  C_5
REMARK    4  A    between atoms: C_6  and  C_7
REMARK    5  A    between atoms: C_9  and  O_10
REMARK    6  A    between atoms: C_13  and  C_14
REMARK    7  A    between atoms: C_13  and  O_15
REMARK                            x       y       z     vdW  Elec       q    Type
REMARK                         _______ _______ _______ _____ _____    ______ ____
ROOT
ATOM      1  C   UNL     1       3.129   4.388  18.204  0.00  0.00    +0.000 C 
ATOM      2  C   UNL     1       2.566   5.817  17.997  0.00  0.00    +0.000 C 
ATOM      3  C   UNL     1       3.538   4.272  19.686  0.00  0.00    +0.000 C 
ATOM      4  C   UNL     1       2.473   4.141  20.747  0.00  0.00    +0.000 C 
ATOM      5  C   UNL     1       4.827   4.311  20.077  0.00  0.00    +0.000 C 
ATOM      6  C   UNL     1       5.996   4.498  19.161  0.00  0.00    +0.000 C 
ATOM      7  C   UNL     1       5.595   4.931  17.738  0.00  0.00    +0.000 C 
ATOM      8  C   UNL     1       6.806   4.810  16.793  0.00  0.00    +0.000 C 
ATOM      9  C   UNL     1       6.431   5.091  15.335  0.00  0.00    +0.000 C 
ATOM     10  C   UNL     1       7.654   4.969  14.427  0.00  0.00    +0.000 C 
ATOM     11  C   UNL     1       5.322   4.127  14.900  0.00  0.00    +0.000 C 
ATOM     12  C   UNL     1       4.071   4.280  15.770  0.00  0.00    +0.000 C 
ATOM     13  C   UNL     1       4.371   4.106  17.272  0.00  0.00    +0.000 C 
ENDROOT
BRANCH   1  15
ATOM     14  C   UNL     1       2.330   1.884  17.954  0.00  0.00    +0.000 C 
ATOM     15  C   UNL     1       2.009   3.359  17.878  0.00  0.00    +0.000 C 
ATOM     16  O   UNL     1       0.863   3.713  17.573  0.00  0.00    +0.000 OA
ENDBRANCH   1  15
BRANCH   6  17
ATOM     17  O   UNL     1       6.848   5.483  19.732  0.00  0.00    +0.000 OA
ATOM     18  H   UNL     1       7.543   5.009  20.220  0.00  0.00    +0.000 HD
ENDBRANCH   6  17
BRANCH   9  19
ATOM     19  O   UNL     1       5.932   6.425  15.222  0.00  0.00    +0.000 OA
ATOM     20  H   UNL     1       5.073   6.390  14.769  0.00  0.00    +0.000 HD
ENDBRANCH   9  19
TORSDOF 3
ENDMDL
MODEL 7
REMARK VINA RESULT:      -5.8      1.583      1.678
REMARK  Name = 
REMARK  7 active torsions:
REMARK  status: ('A' for Active; 'I' for Inactive)
REMARK    1  A    between atoms: C_1  and  C_2
REMARK    2  A    between atoms: C_2  and  C_4
REMARK    3  A    between atoms: C_4  and  C_5
REMARK    4  A    between atoms: C_6  and  C_7
REMARK    5  A    between atoms: C_9  and  O_10
REMARK    6  A    between atoms: C_13  and  C_14
REMARK    7  A    between atoms: C_13  and  O_15
REMARK                            x       y       z     vdW  Elec       q    Type
REMARK                         _______ _______ _______ _____ _____    ______ ____
ROOT
ATOM      1  C   UNL     1       4.964   5.173  17.910  0.00  0.00    +0.000 C 
ATOM      2  C   UNL     1       6.111   5.172  18.952  0.00  0.00    +0.000 C 
ATOM      3  C   UNL     1       4.627   6.646  17.607  0.00  0.00    +0.000 C 
ATOM      4  C   UNL     1       5.565   7.468  16.758  0.00  0.00    +0.000 C 
ATOM      5  C   UNL     1       3.524   7.244  18.101  0.00  0.00    +0.000 C 
ATOM      6  C   UNL     1       2.528   6.591  19.007  0.00  0.00    +0.000 C 
ATOM      7  C   UNL     1       3.007   5.240  19.572  0.00  0.00    +0.000 C 
ATOM      8  C   UNL     1       1.829   4.504  20.237  0.00  0.00    +0.000 C 
ATOM      9  C   UNL     1       2.213   3.092  20.692  0.00  0.00    +0.000 C 
ATOM     10  C   UNL     1       1.026   2.393  21.353  0.00  0.00    +0.000 C 
ATOM     11  C   UNL     1       2.726   2.292  19.490  0.00  0.00    +0.000 C 
ATOM     12  C   UNL     1       3.950   2.957  18.854  0.00  0.00    +0.000 C 
ATOM     13  C   UNL     1       3.684   4.421  18.448  0.00  0.00    +0.000 C 
ENDROOT
BRANCH   1  15
ATOM     14  C   UNL     1       6.947   4.252  16.431  0.00  0.00    +0.000 C 
ATOM     15  C   UNL     1       5.462   4.463  16.619  0.00  0.00    +0.000 C 
ATOM     16  O   UNL     1       4.679   4.055  15.753  0.00  0.00    +0.000 OA
ENDBRANCH   1  15
BRANCH   6  17
ATOM     17  O   UNL     1       2.259   7.484  20.081  0.00  0.00    +0.000 OA
ATOM     18  H   UNL     1       2.826   7.213  20.824  0.00  0.00    +0.000 HD
ENDBRANCH   6  17
BRANCH   9  19
ATOM     19  O   UNL     1       3.265   3.174  21.656  0.00  0.00    +0.000 OA
ATOM     20  H   UNL     1       3.426   4.114  21.849  0.00  0.00    +0.000 HD
ENDBRANCH   9  19
TORSDOF 3
ENDMDL
MODEL 8
REMARK VINA RESULT:      -5.6      1.884      3.072
REMARK  Name = 
REMARK  7 active torsions:
REMARK  status: ('A' for Active; 'I' for Inactive)
REMARK    1  A    between atoms: C_1  and  C_2
REMARK    2  A    between atoms: C_2  and  C_4
REMARK    3  A    between atoms: C_4  and  C_5
REMARK    4  A    between atoms: C_6  and  C_7
REMARK    5  A    between atoms: C_9  and  O_10
REMARK    6  A    between atoms: C_13  and  C_14
REMARK    7  A    between atoms: C_13  and  O_15
REMARK                            x       y       z     vdW  Elec       q    Type
REMARK                         _______ _______ _______ _____ _____    ______ ____
ROOT
ATOM      1  C   UNL     1       4.957   5.160  17.091  0.00  0.00    +0.000 C 
ATOM      2  C   UNL     1       5.293   4.199  15.923  0.00  0.00    +0.000 C 
ATOM      3  C   UNL     1       6.181   5.179  18.029  0.00  0.00    +0.000 C 
ATOM      4  C   UNL     1       7.428   5.918  17.615  0.00  0.00    +0.000 C 
ATOM      5  C   UNL     1       6.186   4.527  19.209  0.00  0.00    +0.000 C 
ATOM      6  C   UNL     1       5.057   3.699  19.737  0.00  0.00    +0.000 C 
ATOM      7  C   UNL     1       3.967   3.408  18.687  0.00  0.00    +0.000 C 
ATOM      8  C   UNL     1       2.721   2.822  19.376  0.00  0.00    +0.000 C 
ATOM      9  C   UNL     1       1.552   2.646  18.401  0.00  0.00    +0.000 C 
ATOM     10  C   UNL     1       0.336   2.056  19.113  0.00  0.00    +0.000 C 
ATOM     11  C   UNL     1       1.216   3.997  17.761  0.00  0.00    +0.000 C 
ATOM     12  C   UNL     1       2.414   4.570  16.998  0.00  0.00    +0.000 C 
ATOM     13  C   UNL     1       3.672   4.695  17.881  0.00  0.00    +0.000 C 
ENDROOT
BRANCH   1  15
ATOM     14  C   UNL     1       3.992   7.602  17.365  0.00  0.00    +0.000 C 
ATOM     15  C   UNL     1       4.708   6.581  16.511  0.00  0.00    +0.000 C 
ATOM     16  O   UNL     1       5.091   6.903  15.379  0.00  0.00    +0.000 OA
ENDBRANCH   1  15
BRANCH   6  17
ATOM     17  O   UNL     1       5.597   2.471  20.210  0.00  0.00    +0.000 OA
ATOM     18  H   UNL     1       5.934   2.636  21.107  0.00  0.00    +0.000 HD
ENDBRANCH   6  17
BRANCH   9  19
ATOM     19  O   UNL     1       1.933   1.741  17.362  0.00  0.00    +0.000 OA
ATOM     20  H   UNL     1       2.757   2.069  16.963  0.00  0.00    +0.000 HD
ENDBRANCH   9  19
TORSDOF 3
ENDMDL
MODEL 9
REMARK VINA RESULT:      -5.5      7.466      9.707
REMARK  Name = 
REMARK  7 active torsions:
REMARK  status: ('A' for Active; 'I' for Inactive)
REMARK    1  A    between atoms: C_1  and  C_2
REMARK    2  A    between atoms: C_2  and  C_4
REMARK    3  A    between atoms: C_4  and  C_5
REMARK    4  A    between atoms: C_6  and  C_7
REMARK    5  A    between atoms: C_9  and  O_10
REMARK    6  A    between atoms: C_13  and  C_14
REMARK    7  A    between atoms: C_13  and  O_15
REMARK                            x       y       z     vdW  Elec       q    Type
REMARK                         _______ _______ _______ _____ _____    ______ ____
ROOT
ATOM      1  C   UNL     1       0.144  10.769  20.635  0.00  0.00    +0.000 C 
ATOM      2  C   UNL     1       1.165  11.933  20.687  0.00  0.00    +0.000 C 
ATOM      3  C   UNL     1       0.163  10.212  19.197  0.00  0.00    +0.000 C 
ATOM      4  C   UNL     1       1.330   9.375  18.736  0.00  0.00    +0.000 C 
ATOM      5  C   UNL     1      -0.823  10.473  18.316  0.00  0.00    +0.000 C 
ATOM      6  C   UNL     1      -2.015  11.335  18.594  0.00  0.00    +0.000 C 
ATOM      7  C   UNL     1      -1.893  12.148  19.897  0.00  0.00    +0.000 C 
ATOM      8  C   UNL     1      -3.258  12.763  20.259  0.00  0.00    +0.000 C 
ATOM      9  C   UNL     1      -3.231  13.464  21.621  0.00  0.00    +0.000 C 
ATOM     10  C   UNL     1      -4.597  14.069  21.946  0.00  0.00    +0.000 C 
ATOM     11  C   UNL     1      -2.799  12.466  22.699  0.00  0.00    +0.000 C 
ATOM     12  C   UNL     1      -1.407  11.895  22.410  0.00  0.00    +0.000 C 
ATOM     13  C   UNL     1      -1.311  11.248  21.014  0.00  0.00    +0.000 C 
ENDROOT
BRANCH   1  15
ATOM     14  C   UNL     1      -0.265   8.431  21.792  0.00  0.00    +0.000 C 
ATOM     15  C   UNL     1       0.591   9.668  21.639  0.00  0.00    +0.000 C 
ATOM     16  O   UNL     1       1.630   9.770  22.302  0.00  0.00    +0.000 OA
ENDBRANCH   1  15
BRANCH   6  17
ATOM     17  O   UNL     1      -2.179  12.223  17.496  0.00  0.00    +0.000 OA
ATOM     18  H   UNL     1      -2.958  12.773  17.690  0.00  0.00    +0.000 HD
ENDBRANCH   6  17
BRANCH   9  19
ATOM     19  O   UNL     1      -2.278  14.528  21.588  0.00  0.00    +0.000 OA
ATOM     20  H   UNL     1      -2.418  15.035  20.770  0.00  0.00    +0.000 HD
ENDBRANCH   9  19
TORSDOF 3
ENDMDL
