MODEL 1
REMARK VINA RESULT:      -8.4      0.000      0.000
REMARK  Name = 
REMARK  9 active torsions:
REMARK  status: ('A' for Active; 'I' for Inactive)
REMARK    1  A    between atoms: C_2  and  C_3
REMARK    2  A    between atoms: C_2  and  C_18
REMARK    3  A    between atoms: C_6  and  O_7
REMARK    4  A    between atoms: O_7  and  C_8
REMARK    5  A    between atoms: C_8  and  C_9
REMARK    6  A    between atoms: C_9  and  N_10
REMARK    7  A    between atoms: C_19  and  C_20
REMARK    8  A    between atoms: C_23  and  O_24
REMARK    9  A    between atoms: C_32  and  O_33
REMARK                            x       y       z     vdW  Elec       q    Type
REMARK                         _______ _______ _______ _____ _____    ______ ____
ROOT
ATOM      1  C   UNL     1       0.933  11.391  19.453  0.00  0.00    +0.000 A 
ATOM      2  C   UNL     1      -0.071  12.019  18.701  0.00  0.00    +0.000 A 
ATOM      3  S   UNL     1       0.431  13.666  18.789  0.00  0.00    +0.000 S 
ATOM      4  C   UNL     1       0.523  13.379  20.518  0.00  0.00    +0.000 A 
ATOM      5  C   UNL     1       0.280  14.347  21.503  0.00  0.00    +0.000 A 
ATOM      6  C   UNL     1      -0.493  13.911  22.574  0.00  0.00    +0.000 A 
ATOM      7  C   UNL     1      -0.821  12.560  22.706  0.00  0.00    +0.000 A 
ATOM      8  C   UNL     1      -0.272  11.580  21.845  0.00  0.00    +0.000 A 
ATOM      9  C   UNL     1       0.509  11.974  20.721  0.00  0.00    +0.000 A 
ENDROOT
BRANCH   2  10
ATOM     10  C   UNL     1      -1.432  11.463  18.522  0.00  0.00    +0.000 A 
ATOM     11  C   UNL     1      -1.710  10.409  17.650  0.00  0.00    +0.000 A 
ATOM     12  C   UNL     1      -3.040  10.047  17.385  0.00  0.00    +0.000 A 
ATOM     13  C   UNL     1      -4.090  10.751  17.971  0.00  0.00    +0.000 A 
ATOM     14  C   UNL     1      -3.846  11.841  18.776  0.00  0.00    +0.000 A 
ATOM     15  C   UNL     1      -2.532  12.182  19.051  0.00  0.00    +0.000 A 
BRANCH  13  16
ATOM     16  O   UNL     1      -5.387  10.396  17.770  0.00  0.00    +0.000 OA
ATOM     17  H   UNL     1      -5.901  11.218  17.704  0.00  0.00    +0.000 HD
ENDBRANCH  13  16
ENDBRANCH   2  10
BRANCH   1  19
ATOM     18  O   UNL     1       2.105  10.507  17.669  0.00  0.00    +0.000 OA
ATOM     19  C   UNL     1       1.507  10.255  18.725  0.00  0.00    +0.000 C 
BRANCH  19  20
ATOM     20  C   UNL     1       1.584   8.820  19.050  0.00  0.00    +0.000 A 
ATOM     21  C   UNL     1       1.317   8.310  20.310  0.00  0.00    +0.000 A 
ATOM     22  C   UNL     1       1.791   7.027  20.638  0.00  0.00    +0.000 A 
ATOM     23  C   UNL     1       2.559   6.259  19.740  0.00  0.00    +0.000 A 
ATOM     24  C   UNL     1       2.717   6.718  18.452  0.00  0.00    +0.000 A 
ATOM     25  C   UNL     1       2.232   7.984  18.099  0.00  0.00    +0.000 A 
BRANCH  23  26
ATOM     26  O   UNL     1       3.232   5.096  20.066  0.00  0.00    +0.000 OA
BRANCH  26  27
ATOM     27  C   UNL     1       3.598   4.323  18.922  0.00  0.00    +0.000 C 
BRANCH  27  28
ATOM     28  C   UNL     1       4.953   3.588  19.048  0.00  0.00    +0.000 C 
BRANCH  28  29
ATOM     29  N   UNL     1       6.082   4.365  18.465  0.00  0.00    +0.000 NA
ATOM     30  C   UNL     1       5.706   4.923  17.156  0.00  0.00    +0.000 C 
ATOM     31  C   UNL     1       6.863   5.684  16.498  0.00  0.00    +0.000 C 
ATOM     32  C   UNL     1       7.404   6.778  17.409  0.00  0.00    +0.000 C 
ATOM     33  C   UNL     1       7.749   6.195  18.770  0.00  0.00    +0.000 C 
ATOM     34  C   UNL     1       6.566   5.427  19.365  0.00  0.00    +0.000 C 
ENDBRANCH  28  29
ENDBRANCH  27  28
ENDBRANCH  26  27
ENDBRANCH  23  26
ENDBRANCH  19  20
ENDBRANCH   1  19
BRANCH   8  35
ATOM     35  O   UNL     1      -0.760  10.294  21.942  0.00  0.00    +0.000 OA
ATOM     36  H   UNL     1      -1.735  10.344  21.950  0.00  0.00    +0.000 HD
ENDBRANCH   8  35
TORSDOF 9
ENDMDL
MODEL 2
REMARK VINA RESULT:      -8.0      2.146      4.497
REMARK  Name = 
REMARK  9 active torsions:
REMARK  status: ('A' for Active; 'I' for Inactive)
REMARK    1  A    between atoms: C_2  and  C_3
REMARK    2  A    between atoms: C_2  and  C_18
REMARK    3  A    between atoms: C_6  and  O_7
REMARK    4  A    between atoms: O_7  and  C_8
REMARK    5  A    between atoms: C_8  and  C_9
REMARK    6  A    between atoms: C_9  and  N_10
REMARK    7  A    between atoms: C_19  and  C_20
REMARK    8  A    between atoms: C_23  and  O_24
REMARK    9  A    between atoms: C_32  and  O_33
REMARK                            x       y       z     vdW  Elec       q    Type
REMARK                         _______ _______ _______ _____ _____    ______ ____
ROOT
ATOM      1  C   UNL     1      -0.259  10.773  20.599  0.00  0.00    +0.000 A 
ATOM      2  C   UNL     1       0.182  12.098  20.735  0.00  0.00    +0.000 A 
ATOM      3  S   UNL     1      -0.958  12.710  21.874  0.00  0.00    +0.000 S 
ATOM      4  C   UNL     1      -2.163  12.035  20.791  0.00  0.00    +0.000 A 
ATOM      5  C   UNL     1      -3.445  12.566  20.591  0.00  0.00    +0.000 A 
ATOM      6  C   UNL     1      -3.860  12.611  19.265  0.00  0.00    +0.000 A 
ATOM      7  C   UNL     1      -3.103  11.994  18.265  0.00  0.00    +0.000 A 
ATOM      8  C   UNL     1      -1.977  11.196  18.579  0.00  0.00    +0.000 A 
ATOM      9  C   UNL     1      -1.499  11.132  19.920  0.00  0.00    +0.000 A 
ENDROOT
BRANCH   2  10
ATOM     10  C   UNL     1       0.943  12.820  19.690  0.00  0.00    +0.000 A 
ATOM     11  C   UNL     1       1.944  12.215  18.928  0.00  0.00    +0.000 A 
ATOM     12  C   UNL     1       2.754  12.992  18.086  0.00  0.00    +0.000 A 
ATOM     13  C   UNL     1       2.581  14.373  18.023  0.00  0.00    +0.000 A 
ATOM     14  C   UNL     1       1.652  15.005  18.818  0.00  0.00    +0.000 A 
ATOM     15  C   UNL     1       0.841  14.232  19.634  0.00  0.00    +0.000 A 
BRANCH  13  16
ATOM     16  O   UNL     1       3.319  15.147  17.183  0.00  0.00    +0.000 OA
ATOM     17  H   UNL     1       2.719  15.812  16.807  0.00  0.00    +0.000 HD
ENDBRANCH  13  16
ENDBRANCH   2  10
BRANCH   1  19
ATOM     18  O   UNL     1       1.490   9.896  21.829  0.00  0.00    +0.000 OA
ATOM     19  C   UNL     1       0.848   9.827  20.770  0.00  0.00    +0.000 C 
BRANCH  19  20
ATOM     20  C   UNL     1       1.322   8.711  19.933  0.00  0.00    +0.000 A 
ATOM     21  C   UNL     1       1.776   7.510  20.452  0.00  0.00    +0.000 A 
ATOM     22  C   UNL     1       2.568   6.676  19.642  0.00  0.00    +0.000 A 
ATOM     23  C   UNL     1       2.943   7.039  18.332  0.00  0.00    +0.000 A 
ATOM     24  C   UNL     1       2.390   8.172  17.781  0.00  0.00    +0.000 A 
ATOM     25  C   UNL     1       1.580   9.005  18.565  0.00  0.00    +0.000 A 
BRANCH  23  26
ATOM     26  O   UNL     1       3.884   6.377  17.565  0.00  0.00    +0.000 OA
BRANCH  26  27
ATOM     27  C   UNL     1       4.554   5.336  18.278  0.00  0.00    +0.000 C 
BRANCH  27  28
ATOM     28  C   UNL     1       4.293   3.913  17.734  0.00  0.00    +0.000 C 
BRANCH  28  29
ATOM     29  N   UNL     1       3.270   3.175  18.526  0.00  0.00    +0.000 NA
ATOM     30  C   UNL     1       3.426   3.458  19.963  0.00  0.00    +0.000 C 
ATOM     31  C   UNL     1       2.424   2.673  20.818  0.00  0.00    +0.000 C 
ATOM     32  C   UNL     1       0.989   2.926  20.376  0.00  0.00    +0.000 C 
ATOM     33  C   UNL     1       0.854   2.669  18.883  0.00  0.00    +0.000 C 
ATOM     34  C   UNL     1       1.894   3.460  18.085  0.00  0.00    +0.000 C 
ENDBRANCH  28  29
ENDBRANCH  27  28
ENDBRANCH  26  27
ENDBRANCH  23  26
ENDBRANCH  19  20
ENDBRANCH   1  19
BRANCH   8  35
ATOM     35  O   UNL     1      -1.196  10.748  17.536  0.00  0.00    +0.000 OA
ATOM     36  H   UNL     1      -0.404  11.316  17.491  0.00  0.00    +0.000 HD
ENDBRANCH   8  35
TORSDOF 9
ENDMDL
MODEL 3
REMARK VINA RESULT:      -7.8      0.772      1.229
REMARK  Name = 
REMARK  9 active torsions:
REMARK  status: ('A' for Active; 'I' for Inactive)
REMARK    1  A    between atoms: C_2  and  C_3
REMARK    2  A    between atoms: C_2  and  C_18
REMARK    3  A    between atoms: C_6  and  O_7
REMARK    4  A    between atoms: O_7  and  C_8
REMARK    5  A    between atoms: C_8  and  C_9
REMARK    6  A    between atoms: C_9  and  N_10
REMARK    7  A    between atoms: C_19  and  C_20
REMARK    8  A    between atoms: C_23  and  O_24
REMARK    9  A    between atoms: C_32  and  O_33
REMARK                            x       y       z     vdW  Elec       q    Type
REMARK                         _______ _______ _______ _____ _____    ______ ____
ROOT
ATOM      1  C   UNL     1       0.959  10.968  19.430  0.00  0.00    +0.000 A 
ATOM      2  C   UNL     1       0.008  11.709  18.712  0.00  0.00    +0.000 A 
ATOM      3  S   UNL     1       0.542  13.319  19.022  0.00  0.00    +0.000 S 
ATOM      4  C   UNL     1       0.539  12.825  20.705  0.00  0.00    +0.000 A 
ATOM      5  C   UNL     1       0.267  13.675  21.787  0.00  0.00    +0.000 A 
ATOM      6  C   UNL     1      -0.569  13.138  22.760  0.00  0.00    +0.000 A 
ATOM      7  C   UNL     1      -0.933  11.790  22.713  0.00  0.00    +0.000 A 
ATOM      8  C   UNL     1      -0.363  10.904  21.767  0.00  0.00    +0.000 A 
ATOM      9  C   UNL     1       0.484  11.407  20.737  0.00  0.00    +0.000 A 
ENDROOT
BRANCH   2  10
ATOM     10  C   UNL     1      -1.353  11.216  18.402  0.00  0.00    +0.000 A 
ATOM     11  C   UNL     1      -1.600  10.215  17.461  0.00  0.00    +0.000 A 
ATOM     12  C   UNL     1      -2.917   9.919  17.077  0.00  0.00    +0.000 A 
ATOM     13  C   UNL     1      -3.983  10.638  17.615  0.00  0.00    +0.000 A 
ATOM     14  C   UNL     1      -3.765  11.678  18.489  0.00  0.00    +0.000 A 
ATOM     15  C   UNL     1      -2.464  11.954  18.879  0.00  0.00    +0.000 A 
BRANCH  13  16
ATOM     16  O   UNL     1      -5.273  10.344  17.298  0.00  0.00    +0.000 OA
ATOM     17  H   UNL     1      -5.413   9.406  17.511  0.00  0.00    +0.000 HD
ENDBRANCH  13  16
ENDBRANCH   2  10
BRANCH   1  19
ATOM     18  O   UNL     1       1.751  10.182  17.407  0.00  0.00    +0.000 OA
ATOM     19  C   UNL     1       1.544   9.911  18.599  0.00  0.00    +0.000 C 
BRANCH  19  20
ATOM     20  C   UNL     1       2.027   8.559  18.929  0.00  0.00    +0.000 A 
ATOM     21  C   UNL     1       2.510   7.671  17.982  0.00  0.00    +0.000 A 
ATOM     22  C   UNL     1       2.568   6.303  18.300  0.00  0.00    +0.000 A 
ATOM     23  C   UNL     1       2.118   5.801  19.538  0.00  0.00    +0.000 A 
ATOM     24  C   UNL     1       1.754   6.697  20.518  0.00  0.00    +0.000 A 
ATOM     25  C   UNL     1       1.711   8.068  20.227  0.00  0.00    +0.000 A 
BRANCH  23  26
ATOM     26  O   UNL     1       1.947   4.461  19.836  0.00  0.00    +0.000 OA
BRANCH  26  27
ATOM     27  C   UNL     1       2.750   3.602  19.025  0.00  0.00    +0.000 C 
BRANCH  27  28
ATOM     28  C   UNL     1       4.197   3.408  19.532  0.00  0.00    +0.000 C 
BRANCH  28  29
ATOM     29  N   UNL     1       5.214   3.687  18.479  0.00  0.00    +0.000 NA
ATOM     30  C   UNL     1       4.588   3.706  17.147  0.00  0.00    +0.000 C 
ATOM     31  C   UNL     1       5.613   3.936  16.030  0.00  0.00    +0.000 C 
ATOM     32  C   UNL     1       6.418   5.209  16.260  0.00  0.00    +0.000 C 
ATOM     33  C   UNL     1       7.024   5.193  17.655  0.00  0.00    +0.000 C 
ATOM     34  C   UNL     1       5.958   4.935  18.723  0.00  0.00    +0.000 C 
ENDBRANCH  28  29
ENDBRANCH  27  28
ENDBRANCH  26  27
ENDBRANCH  23  26
ENDBRANCH  19  20
ENDBRANCH   1  19
BRANCH   8  35
ATOM     35  O   UNL     1      -0.882   9.630  21.685  0.00  0.00    +0.000 OA
ATOM     36  H   UNL     1      -0.223   9.067  21.236  0.00  0.00    +0.000 HD
ENDBRANCH   8  35
TORSDOF 9
ENDMDL
MODEL 4
REMARK VINA RESULT:      -7.8      1.638      3.879
REMARK  Name = 
REMARK  9 active torsions:
REMARK  status: ('A' for Active; 'I' for Inactive)
REMARK    1  A    between atoms: C_2  and  C_3
REMARK    2  A    between atoms: C_2  and  C_18
REMARK    3  A    between atoms: C_6  and  O_7
REMARK    4  A    between atoms: O_7  and  C_8
REMARK    5  A    between atoms: C_8  and  C_9
REMARK    6  A    between atoms: C_9  and  N_10
REMARK    7  A    between atoms: C_19  and  C_20
REMARK    8  A    between atoms: C_23  and  O_24
REMARK    9  A    between atoms: C_32  and  O_33
REMARK                            x       y       z     vdW  Elec       q    Type
REMARK                         _______ _______ _______ _____ _____    ______ ____
ROOT
ATOM      1  C   UNL     1      -0.535  10.637  20.271  0.00  0.00    +0.000 A 
ATOM      2  C   UNL     1      -0.290  12.018  20.302  0.00  0.00    +0.000 A 
ATOM      3  S   UNL     1      -1.761  12.599  20.987  0.00  0.00    +0.000 S 
ATOM      4  C   UNL     1      -2.536  11.626  19.750  0.00  0.00    +0.000 A 
ATOM      5  C   UNL     1      -3.758  11.938  19.136  0.00  0.00    +0.000 A 
ATOM      6  C   UNL     1      -3.785  11.755  17.758  0.00  0.00    +0.000 A 
ATOM      7  C   UNL     1      -2.718  11.132  17.106  0.00  0.00    +0.000 A 
ATOM      8  C   UNL     1      -1.650  10.550  17.829  0.00  0.00    +0.000 A 
ATOM      9  C   UNL     1      -1.564  10.725  19.241  0.00  0.00    +0.000 A 
ENDROOT
BRANCH   2  10
ATOM     10  C   UNL     1       0.656  12.704  19.393  0.00  0.00    +0.000 A 
ATOM     11  C   UNL     1       1.730  12.052  18.785  0.00  0.00    +0.000 A 
ATOM     12  C   UNL     1       2.696  12.790  18.083  0.00  0.00    +0.000 A 
ATOM     13  C   UNL     1       2.602  14.178  18.010  0.00  0.00    +0.000 A 
ATOM     14  C   UNL     1       1.595  14.854  18.662  0.00  0.00    +0.000 A 
ATOM     15  C   UNL     1       0.633  14.119  19.337  0.00  0.00    +0.000 A 
BRANCH  13  16
ATOM     16  O   UNL     1       3.496  14.916  17.299  0.00  0.00    +0.000 OA
ATOM     17  H   UNL     1       4.344  14.869  17.771  0.00  0.00    +0.000 HD
ENDBRANCH  13  16
ENDBRANCH   2  10
BRANCH   1  19
ATOM     18  O   UNL     1       0.856  10.159  22.053  0.00  0.00    +0.000 OA
ATOM     19  C   UNL     1       0.571   9.889  20.877  0.00  0.00    +0.000 C 
BRANCH  19  20
ATOM     20  C   UNL     1       1.396   8.778  20.372  0.00  0.00    +0.000 A 
ATOM     21  C   UNL     1       1.921   8.742  19.090  0.00  0.00    +0.000 A 
ATOM     22  C   UNL     1       2.341   7.508  18.563  0.00  0.00    +0.000 A 
ATOM     23  C   UNL     1       2.214   6.302  19.283  0.00  0.00    +0.000 A 
ATOM     24  C   UNL     1       1.807   6.361  20.597  0.00  0.00    +0.000 A 
ATOM     25  C   UNL     1       1.406   7.586  21.148  0.00  0.00    +0.000 A 
BRANCH  23  26
ATOM     26  O   UNL     1       2.403   5.038  18.754  0.00  0.00    +0.000 OA
BRANCH  26  27
ATOM     27  C   UNL     1       3.542   4.370  19.298  0.00  0.00    +0.000 C 
BRANCH  27  28
ATOM     28  C   UNL     1       4.450   3.688  18.249  0.00  0.00    +0.000 C 
BRANCH  28  29
ATOM     29  N   UNL     1       5.743   4.403  18.059  0.00  0.00    +0.000 NA
ATOM     30  C   UNL     1       5.692   5.254  16.858  0.00  0.00    +0.000 C 
ATOM     31  C   UNL     1       7.025   5.965  16.597  0.00  0.00    +0.000 C 
ATOM     32  C   UNL     1       7.476   6.774  17.807  0.00  0.00    +0.000 C 
ATOM     33  C   UNL     1       7.484   5.892  19.045  0.00  0.00    +0.000 C 
ATOM     34  C   UNL     1       6.137   5.191  19.240  0.00  0.00    +0.000 C 
ENDBRANCH  28  29
ENDBRANCH  27  28
ENDBRANCH  26  27
ENDBRANCH  23  26
ENDBRANCH  19  20
ENDBRANCH   1  19
BRANCH   8  35
ATOM     35  O   UNL     1      -0.564  10.090  17.114  0.00  0.00    +0.000 OA
ATOM     36  H   UNL     1      -0.800  10.114  16.167  0.00  0.00    +0.000 HD
ENDBRANCH   8  35
TORSDOF 9
ENDMDL
MODEL 5
REMARK VINA RESULT:      -7.8      1.849      3.113
REMARK  Name = 
REMARK  9 active torsions:
REMARK  status: ('A' for Active; 'I' for Inactive)
REMARK    1  A    between atoms: C_2  and  C_3
REMARK    2  A    between atoms: C_2  and  C_18
REMARK    3  A    between atoms: C_6  and  O_7
REMARK    4  A    between atoms: O_7  and  C_8
REMARK    5  A    between atoms: C_8  and  C_9
REMARK    6  A    between atoms: C_9  and  N_10
REMARK    7  A    between atoms: C_19  and  C_20
REMARK    8  A    between atoms: C_23  and  O_24
REMARK    9  A    between atoms: C_32  and  O_33
REMARK                            x       y       z     vdW  Elec       q    Type
REMARK                         _______ _______ _______ _____ _____    ______ ____
ROOT
ATOM      1  C   UNL     1       0.101  11.138  21.025  0.00  0.00    +0.000 A 
ATOM      2  C   UNL     1      -0.468  11.797  19.924  0.00  0.00    +0.000 A 
ATOM      3  S   UNL     1       0.581  13.157  19.776  0.00  0.00    +0.000 S 
ATOM      4  C   UNL     1       0.279  13.375  21.491  0.00  0.00    +0.000 A 
ATOM      5  C   UNL     1       0.250  14.614  22.146  0.00  0.00    +0.000 A 
ATOM      6  C   UNL     1      -0.791  14.772  23.054  0.00  0.00    +0.000 A 
ATOM      7  C   UNL     1      -1.608  13.690  23.390  0.00  0.00    +0.000 A 
ATOM      8  C   UNL     1      -1.323  12.381  22.932  0.00  0.00    +0.000 A 
ATOM      9  C   UNL     1      -0.280  12.167  21.985  0.00  0.00    +0.000 A 
ENDROOT
BRANCH   2  10
ATOM     10  C   UNL     1      -1.889  11.661  19.531  0.00  0.00    +0.000 A 
ATOM     11  C   UNL     1      -2.311  10.834  18.489  0.00  0.00    +0.000 A 
ATOM     12  C   UNL     1      -3.640  10.886  18.043  0.00  0.00    +0.000 A 
ATOM     13  C   UNL     1      -4.540  11.779  18.621  0.00  0.00    +0.000 A 
ATOM     14  C   UNL     1      -4.134  12.657  19.600  0.00  0.00    +0.000 A 
ATOM     15  C   UNL     1      -2.825  12.589  20.050  0.00  0.00    +0.000 A 
BRANCH  13  16
ATOM     16  O   UNL     1      -5.846  11.820  18.243  0.00  0.00    +0.000 OA
ATOM     17  H   UNL     1      -5.884  12.296  17.397  0.00  0.00    +0.000 HD
ENDBRANCH  13  16
ENDBRANCH   2  10
BRANCH   1  19
ATOM     18  O   UNL     1      -0.496   8.911  21.183  0.00  0.00    +0.000 OA
ATOM     19  C   UNL     1       0.330   9.719  20.733  0.00  0.00    +0.000 C 
BRANCH  19  20
ATOM     20  C   UNL     1       1.346   9.039  19.911  0.00  0.00    +0.000 A 
ATOM     21  C   UNL     1       1.640   9.403  18.607  0.00  0.00    +0.000 A 
ATOM     22  C   UNL     1       2.305   8.483  17.779  0.00  0.00    +0.000 A 
ATOM     23  C   UNL     1       2.652   7.190  18.221  0.00  0.00    +0.000 A 
ATOM     24  C   UNL     1       2.469   6.878  19.549  0.00  0.00    +0.000 A 
ATOM     25  C   UNL     1       1.827   7.791  20.397  0.00  0.00    +0.000 A 
BRANCH  23  26
ATOM     26  O   UNL     1       3.109   6.169  17.406  0.00  0.00    +0.000 OA
BRANCH  26  27
ATOM     27  C   UNL     1       4.098   5.353  18.035  0.00  0.00    +0.000 C 
BRANCH  27  28
ATOM     28  C   UNL     1       3.966   3.841  17.743  0.00  0.00    +0.000 C 
BRANCH  28  29
ATOM     29  N   UNL     1       3.083   3.144  18.721  0.00  0.00    +0.000 NA
ATOM     30  C   UNL     1       3.465   3.490  20.100  0.00  0.00    +0.000 C 
ATOM     31  C   UNL     1       2.615   2.748  21.138  0.00  0.00    +0.000 C 
ATOM     32  C   UNL     1       1.127   2.988  20.919  0.00  0.00    +0.000 C 
ATOM     33  C   UNL     1       0.756   2.667  19.481  0.00  0.00    +0.000 C 
ATOM     34  C   UNL     1       1.654   3.417  18.492  0.00  0.00    +0.000 C 
ENDBRANCH  28  29
ENDBRANCH  27  28
ENDBRANCH  26  27
ENDBRANCH  23  26
ENDBRANCH  19  20
ENDBRANCH   1  19
BRANCH   8  35
ATOM     35  O   UNL     1      -2.256  11.397  23.180  0.00  0.00    +0.000 OA
ATOM     36  H   UNL     1      -2.838  11.334  22.399  0.00  0.00    +0.000 HD
ENDBRANCH   8  35
TORSDOF 9
ENDMDL
MODEL 6
REMARK VINA RESULT:      -7.8      2.246      4.549
REMARK  Name = 
REMARK  9 active torsions:
REMARK  status: ('A' for Active; 'I' for Inactive)
REMARK    1  A    between atoms: C_2  and  C_3
REMARK    2  A    between atoms: C_2  and  C_18
REMARK    3  A    between atoms: C_6  and  O_7
REMARK    4  A    between atoms: O_7  and  C_8
REMARK    5  A    between atoms: C_8  and  C_9
REMARK    6  A    between atoms: C_9  and  N_10
REMARK    7  A    between atoms: C_19  and  C_20
REMARK    8  A    between atoms: C_23  and  O_24
REMARK    9  A    between atoms: C_32  and  O_33
REMARK                            x       y       z     vdW  Elec       q    Type
REMARK                         _______ _______ _______ _____ _____    ______ ____
ROOT
ATOM      1  C   UNL     1      -0.462  11.108  21.325  0.00  0.00    +0.000 A 
ATOM      2  C   UNL     1      -0.026  12.398  21.664  0.00  0.00    +0.000 A 
ATOM      3  S   UNL     1      -1.139  12.804  22.915  0.00  0.00    +0.000 S 
ATOM      4  C   UNL     1      -2.367  12.301  21.767  0.00  0.00    +0.000 A 
ATOM      5  C   UNL     1      -3.658  12.844  21.688  0.00  0.00    +0.000 A 
ATOM      6  C   UNL     1      -4.108  13.100  20.398  0.00  0.00    +0.000 A 
ATOM      7  C   UNL     1      -3.374  12.663  19.293  0.00  0.00    +0.000 A 
ATOM      8  C   UNL     1      -2.235  11.836  19.444  0.00  0.00    +0.000 A 
ATOM      9  C   UNL     1      -1.721  11.559  20.744  0.00  0.00    +0.000 A 
ENDROOT
BRANCH   2  10
ATOM     10  C   UNL     1       0.703  13.289  20.733  0.00  0.00    +0.000 A 
ATOM     11  C   UNL     1       0.109  14.392  20.119  0.00  0.00    +0.000 A 
ATOM     12  C   UNL     1       0.791  15.089  19.109  0.00  0.00    +0.000 A 
ATOM     13  C   UNL     1       2.054  14.669  18.698  0.00  0.00    +0.000 A 
ATOM     14  C   UNL     1       2.634  13.541  19.234  0.00  0.00    +0.000 A 
ATOM     15  C   UNL     1       1.965  12.869  20.244  0.00  0.00    +0.000 A 
BRANCH  13  16
ATOM     16  O   UNL     1       2.760  15.350  17.755  0.00  0.00    +0.000 OA
ATOM     17  H   UNL     1       2.416  15.077  16.888  0.00  0.00    +0.000 HD
ENDBRANCH  13  16
ENDBRANCH   2  10
BRANCH   1  19
ATOM     18  O   UNL     1       1.399  10.149  22.303  0.00  0.00    +0.000 OA
ATOM     19  C   UNL     1       0.656  10.158  21.311  0.00  0.00    +0.000 C 
BRANCH  19  20
ATOM     20  C   UNL     1       1.044   9.115  20.346  0.00  0.00    +0.000 A 
ATOM     21  C   UNL     1       1.511   7.866  20.723  0.00  0.00    +0.000 A 
ATOM     22  C   UNL     1       2.223   7.096  19.786  0.00  0.00    +0.000 A 
ATOM     23  C   UNL     1       2.507   7.568  18.488  0.00  0.00    +0.000 A 
ATOM     24  C   UNL     1       1.938   8.754  18.081  0.00  0.00    +0.000 A 
ATOM     25  C   UNL     1       1.206   9.525  18.994  0.00  0.00    +0.000 A 
BRANCH  23  26
ATOM     26  O   UNL     1       3.376   6.964  17.597  0.00  0.00    +0.000 OA
BRANCH  26  27
ATOM     27  C   UNL     1       4.134   5.907  18.186  0.00  0.00    +0.000 C 
BRANCH  27  28
ATOM     28  C   UNL     1       3.912   4.519  17.542  0.00  0.00    +0.000 C 
BRANCH  28  29
ATOM     29  N   UNL     1       3.087   3.617  18.394  0.00  0.00    +0.000 NA
ATOM     30  C   UNL     1       3.431   3.790  19.815  0.00  0.00    +0.000 C 
ATOM     31  C   UNL     1       2.641   2.838  20.720  0.00  0.00    +0.000 C 
ATOM     32  C   UNL     1       1.139   2.983  20.513  0.00  0.00    +0.000 C 
ATOM     33  C   UNL     1       0.804   2.844  19.036  0.00  0.00    +0.000 C 
ATOM     34  C   UNL     1       1.641   3.801  18.182  0.00  0.00    +0.000 C 
ENDBRANCH  28  29
ENDBRANCH  27  28
ENDBRANCH  26  27
ENDBRANCH  23  26
ENDBRANCH  19  20
ENDBRANCH   1  19
BRANCH   8  35
ATOM     35  O   UNL     1      -1.478  11.572  18.322  0.00  0.00    +0.000 OA
ATOM     36  H   UNL     1      -1.680  12.259  17.659  0.00  0.00    +0.000 HD
ENDBRANCH   8  35
TORSDOF 9
ENDMDL
MODEL 7
REMARK VINA RESULT:      -7.7      4.360      8.035
REMARK  Name = 
REMARK  9 active torsions:
REMARK  status: ('A' for Active; 'I' for Inactive)
REMARK    1  A    between atoms: C_2  and  C_3
REMARK    2  A    between atoms: C_2  and  C_18
REMARK    3  A    between atoms: C_6  and  O_7
REMARK    4  A    between atoms: O_7  and  C_8
REMARK    5  A    between atoms: C_8  and  C_9
REMARK    6  A    between atoms: C_9  and  N_10
REMARK    7  A    between atoms: C_19  and  C_20
REMARK    8  A    between atoms: C_23  and  O_24
REMARK    9  A    between atoms: C_32  and  O_33
REMARK                            x       y       z     vdW  Elec       q    Type
REMARK                         _______ _______ _______ _____ _____    ______ ____
ROOT
ATOM      1  C   UNL     1       4.029   4.292  18.110  0.00  0.00    +0.000 A 
ATOM      2  C   UNL     1       3.911   5.037  19.293  0.00  0.00    +0.000 A 
ATOM      3  S   UNL     1       4.119   3.805  20.481  0.00  0.00    +0.000 S 
ATOM      4  C   UNL     1       2.891   2.943  19.571  0.00  0.00    +0.000 A 
ATOM      5  C   UNL     1       1.958   2.057  20.129  0.00  0.00    +0.000 A 
ATOM      6  C   UNL     1       0.659   2.199  19.653  0.00  0.00    +0.000 A 
ATOM      7  C   UNL     1       0.389   3.042  18.573  0.00  0.00    +0.000 A 
ATOM      8  C   UNL     1       1.432   3.666  17.846  0.00  0.00    +0.000 A 
ATOM      9  C   UNL     1       2.778   3.569  18.302  0.00  0.00    +0.000 A 
ENDROOT
BRANCH   2  10
ATOM     10  C   UNL     1       3.167   6.314  19.388  0.00  0.00    +0.000 A 
ATOM     11  C   UNL     1       2.325   6.623  20.458  0.00  0.00    +0.000 A 
ATOM     12  C   UNL     1       1.508   7.762  20.405  0.00  0.00    +0.000 A 
ATOM     13  C   UNL     1       1.515   8.579  19.276  0.00  0.00    +0.000 A 
ATOM     14  C   UNL     1       2.280   8.259  18.177  0.00  0.00    +0.000 A 
ATOM     15  C   UNL     1       3.099   7.144  18.242  0.00  0.00    +0.000 A 
BRANCH  13  16
ATOM     16  O   UNL     1       0.770   9.715  19.214  0.00  0.00    +0.000 OA
ATOM     17  H   UNL     1      -0.124   9.455  18.935  0.00  0.00    +0.000 HD
ENDBRANCH  13  16
ENDBRANCH   2  10
BRANCH   1  19
ATOM     18  O   UNL     1       4.706   4.900  15.986  0.00  0.00    +0.000 OA
ATOM     19  C   UNL     1       4.993   4.907  17.192  0.00  0.00    +0.000 C 
BRANCH  19  20
ATOM     20  C   UNL     1       6.253   5.631  17.434  0.00  0.00    +0.000 A 
ATOM     21  C   UNL     1       7.225   5.194  18.320  0.00  0.00    +0.000 A 
ATOM     22  C   UNL     1       8.182   6.112  18.787  0.00  0.00    +0.000 A 
ATOM     23  C   UNL     1       8.164   7.471  18.410  0.00  0.00    +0.000 A 
ATOM     24  C   UNL     1       7.275   7.872  17.439  0.00  0.00    +0.000 A 
ATOM     25  C   UNL     1       6.327   6.965  16.944  0.00  0.00    +0.000 A 
BRANCH  23  26
ATOM     26  O   UNL     1       8.932   8.464  18.989  0.00  0.00    +0.000 OA
BRANCH  26  27
ATOM     27  C   UNL     1       8.752   9.740  18.372  0.00  0.00    +0.000 C 
BRANCH  27  28
ATOM     28  C   UNL     1       9.104  10.946  19.274  0.00  0.00    +0.000 C 
BRANCH  28  29
ATOM     29  N   UNL     1      10.397  11.584  18.899  0.00  0.00    +0.000 NA
ATOM     30  C   UNL     1      10.279  12.265  17.599  0.00  0.00    +0.000 C 
ATOM     31  C   UNL     1      11.607  12.888  17.151  0.00  0.00    +0.000 C 
ATOM     32  C   UNL     1      12.164  13.838  18.204  0.00  0.00    +0.000 C 
ATOM     33  C   UNL     1      12.240  13.133  19.549  0.00  0.00    +0.000 C 
ATOM     34  C   UNL     1      10.894  12.511  19.930  0.00  0.00    +0.000 C 
ENDBRANCH  28  29
ENDBRANCH  27  28
ENDBRANCH  26  27
ENDBRANCH  23  26
ENDBRANCH  19  20
ENDBRANCH   1  19
BRANCH   8  35
ATOM     35  O   UNL     1       1.082   4.599  16.893  0.00  0.00    +0.000 OA
ATOM     36  H   UNL     1       1.872   4.782  16.350  0.00  0.00    +0.000 HD
ENDBRANCH   8  35
TORSDOF 9
ENDMDL
MODEL 8
REMARK VINA RESULT:      -7.7      0.738      1.285
REMARK  Name = 
REMARK  9 active torsions:
REMARK  status: ('A' for Active; 'I' for Inactive)
REMARK    1  A    between atoms: C_2  and  C_3
REMARK    2  A    between atoms: C_2  and  C_18
REMARK    3  A    between atoms: C_6  and  O_7
REMARK    4  A    between atoms: O_7  and  C_8
REMARK    5  A    between atoms: C_8  and  C_9
REMARK    6  A    between atoms: C_9  and  N_10
REMARK    7  A    between atoms: C_19  and  C_20
REMARK    8  A    between atoms: C_23  and  O_24
REMARK    9  A    between atoms: C_32  and  O_33
REMARK                            x       y       z     vdW  Elec       q    Type
REMARK                         _______ _______ _______ _____ _____    ______ ____
ROOT
ATOM      1  C   UNL     1       0.939  11.348  19.471  0.00  0.00    +0.000 A 
ATOM      2  C   UNL     1      -0.054  11.975  18.703  0.00  0.00    +0.000 A 
ATOM      3  S   UNL     1       0.460  13.619  18.778  0.00  0.00    +0.000 S 
ATOM      4  C   UNL     1       0.535  13.350  20.510  0.00  0.00    +0.000 A 
ATOM      5  C   UNL     1       0.291  14.330  21.483  0.00  0.00    +0.000 A 
ATOM      6  C   UNL     1      -0.494  13.913  22.552  0.00  0.00    +0.000 A 
ATOM      7  C   UNL     1      -0.834  12.565  22.696  0.00  0.00    +0.000 A 
ATOM      8  C   UNL     1      -0.286  11.572  21.850  0.00  0.00    +0.000 A 
ATOM      9  C   UNL     1       0.509  11.947  20.728  0.00  0.00    +0.000 A 
ENDROOT
BRANCH   2  10
ATOM     10  C   UNL     1      -1.417  11.427  18.518  0.00  0.00    +0.000 A 
ATOM     11  C   UNL     1      -1.692  10.349  17.675  0.00  0.00    +0.000 A 
ATOM     12  C   UNL     1      -3.021   9.993  17.398  0.00  0.00    +0.000 A 
ATOM     13  C   UNL     1      -4.073  10.726  17.944  0.00  0.00    +0.000 A 
ATOM     14  C   UNL     1      -3.832  11.838  18.719  0.00  0.00    +0.000 A 
ATOM     15  C   UNL     1      -2.518  12.174  19.005  0.00  0.00    +0.000 A 
BRANCH  13  16
ATOM     16  O   UNL     1      -5.370  10.378  17.733  0.00  0.00    +0.000 OA
ATOM     17  H   UNL     1      -5.695   9.974  18.555  0.00  0.00    +0.000 HD
ENDBRANCH  13  16
ENDBRANCH   2  10
BRANCH   1  19
ATOM     18  O   UNL     1       2.140  10.438  17.719  0.00  0.00    +0.000 OA
ATOM     19  C   UNL     1       1.510  10.200  18.760  0.00  0.00    +0.000 C 
BRANCH  19  20
ATOM     20  C   UNL     1       1.553   8.765  19.091  0.00  0.00    +0.000 A 
ATOM     21  C   UNL     1       1.329   8.270  20.365  0.00  0.00    +0.000 A 
ATOM     22  C   UNL     1       1.774   6.973  20.678  0.00  0.00    +0.000 A 
ATOM     23  C   UNL     1       2.470   6.174  19.748  0.00  0.00    +0.000 A 
ATOM     24  C   UNL     1       2.581   6.621  18.451  0.00  0.00    +0.000 A 
ATOM     25  C   UNL     1       2.124   7.902  18.114  0.00  0.00    +0.000 A 
BRANCH  23  26
ATOM     26  O   UNL     1       3.117   4.989  20.049  0.00  0.00    +0.000 OA
BRANCH  26  27
ATOM     27  C   UNL     1       4.446   4.931  19.529  0.00  0.00    +0.000 C 
BRANCH  27  28
ATOM     28  C   UNL     1       4.648   3.909  18.387  0.00  0.00    +0.000 C 
BRANCH  28  29
ATOM     29  N   UNL     1       5.177   4.535  17.144  0.00  0.00    +0.000 NA
ATOM     30  C   UNL     1       6.508   5.117  17.384  0.00  0.00    +0.000 C 
ATOM     31  C   UNL     1       7.064   5.821  16.141  0.00  0.00    +0.000 C 
ATOM     32  C   UNL     1       7.098   4.889  14.936  0.00  0.00    +0.000 C 
ATOM     33  C   UNL     1       5.728   4.265  14.726  0.00  0.00    +0.000 C 
ATOM     34  C   UNL     1       5.215   3.600  16.007  0.00  0.00    +0.000 C 
ENDBRANCH  28  29
ENDBRANCH  27  28
ENDBRANCH  26  27
ENDBRANCH  23  26
ENDBRANCH  19  20
ENDBRANCH   1  19
BRANCH   8  35
ATOM     35  O   UNL     1      -0.784  10.291  21.956  0.00  0.00    +0.000 OA
ATOM     36  H   UNL     1      -1.175  10.050  21.095  0.00  0.00    +0.000 HD
ENDBRANCH   8  35
TORSDOF 9
ENDMDL
MODEL 9
REMARK VINA RESULT:      -7.6      1.524      2.667
REMARK  Name = 
REMARK  9 active torsions:
REMARK  status: ('A' for Active; 'I' for Inactive)
REMARK    1  A    between atoms: C_2  and  C_3
REMARK    2  A    between atoms: C_2  and  C_18
REMARK    3  A    between atoms: C_6  and  O_7
REMARK    4  A    between atoms: O_7  and  C_8
REMARK    5  A    between atoms: C_8  and  C_9
REMARK    6  A    between atoms: C_9  and  N_10
REMARK    7  A    between atoms: C_19  and  C_20
REMARK    8  A    between atoms: C_23  and  O_24
REMARK    9  A    between atoms: C_32  and  O_33
REMARK                            x       y       z     vdW  Elec       q    Type
REMARK                         _______ _______ _______ _____ _____    ______ ____
ROOT
ATOM      1  C   UNL     1       0.635  10.639  20.768  0.00  0.00    +0.000 A 
ATOM      2  C   UNL     1       0.127  11.158  19.568  0.00  0.00    +0.000 A 
ATOM      3  S   UNL     1       1.237  12.442  19.267  0.00  0.00    +0.000 S 
ATOM      4  C   UNL     1       0.898  12.910  20.923  0.00  0.00    +0.000 A 
ATOM      5  C   UNL     1       0.905  14.230  21.398  0.00  0.00    +0.000 A 
ATOM      6  C   UNL     1      -0.153  14.556  22.239  0.00  0.00    +0.000 A 
ATOM      7  C   UNL     1      -1.026  13.564  22.695  0.00  0.00    +0.000 A 
ATOM      8  C   UNL     1      -0.786  12.194  22.434  0.00  0.00    +0.000 A 
ATOM      9  C   UNL     1       0.273  11.808  21.562  0.00  0.00    +0.000 A 
ENDROOT
BRANCH   2  10
ATOM     10  C   UNL     1      -1.288  11.025  19.150  0.00  0.00    +0.000 A 
ATOM     11  C   UNL     1      -1.732  10.018  18.291  0.00  0.00    +0.000 A 
ATOM     12  C   UNL     1      -3.040  10.051  17.785  0.00  0.00    +0.000 A 
ATOM     13  C   UNL     1      -3.896  11.099  18.118  0.00  0.00    +0.000 A 
ATOM     14  C   UNL     1      -3.462  12.143  18.904  0.00  0.00    +0.000 A 
ATOM     15  C   UNL     1      -2.175  12.096  19.416  0.00  0.00    +0.000 A 
BRANCH  13  16
ATOM     16  O   UNL     1      -5.183  11.135  17.682  0.00  0.00    +0.000 OA
ATOM     17  H   UNL     1      -5.747  11.249  18.466  0.00  0.00    +0.000 HD
ENDBRANCH  13  16
ENDBRANCH   2  10
BRANCH   1  19
ATOM     18  O   UNL     1       0.268   8.502  21.566  0.00  0.00    +0.000 OA
ATOM     19  C   UNL     1       0.809   9.186  20.685  0.00  0.00    +0.000 C 
BRANCH  19  20
ATOM     20  C   UNL     1       1.464   8.333  19.678  0.00  0.00    +0.000 A 
ATOM     21  C   UNL     1       2.023   7.100  19.972  0.00  0.00    +0.000 A 
ATOM     22  C   UNL     1       2.957   6.547  19.078  0.00  0.00    +0.000 A 
ATOM     23  C   UNL     1       3.368   7.222  17.910  0.00  0.00    +0.000 A 
ATOM     24  C   UNL     1       2.721   8.386  17.561  0.00  0.00    +0.000 A 
ATOM     25  C   UNL     1       1.771   8.941  18.429  0.00  0.00    +0.000 A 
BRANCH  23  26
ATOM     26  O   UNL     1       4.427   6.842  17.106  0.00  0.00    +0.000 OA
BRANCH  26  27
ATOM     27  C   UNL     1       5.239   5.825  17.695  0.00  0.00    +0.000 C 
BRANCH  27  28
ATOM     28  C   UNL     1       5.267   4.491  16.915  0.00  0.00    +0.000 C 
BRANCH  28  29
ATOM     29  N   UNL     1       4.489   3.416  17.591  0.00  0.00    +0.000 NA
ATOM     30  C   UNL     1       4.678   3.480  19.050  0.00  0.00    +0.000 C 
ATOM     31  C   UNL     1       3.936   2.353  19.778  0.00  0.00    +0.000 C 
ATOM     32  C   UNL     1       2.453   2.342  19.431  0.00  0.00    +0.000 C 
ATOM     33  C   UNL     1       2.274   2.317  17.922  0.00  0.00    +0.000 C 
ATOM     34  C   UNL     1       3.057   3.448  17.249  0.00  0.00    +0.000 C 
ENDBRANCH  28  29
ENDBRANCH  27  28
ENDBRANCH  26  27
ENDBRANCH  23  26
ENDBRANCH  19  20
ENDBRANCH   1  19
BRANCH   8  35
ATOM     35  O   UNL     1      -1.768  11.292  22.785  0.00  0.00    +0.000 OA
ATOM     36  H   UNL     1      -1.530  10.916  23.654  0.00  0.00    +0.000 HD
ENDBRANCH   8  35
TORSDOF 9
ENDMDL
