MODEL 1
REMARK VINA RESULT:      -8.2      0.000      0.000
REMARK  Name = 
REMARK  9 active torsions:
REMARK  status: ('A' for Active; 'I' for Inactive)
REMARK    1  A    between atoms: C_1  and  C_2
REMARK    2  A    between atoms: C_2  and  C_3
REMARK    3  A    between atoms: C_2  and  O_4
REMARK    4  A    between atoms: C_2  and  C_5
REMARK    5  A    between atoms: C_5  and  N_6
REMARK    6  A    between atoms: N_10  and  C_11
REMARK    7  A    between atoms: C_11  and  C_12
REMARK    8  A    between atoms: C_15  and  C_16
REMARK    9  A    between atoms: N_26  and  C_27
REMARK                            x       y       z     vdW  Elec       q    Type
REMARK                         _______ _______ _______ _____ _____    ______ ____
ROOT
ATOM      1  N   UNL     1       5.989   3.582  14.384  0.00  0.00    +0.000 N 
ATOM      2  C   UNL     1       5.947   4.266  15.588  0.00  0.00    +0.000 A 
ATOM      3  N   UNL     1       6.725   5.359  15.756  0.00  0.00    +0.000 NA
ATOM      4  C   UNL     1       6.663   6.077  16.907  0.00  0.00    +0.000 A 
ATOM      5  N   UNL     1       7.523   7.164  17.013  0.00  0.00    +0.000 N 
ATOM      6  C   UNL     1       5.726   5.680  17.874  0.00  0.00    +0.000 A 
ATOM      7  N   UNL     1       5.381   6.198  19.105  0.00  0.00    +0.000 NA
ATOM      8  C   UNL     1       4.434   5.407  19.551  0.00  0.00    +0.000 A 
ATOM      9  N   UNL     1       4.169   4.384  18.678  0.00  0.00    +0.000 N 
ATOM     10  C   UNL     1       4.996   4.539  17.596  0.00  0.00    +0.000 A 
ATOM     11  N   UNL     1       5.088   3.773  16.498  0.00  0.00    +0.000 NA
ATOM     12  H   UNL     1       5.960   2.584  14.560  0.00  0.00    +0.000 HD
ATOM     13  H   UNL     1       8.232   7.111  16.292  0.00  0.00    +0.000 HD
ENDROOT
BRANCH   9  14
ATOM     14  C   UNL     1       3.169   3.374  18.909  0.00  0.00    +0.000 C 
ATOM     15  C   UNL     1       2.687   3.254  20.351  0.00  0.00    +0.000 C 
ATOM     16  C   UNL     1       1.441   2.388  20.229  0.00  0.00    +0.000 C 
ATOM     17  C   UNL     1       0.860   2.677  18.843  0.00  0.00    +0.000 C 
ATOM     18  C   UNL     1       1.880   3.547  18.111  0.00  0.00    +0.000 C 
ENDBRANCH   9  14
BRANCH   1  19
ATOM     19  C   UNL     1       6.962   4.010  13.388  0.00  0.00    +0.000 C 
BRANCH  19  21
ATOM     20  C   UNL     1       7.047   4.550  10.922  0.00  0.00    +0.000 C 
ATOM     21  C   UNL     1       6.542   3.546  11.965  0.00  0.00    +0.000 C 
ATOM     22  C   UNL     1       5.024   3.383  11.829  0.00  0.00    +0.000 C 
BRANCH  21  23
ATOM     23  O   UNL     1       7.157   2.276  11.694  0.00  0.00    +0.000 OA
ATOM     24  H   UNL     1       8.055   2.449  11.360  0.00  0.00    +0.000 HD
ENDBRANCH  21  23
ENDBRANCH  19  21
ENDBRANCH   1  19
BRANCH   5  25
ATOM     25  C   UNL     1       7.970   7.579  18.330  0.00  0.00    +0.000 C 
BRANCH  25  26
ATOM     26  C   UNL     1       8.356   9.031  18.305  0.00  0.00    +0.000 A 
ATOM     27  C   UNL     1       9.336   9.527  19.168  0.00  0.00    +0.000 A 
ATOM     28  C   UNL     1       9.658  10.879  19.145  0.00  0.00    +0.000 A 
ATOM     29  C   UNL     1       8.983  11.717  18.263  0.00  0.00    +0.000 A 
ATOM     30  N   UNL     1       8.034  11.266  17.408  0.00  0.00    +0.000 NA
ATOM     31  C   UNL     1       7.755   9.938  17.437  0.00  0.00    +0.000 A 
BRANCH  29  32
ATOM     32  C   UNL     1       9.228  13.152  18.219  0.00  0.00    +0.000 A 
ATOM     33  C   UNL     1      10.368  13.933  18.248  0.00  0.00    +0.000 A 
ATOM     34  C   UNL     1       9.943  15.279  18.133  0.00  0.00    +0.000 A 
ATOM     35  C   UNL     1       8.572  15.241  18.050  0.00  0.00    +0.000 A 
ATOM     36  O   UNL     1       8.127  13.961  18.103  0.00  0.00    +0.000 OA
ENDBRANCH  29  32
ENDBRANCH  25  26
ENDBRANCH   5  25
TORSDOF 7
ENDMDL
MODEL 2
REMARK VINA RESULT:      -8.0      0.924      1.344
REMARK  Name = 
REMARK  9 active torsions:
REMARK  status: ('A' for Active; 'I' for Inactive)
REMARK    1  A    between atoms: C_1  and  C_2
REMARK    2  A    between atoms: C_2  and  C_3
REMARK    3  A    between atoms: C_2  and  O_4
REMARK    4  A    between atoms: C_2  and  C_5
REMARK    5  A    between atoms: C_5  and  N_6
REMARK    6  A    between atoms: N_10  and  C_11
REMARK    7  A    between atoms: C_11  and  C_12
REMARK    8  A    between atoms: C_15  and  C_16
REMARK    9  A    between atoms: N_26  and  C_27
REMARK                            x       y       z     vdW  Elec       q    Type
REMARK                         _______ _______ _______ _____ _____    ______ ____
ROOT
ATOM      1  N   UNL     1       6.101   3.603  14.318  0.00  0.00    +0.000 N 
ATOM      2  C   UNL     1       6.059   4.268  15.533  0.00  0.00    +0.000 A 
ATOM      3  N   UNL     1       6.850   5.348  15.723  0.00  0.00    +0.000 NA
ATOM      4  C   UNL     1       6.789   6.048  16.886  0.00  0.00    +0.000 A 
ATOM      5  N   UNL     1       7.663   7.122  17.015  0.00  0.00    +0.000 N 
ATOM      6  C   UNL     1       5.840   5.648  17.839  0.00  0.00    +0.000 A 
ATOM      7  N   UNL     1       5.493   6.151  19.076  0.00  0.00    +0.000 NA
ATOM      8  C   UNL     1       4.533   5.366  19.503  0.00  0.00    +0.000 A 
ATOM      9  N   UNL     1       4.260   4.360  18.611  0.00  0.00    +0.000 N 
ATOM     10  C   UNL     1       5.097   4.521  17.538  0.00  0.00    +0.000 A 
ATOM     11  N   UNL     1       5.187   3.772  16.428  0.00  0.00    +0.000 NA
ATOM     12  H   UNL     1       6.057   2.603  14.477  0.00  0.00    +0.000 HD
ATOM     13  H   UNL     1       8.377   7.071  16.298  0.00  0.00    +0.000 HD
ENDROOT
BRANCH   9  14
ATOM     14  C   UNL     1       3.245   3.361  18.819  0.00  0.00    +0.000 C 
ATOM     15  C   UNL     1       2.719   3.256  20.247  0.00  0.00    +0.000 C 
ATOM     16  C   UNL     1       1.470   2.398  20.093  0.00  0.00    +0.000 C 
ATOM     17  C   UNL     1       0.934   2.682  18.688  0.00  0.00    +0.000 C 
ATOM     18  C   UNL     1       1.982   3.538  17.981  0.00  0.00    +0.000 C 
ENDBRANCH   9  14
BRANCH   1  19
ATOM     19  C   UNL     1       7.086   4.034  13.335  0.00  0.00    +0.000 C 
BRANCH  19  21
ATOM     20  C   UNL     1       5.131   3.462  11.842  0.00  0.00    +0.000 C 
ATOM     21  C   UNL     1       6.654   3.626  11.899  0.00  0.00    +0.000 C 
ATOM     22  C   UNL     1       7.328   2.332  11.432  0.00  0.00    +0.000 C 
BRANCH  21  23
ATOM     23  O   UNL     1       7.022   4.678  10.991  0.00  0.00    +0.000 OA
ATOM     24  H   UNL     1       6.433   5.433  11.162  0.00  0.00    +0.000 HD
ENDBRANCH  21  23
ENDBRANCH  19  21
ENDBRANCH   1  19
BRANCH   5  25
ATOM     25  C   UNL     1       8.106   7.510  18.341  0.00  0.00    +0.000 C 
BRANCH  25  26
ATOM     26  C   UNL     1       8.424   8.978  18.366  0.00  0.00    +0.000 A 
ATOM     27  C   UNL     1       7.849   9.852  17.440  0.00  0.00    +0.000 A 
ATOM     28  C   UNL     1       8.179  11.202  17.465  0.00  0.00    +0.000 A 
ATOM     29  C   UNL     1       9.091  11.654  18.413  0.00  0.00    +0.000 A 
ATOM     30  N   UNL     1       9.659  10.834  19.330  0.00  0.00    +0.000 NA
ATOM     31  C   UNL     1       9.303   9.525  19.296  0.00  0.00    +0.000 A 
BRANCH  29  32
ATOM     32  C   UNL     1       9.526  13.043  18.467  0.00  0.00    +0.000 A 
ATOM     33  C   UNL     1       8.936  14.247  18.129  0.00  0.00    +0.000 A 
ATOM     34  C   UNL     1       9.869  15.262  18.456  0.00  0.00    +0.000 A 
ATOM     35  C   UNL     1      10.972  14.619  18.964  0.00  0.00    +0.000 A 
ATOM     36  O   UNL     1      10.777  13.277  18.975  0.00  0.00    +0.000 OA
ENDBRANCH  29  32
ENDBRANCH  25  26
ENDBRANCH   5  25
TORSDOF 7
ENDMDL
MODEL 3
REMARK VINA RESULT:      -7.8      5.071      7.946
REMARK  Name = 
REMARK  9 active torsions:
REMARK  status: ('A' for Active; 'I' for Inactive)
REMARK    1  A    between atoms: C_1  and  C_2
REMARK    2  A    between atoms: C_2  and  C_3
REMARK    3  A    between atoms: C_2  and  O_4
REMARK    4  A    between atoms: C_2  and  C_5
REMARK    5  A    between atoms: C_5  and  N_6
REMARK    6  A    between atoms: N_10  and  C_11
REMARK    7  A    between atoms: C_11  and  C_12
REMARK    8  A    between atoms: C_15  and  C_16
REMARK    9  A    between atoms: N_26  and  C_27
REMARK                            x       y       z     vdW  Elec       q    Type
REMARK                         _______ _______ _______ _____ _____    ______ ____
ROOT
ATOM      1  N   UNL     1       4.352   2.640  19.092  0.00  0.00    +0.000 N 
ATOM      2  C   UNL     1       4.315   3.811  18.353  0.00  0.00    +0.000 A 
ATOM      3  N   UNL     1       3.834   4.938  18.923  0.00  0.00    +0.000 NA
ATOM      4  C   UNL     1       3.837   6.111  18.236  0.00  0.00    +0.000 A 
ATOM      5  N   UNL     1       3.289   7.214  18.881  0.00  0.00    +0.000 N 
ATOM      6  C   UNL     1       4.410   6.115  16.955  0.00  0.00    +0.000 A 
ATOM      7  N   UNL     1       4.610   7.117  16.027  0.00  0.00    +0.000 NA
ATOM      8  C   UNL     1       5.199   6.526  15.015  0.00  0.00    +0.000 A 
ATOM      9  N   UNL     1       5.365   5.183  15.232  0.00  0.00    +0.000 N 
ATOM     10  C   UNL     1       4.857   4.899  16.472  0.00  0.00    +0.000 A 
ATOM     11  N   UNL     1       4.802   3.715  17.103  0.00  0.00    +0.000 NA
ATOM     12  H   UNL     1       4.080   1.859  18.505  0.00  0.00    +0.000 HD
ATOM     13  H   UNL     1       2.761   6.910  19.690  0.00  0.00    +0.000 HD
ENDROOT
BRANCH   9  14
ATOM     14  C   UNL     1       5.993   4.292  14.291  0.00  0.00    +0.000 C 
ATOM     15  C   UNL     1       5.070   3.725  13.218  0.00  0.00    +0.000 C 
ATOM     16  C   UNL     1       6.041   3.125  12.209  0.00  0.00    +0.000 C 
ATOM     17  C   UNL     1       7.318   3.963  12.302  0.00  0.00    +0.000 C 
ATOM     18  C   UNL     1       7.144   4.901  13.494  0.00  0.00    +0.000 C 
ENDBRANCH   9  14
BRANCH   1  19
ATOM     19  C   UNL     1       3.760   2.652  20.423  0.00  0.00    +0.000 C 
BRANCH  19  21
ATOM     20  C   UNL     1       1.631   2.086  21.659  0.00  0.00    +0.000 C 
ATOM     21  C   UNL     1       2.208   2.619  20.342  0.00  0.00    +0.000 C 
ATOM     22  C   UNL     1       1.703   1.763  19.176  0.00  0.00    +0.000 C 
BRANCH  21  23
ATOM     23  O   UNL     1       1.728   3.961  20.156  0.00  0.00    +0.000 OA
ATOM     24  H   UNL     1       0.956   4.079  20.737  0.00  0.00    +0.000 HD
ENDBRANCH  21  23
ENDBRANCH  19  21
ENDBRANCH   1  19
BRANCH   5  25
ATOM     25  C   UNL     1       2.699   8.272  18.083  0.00  0.00    +0.000 C 
BRANCH  25  26
ATOM     26  C   UNL     1       1.690   9.028  18.900  0.00  0.00    +0.000 A 
ATOM     27  C   UNL     1       0.942  10.064  18.337  0.00  0.00    +0.000 A 
ATOM     28  C   UNL     1       0.034  10.768  19.120  0.00  0.00    +0.000 A 
ATOM     29  C   UNL     1      -0.102  10.427  20.461  0.00  0.00    +0.000 A 
ATOM     30  N   UNL     1       0.601   9.422  21.036  0.00  0.00    +0.000 NA
ATOM     31  C   UNL     1       1.465   8.738  20.244  0.00  0.00    +0.000 A 
BRANCH  29  32
ATOM     32  C   UNL     1      -0.994  11.152  21.357  0.00  0.00    +0.000 A 
ATOM     33  C   UNL     1      -1.175  11.165  22.727  0.00  0.00    +0.000 A 
ATOM     34  C   UNL     1      -2.184  12.122  22.996  0.00  0.00    +0.000 A 
ATOM     35  C   UNL     1      -2.563  12.629  21.776  0.00  0.00    +0.000 A 
ATOM     36  O   UNL     1      -1.852  12.050  20.777  0.00  0.00    +0.000 OA
ENDBRANCH  29  32
ENDBRANCH  25  26
ENDBRANCH   5  25
TORSDOF 7
ENDMDL
MODEL 4
REMARK VINA RESULT:      -7.6      8.258     11.164
REMARK  Name = 
REMARK  9 active torsions:
REMARK  status: ('A' for Active; 'I' for Inactive)
REMARK    1  A    between atoms: C_1  and  C_2
REMARK    2  A    between atoms: C_2  and  C_3
REMARK    3  A    between atoms: C_2  and  O_4
REMARK    4  A    between atoms: C_2  and  C_5
REMARK    5  A    between atoms: C_5  and  N_6
REMARK    6  A    between atoms: N_10  and  C_11
REMARK    7  A    between atoms: C_11  and  C_12
REMARK    8  A    between atoms: C_15  and  C_16
REMARK    9  A    between atoms: N_26  and  C_27
REMARK                            x       y       z     vdW  Elec       q    Type
REMARK                         _______ _______ _______ _____ _____    ______ ____
ROOT
ATOM      1  N   UNL     1      -2.799  12.023  17.438  0.00  0.00    +0.000 N 
ATOM      2  C   UNL     1      -2.100  11.729  18.598  0.00  0.00    +0.000 A 
ATOM      3  N   UNL     1      -0.967  10.996  18.519  0.00  0.00    +0.000 NA
ATOM      4  C   UNL     1      -0.235  10.741  19.634  0.00  0.00    +0.000 A 
ATOM      5  N   UNL     1       0.896   9.948  19.472  0.00  0.00    +0.000 N 
ATOM      6  C   UNL     1      -0.665  11.313  20.842  0.00  0.00    +0.000 A 
ATOM      7  N   UNL     1      -0.145  11.290  22.120  0.00  0.00    +0.000 NA
ATOM      8  C   UNL     1      -0.976  12.011  22.835  0.00  0.00    +0.000 A 
ATOM      9  N   UNL     1      -2.025  12.476  22.085  0.00  0.00    +0.000 N 
ATOM     10  C   UNL     1      -1.845  12.031  20.801  0.00  0.00    +0.000 A 
ATOM     11  N   UNL     1      -2.622  12.240  19.727  0.00  0.00    +0.000 NA
ATOM     12  H   UNL     1      -3.795  11.943  17.613  0.00  0.00    +0.000 HD
ATOM     13  H   UNL     1       0.868   9.493  18.568  0.00  0.00    +0.000 HD
ENDROOT
BRANCH   9  14
ATOM     14  C   UNL     1      -3.081  13.302  22.611  0.00  0.00    +0.000 C 
ATOM     15  C   UNL     1      -3.691  12.819  23.923  0.00  0.00    +0.000 C 
ATOM     16  C   UNL     1      -4.500  14.021  24.391  0.00  0.00    +0.000 C 
ATOM     17  C   UNL     1      -3.778  15.255  23.845  0.00  0.00    +0.000 C 
ATOM     18  C   UNL     1      -2.685  14.746  22.907  0.00  0.00    +0.000 C 
ENDBRANCH   9  14
BRANCH   1  19
ATOM     19  C   UNL     1      -2.338  11.427  16.191  0.00  0.00    +0.000 C 
BRANCH  19  21
ATOM     20  C   UNL     1      -3.320   9.112  16.423  0.00  0.00    +0.000 C 
ATOM     21  C   UNL     1      -3.385  10.425  15.633  0.00  0.00    +0.000 C 
ATOM     22  C   UNL     1      -3.181  10.137  14.141  0.00  0.00    +0.000 C 
BRANCH  21  23
ATOM     23  O   UNL     1      -4.698  10.984  15.808  0.00  0.00    +0.000 OA
ATOM     24  H   UNL     1      -4.650  11.927  15.573  0.00  0.00    +0.000 HD
ENDBRANCH  21  23
ENDBRANCH  19  21
ENDBRANCH   1  19
BRANCH   5  25
ATOM     25  C   UNL     1       1.354   9.142  20.588  0.00  0.00    +0.000 C 
BRANCH  25  26
ATOM     26  C   UNL     1       1.795   7.792  20.097  0.00  0.00    +0.000 A 
ATOM     27  C   UNL     1       2.346   7.637  18.823  0.00  0.00    +0.000 A 
ATOM     28  C   UNL     1       2.722   6.374  18.381  0.00  0.00    +0.000 A 
ATOM     29  C   UNL     1       2.530   5.283  19.220  0.00  0.00    +0.000 A 
ATOM     30  N   UNL     1       2.008   5.400  20.465  0.00  0.00    +0.000 NA
ATOM     31  C   UNL     1       1.668   6.646  20.879  0.00  0.00    +0.000 A 
BRANCH  29  32
ATOM     32  C   UNL     1       2.851   3.923  18.807  0.00  0.00    +0.000 A 
ATOM     33  C   UNL     1       3.819   3.009  19.180  0.00  0.00    +0.000 A 
ATOM     34  C   UNL     1       3.579   1.832  18.430  0.00  0.00    +0.000 A 
ATOM     35  C   UNL     1       2.486   2.099  17.640  0.00  0.00    +0.000 A 
ATOM     36  O   UNL     1       2.038   3.360  17.858  0.00  0.00    +0.000 OA
ENDBRANCH  29  32
ENDBRANCH  25  26
ENDBRANCH   5  25
TORSDOF 7
ENDMDL
MODEL 5
REMARK VINA RESULT:      -7.6      8.386     11.210
REMARK  Name = 
REMARK  9 active torsions:
REMARK  status: ('A' for Active; 'I' for Inactive)
REMARK    1  A    between atoms: C_1  and  C_2
REMARK    2  A    between atoms: C_2  and  C_3
REMARK    3  A    between atoms: C_2  and  O_4
REMARK    4  A    between atoms: C_2  and  C_5
REMARK    5  A    between atoms: C_5  and  N_6
REMARK    6  A    between atoms: N_10  and  C_11
REMARK    7  A    between atoms: C_11  and  C_12
REMARK    8  A    between atoms: C_15  and  C_16
REMARK    9  A    between atoms: N_26  and  C_27
REMARK                            x       y       z     vdW  Elec       q    Type
REMARK                         _______ _______ _______ _____ _____    ______ ____
ROOT
ATOM      1  N   UNL     1      -2.873  12.141  17.609  0.00  0.00    +0.000 N 
ATOM      2  C   UNL     1      -2.167  11.835  18.762  0.00  0.00    +0.000 A 
ATOM      3  N   UNL     1      -1.041  11.094  18.670  0.00  0.00    +0.000 NA
ATOM      4  C   UNL     1      -0.302  10.826  19.779  0.00  0.00    +0.000 A 
ATOM      5  N   UNL     1       0.821  10.025  19.604  0.00  0.00    +0.000 N 
ATOM      6  C   UNL     1      -0.719  11.395  20.993  0.00  0.00    +0.000 A 
ATOM      7  N   UNL     1      -0.190  11.362  22.267  0.00  0.00    +0.000 NA
ATOM      8  C   UNL     1      -1.010  12.085  22.992  0.00  0.00    +0.000 A 
ATOM      9  N   UNL     1      -2.060  12.563  22.252  0.00  0.00    +0.000 N 
ATOM     10  C   UNL     1      -1.894  12.123  20.965  0.00  0.00    +0.000 A 
ATOM     11  N   UNL     1      -2.677  12.344  19.898  0.00  0.00    +0.000 NA
ATOM     12  H   UNL     1      -3.868  12.069  17.791  0.00  0.00    +0.000 HD
ATOM     13  H   UNL     1       0.782   9.575  18.698  0.00  0.00    +0.000 HD
ENDROOT
BRANCH   9  14
ATOM     14  C   UNL     1      -3.105  13.395  22.791  0.00  0.00    +0.000 C 
ATOM     15  C   UNL     1      -3.170  14.808  22.222  0.00  0.00    +0.000 C 
ATOM     16  C   UNL     1      -4.525  15.312  22.702  0.00  0.00    +0.000 C 
ATOM     17  C   UNL     1      -5.420  14.076  22.815  0.00  0.00    +0.000 C 
ATOM     18  C   UNL     1      -4.521  12.861  22.595  0.00  0.00    +0.000 C 
ENDBRANCH   9  14
BRANCH   1  19
ATOM     19  C   UNL     1      -2.426  11.548  16.356  0.00  0.00    +0.000 C 
BRANCH  19  21
ATOM     20  C   UNL     1      -3.273   9.186  16.644  0.00  0.00    +0.000 C 
ATOM     21  C   UNL     1      -3.441  10.487  15.849  0.00  0.00    +0.000 C 
ATOM     22  C   UNL     1      -3.285  10.198  14.352  0.00  0.00    +0.000 C 
BRANCH  21  23
ATOM     23  O   UNL     1      -4.773  10.978  16.077  0.00  0.00    +0.000 OA
ATOM     24  H   UNL     1      -5.341  10.623  15.370  0.00  0.00    +0.000 HD
ENDBRANCH  21  23
ENDBRANCH  19  21
ENDBRANCH   1  19
BRANCH   5  25
ATOM     25  C   UNL     1       1.280   9.209  20.712  0.00  0.00    +0.000 C 
BRANCH  25  26
ATOM     26  C   UNL     1       1.650   7.839  20.220  0.00  0.00    +0.000 A 
ATOM     27  C   UNL     1       1.409   6.707  21.001  0.00  0.00    +0.000 A 
ATOM     28  C   UNL     1       1.785   5.452  20.536  0.00  0.00    +0.000 A 
ATOM     29  C   UNL     1       2.408   5.353  19.297  0.00  0.00    +0.000 A 
ATOM     30  N   UNL     1       2.649   6.430  18.511  0.00  0.00    +0.000 NA
ATOM     31  C   UNL     1       2.253   7.640  18.980  0.00  0.00    +0.000 A 
BRANCH  29  32
ATOM     32  C   UNL     1       2.878   4.080  18.766  0.00  0.00    +0.000 A 
ATOM     33  C   UNL     1       3.578   3.712  17.632  0.00  0.00    +0.000 A 
ATOM     34  C   UNL     1       3.763   2.310  17.704  0.00  0.00    +0.000 A 
ATOM     35  C   UNL     1       3.159   1.905  18.871  0.00  0.00    +0.000 A 
ATOM     36  O   UNL     1       2.619   2.966  19.521  0.00  0.00    +0.000 OA
ENDBRANCH  29  32
ENDBRANCH  25  26
ENDBRANCH   5  25
TORSDOF 7
ENDMDL
MODEL 6
REMARK VINA RESULT:      -7.5      8.281     11.204
REMARK  Name = 
REMARK  9 active torsions:
REMARK  status: ('A' for Active; 'I' for Inactive)
REMARK    1  A    between atoms: C_1  and  C_2
REMARK    2  A    between atoms: C_2  and  C_3
REMARK    3  A    between atoms: C_2  and  O_4
REMARK    4  A    between atoms: C_2  and  C_5
REMARK    5  A    between atoms: C_5  and  N_6
REMARK    6  A    between atoms: N_10  and  C_11
REMARK    7  A    between atoms: C_11  and  C_12
REMARK    8  A    between atoms: C_15  and  C_16
REMARK    9  A    between atoms: N_26  and  C_27
REMARK                            x       y       z     vdW  Elec       q    Type
REMARK                         _______ _______ _______ _____ _____    ______ ____
ROOT
ATOM      1  N   UNL     1      -2.670  12.188  17.617  0.00  0.00    +0.000 N 
ATOM      2  C   UNL     1      -2.015  11.839  18.787  0.00  0.00    +0.000 A 
ATOM      3  N   UNL     1      -0.931  11.033  18.722  0.00  0.00    +0.000 NA
ATOM      4  C   UNL     1      -0.240  10.720  19.850  0.00  0.00    +0.000 A 
ATOM      5  N   UNL     1       0.840   9.856  19.701  0.00  0.00    +0.000 N 
ATOM      6  C   UNL     1      -0.655  11.309  21.054  0.00  0.00    +0.000 A 
ATOM      7  N   UNL     1      -0.164  11.241  22.342  0.00  0.00    +0.000 NA
ATOM      8  C   UNL     1      -0.960  12.008  23.048  0.00  0.00    +0.000 A 
ATOM      9  N   UNL     1      -1.961  12.549  22.282  0.00  0.00    +0.000 N 
ATOM     10  C   UNL     1      -1.785  12.104  20.998  0.00  0.00    +0.000 A 
ATOM     11  N   UNL     1      -2.525  12.373  19.911  0.00  0.00    +0.000 NA
ATOM     12  H   UNL     1      -3.672  12.173  17.772  0.00  0.00    +0.000 HD
ATOM     13  H   UNL     1       0.800   9.412  18.792  0.00  0.00    +0.000 HD
ENDROOT
BRANCH   9  14
ATOM     14  C   UNL     1      -2.970  13.438  22.796  0.00  0.00    +0.000 C 
ATOM     15  C   UNL     1      -4.060  12.771  23.629  0.00  0.00    +0.000 C 
ATOM     16  C   UNL     1      -4.755  13.951  24.296  0.00  0.00    +0.000 C 
ATOM     17  C   UNL     1      -3.687  15.035  24.456  0.00  0.00    +0.000 C 
ATOM     18  C   UNL     1      -2.450  14.549  23.704  0.00  0.00    +0.000 C 
ENDBRANCH   9  14
BRANCH   1  19
ATOM     19  C   UNL     1      -2.224  11.574  16.374  0.00  0.00    +0.000 C 
BRANCH  19  21
ATOM     20  C   UNL     1      -3.003  10.114  14.465  0.00  0.00    +0.000 C 
ATOM     21  C   UNL     1      -3.162  10.405  15.963  0.00  0.00    +0.000 C 
ATOM     22  C   UNL     1      -4.633  10.698  16.276  0.00  0.00    +0.000 C 
BRANCH  21  23
ATOM     23  O   UNL     1      -2.774   9.226  16.688  0.00  0.00    +0.000 OA
ATOM     24  H   UNL     1      -2.045   8.806  16.198  0.00  0.00    +0.000 HD
ENDBRANCH  21  23
ENDBRANCH  19  21
ENDBRANCH   1  19
BRANCH   5  25
ATOM     25  C   UNL     1       1.221   9.012  20.818  0.00  0.00    +0.000 C 
BRANCH  25  26
ATOM     26  C   UNL     1       1.660   7.665  20.315  0.00  0.00    +0.000 A 
ATOM     27  C   UNL     1       2.395   7.546  19.134  0.00  0.00    +0.000 A 
ATOM     28  C   UNL     1       2.766   6.288  18.674  0.00  0.00    +0.000 A 
ATOM     29  C   UNL     1       2.385   5.166  19.402  0.00  0.00    +0.000 A 
ATOM     30  N   UNL     1       1.679   5.248  20.556  0.00  0.00    +0.000 NA
ATOM     31  C   UNL     1       1.348   6.489  20.992  0.00  0.00    +0.000 A 
BRANCH  29  32
ATOM     32  C   UNL     1       2.691   3.813  18.956  0.00  0.00    +0.000 A 
ATOM     33  C   UNL     1       2.079   2.926  18.089  0.00  0.00    +0.000 A 
ATOM     34  C   UNL     1       2.894   1.769  18.049  0.00  0.00    +0.000 A 
ATOM     35  C   UNL     1       3.948   2.014  18.897  0.00  0.00    +0.000 A 
ATOM     36  O   UNL     1       3.835   3.246  19.453  0.00  0.00    +0.000 OA
ENDBRANCH  29  32
ENDBRANCH  25  26
ENDBRANCH   5  25
TORSDOF 7
ENDMDL
MODEL 7
REMARK VINA RESULT:      -7.5      7.573     11.884
REMARK  Name = 
REMARK  9 active torsions:
REMARK  status: ('A' for Active; 'I' for Inactive)
REMARK    1  A    between atoms: C_1  and  C_2
REMARK    2  A    between atoms: C_2  and  C_3
REMARK    3  A    between atoms: C_2  and  O_4
REMARK    4  A    between atoms: C_2  and  C_5
REMARK    5  A    between atoms: C_5  and  N_6
REMARK    6  A    between atoms: N_10  and  C_11
REMARK    7  A    between atoms: C_11  and  C_12
REMARK    8  A    between atoms: C_15  and  C_16
REMARK    9  A    between atoms: N_26  and  C_27
REMARK                            x       y       z     vdW  Elec       q    Type
REMARK                         _______ _______ _______ _____ _____    ______ ____
ROOT
ATOM      1  N   UNL     1      -3.168  12.368  18.894  0.00  0.00    +0.000 N 
ATOM      2  C   UNL     1      -1.784  12.344  18.834  0.00  0.00    +0.000 A 
ATOM      3  N   UNL     1      -1.162  11.249  18.341  0.00  0.00    +0.000 NA
ATOM      4  C   UNL     1       0.191  11.223  18.222  0.00  0.00    +0.000 A 
ATOM      5  N   UNL     1       0.753  10.045  17.742  0.00  0.00    +0.000 N 
ATOM      6  C   UNL     1       0.899  12.384  18.568  0.00  0.00    +0.000 A 
ATOM      7  N   UNL     1       2.241  12.704  18.529  0.00  0.00    +0.000 NA
ATOM      8  C   UNL     1       2.307  13.938  18.969  0.00  0.00    +0.000 A 
ATOM      9  N   UNL     1       1.073  14.423  19.317  0.00  0.00    +0.000 N 
ATOM     10  C   UNL     1       0.156  13.435  19.074  0.00  0.00    +0.000 A 
ATOM     11  N   UNL     1      -1.173  13.461  19.265  0.00  0.00    +0.000 NA
ATOM     12  H   UNL     1      -3.463  12.800  19.763  0.00  0.00    +0.000 HD
ATOM     13  H   UNL     1       0.066   9.301  17.770  0.00  0.00    +0.000 HD
ENDROOT
BRANCH   9  14
ATOM     14  C   UNL     1       0.850  15.754  19.821  0.00  0.00    +0.000 C 
ATOM     15  C   UNL     1       2.110  16.522  20.206  0.00  0.00    +0.000 C 
ATOM     16  C   UNL     1       1.608  17.951  20.365  0.00  0.00    +0.000 C 
ATOM     17  C   UNL     1       0.423  18.092  19.407  0.00  0.00    +0.000 C 
ATOM     18  C   UNL     1       0.132  16.697  18.860  0.00  0.00    +0.000 C 
ENDBRANCH   9  14
BRANCH   1  19
ATOM     19  C   UNL     1      -3.890  11.157  18.525  0.00  0.00    +0.000 C 
BRANCH  19  21
ATOM     20  C   UNL     1      -5.753  12.850  18.736  0.00  0.00    +0.000 C 
ATOM     21  C   UNL     1      -5.368  11.478  18.170  0.00  0.00    +0.000 C 
ATOM     22  C   UNL     1      -6.339  10.415  18.697  0.00  0.00    +0.000 C 
BRANCH  21  23
ATOM     23  O   UNL     1      -5.498  11.535  16.740  0.00  0.00    +0.000 OA
ATOM     24  H   UNL     1      -6.258  10.981  16.491  0.00  0.00    +0.000 HD
ENDBRANCH  21  23
ENDBRANCH  19  21
ENDBRANCH   1  19
BRANCH   5  25
ATOM     25  C   UNL     1       2.102   9.696  18.147  0.00  0.00    +0.000 C 
BRANCH  25  26
ATOM     26  C   UNL     1       2.123   8.302  18.708  0.00  0.00    +0.000 A 
ATOM     27  C   UNL     1       2.553   7.223  17.933  0.00  0.00    +0.000 A 
ATOM     28  C   UNL     1       2.538   5.939  18.465  0.00  0.00    +0.000 A 
ATOM     29  C   UNL     1       2.082   5.756  19.766  0.00  0.00    +0.000 A 
ATOM     30  N   UNL     1       1.667   6.782  20.547  0.00  0.00    +0.000 NA
ATOM     31  C   UNL     1       1.711   8.027  20.010  0.00  0.00    +0.000 A 
BRANCH  29  32
ATOM     32  C   UNL     1       1.987   4.435  20.374  0.00  0.00    +0.000 A 
ATOM     33  C   UNL     1       2.316   3.924  21.616  0.00  0.00    +0.000 A 
ATOM     34  C   UNL     1       1.944   2.557  21.605  0.00  0.00    +0.000 A 
ATOM     35  C   UNL     1       1.419   2.314  20.358  0.00  0.00    +0.000 A 
ATOM     36  O   UNL     1       1.441   3.441  19.604  0.00  0.00    +0.000 OA
ENDBRANCH  29  32
ENDBRANCH  25  26
ENDBRANCH   5  25
TORSDOF 7
ENDMDL
MODEL 8
REMARK VINA RESULT:      -7.4      5.262      8.035
REMARK  Name = 
REMARK  9 active torsions:
REMARK  status: ('A' for Active; 'I' for Inactive)
REMARK    1  A    between atoms: C_1  and  C_2
REMARK    2  A    between atoms: C_2  and  C_3
REMARK    3  A    between atoms: C_2  and  O_4
REMARK    4  A    between atoms: C_2  and  C_5
REMARK    5  A    between atoms: C_5  and  N_6
REMARK    6  A    between atoms: N_10  and  C_11
REMARK    7  A    between atoms: C_11  and  C_12
REMARK    8  A    between atoms: C_15  and  C_16
REMARK    9  A    between atoms: N_26  and  C_27
REMARK                            x       y       z     vdW  Elec       q    Type
REMARK                         _______ _______ _______ _____ _____    ______ ____
ROOT
ATOM      1  N   UNL     1       4.114   2.828  19.298  0.00  0.00    +0.000 N 
ATOM      2  C   UNL     1       4.096   3.985  18.534  0.00  0.00    +0.000 A 
ATOM      3  N   UNL     1       3.576   5.116  19.059  0.00  0.00    +0.000 NA
ATOM      4  C   UNL     1       3.596   6.275  18.350  0.00  0.00    +0.000 A 
ATOM      5  N   UNL     1       3.006   7.384  18.948  0.00  0.00    +0.000 N 
ATOM      6  C   UNL     1       4.225   6.261  17.095  0.00  0.00    +0.000 A 
ATOM      7  N   UNL     1       4.453   7.247  16.157  0.00  0.00    +0.000 NA
ATOM      8  C   UNL     1       5.094   6.645  15.184  0.00  0.00    +0.000 A 
ATOM      9  N   UNL     1       5.267   5.308  15.436  0.00  0.00    +0.000 N 
ATOM     10  C   UNL     1       4.707   5.042  16.658  0.00  0.00    +0.000 A 
ATOM     11  N   UNL     1       4.639   3.870  17.309  0.00  0.00    +0.000 NA
ATOM     12  H   UNL     1       3.878   2.033  18.715  0.00  0.00    +0.000 HD
ATOM     13  H   UNL     1       2.446   7.089  19.739  0.00  0.00    +0.000 HD
ENDROOT
BRANCH   9  14
ATOM     14  C   UNL     1       5.946   4.407  14.541  0.00  0.00    +0.000 C 
ATOM     15  C   UNL     1       5.098   3.866  13.395  0.00  0.00    +0.000 C 
ATOM     16  C   UNL     1       6.131   3.248  12.463  0.00  0.00    +0.000 C 
ATOM     17  C   UNL     1       7.416   4.056  12.660  0.00  0.00    +0.000 C 
ATOM     18  C   UNL     1       7.169   4.993  13.840  0.00  0.00    +0.000 C 
ENDBRANCH   9  14
BRANCH   1  19
ATOM     19  C   UNL     1       3.463   2.859  20.601  0.00  0.00    +0.000 C 
BRANCH  19  21
ATOM     20  C   UNL     1       1.328   2.153  21.752  0.00  0.00    +0.000 C 
ATOM     21  C   UNL     1       1.922   2.720  20.456  0.00  0.00    +0.000 C 
ATOM     22  C   UNL     1       1.525   1.828  19.276  0.00  0.00    +0.000 C 
BRANCH  21  23
ATOM     23  O   UNL     1       1.360   4.026  20.244  0.00  0.00    +0.000 OA
ATOM     24  H   UNL     1       0.511   4.061  20.719  0.00  0.00    +0.000 HD
ENDBRANCH  21  23
ENDBRANCH  19  21
ENDBRANCH   1  19
BRANCH   5  25
ATOM     25  C   UNL     1       2.439   8.418  18.103  0.00  0.00    +0.000 C 
BRANCH  25  26
ATOM     26  C   UNL     1       1.479   9.258  18.896  0.00  0.00    +0.000 A 
ATOM     27  C   UNL     1       1.266   9.014  20.255  0.00  0.00    +0.000 A 
ATOM     28  C   UNL     1       0.353   9.787  20.962  0.00  0.00    +0.000 A 
ATOM     29  C   UNL     1      -0.341  10.789  20.292  0.00  0.00    +0.000 A 
ATOM     30  N   UNL     1      -0.151  11.057  18.978  0.00  0.00    +0.000 NA
ATOM     31  C   UNL     1       0.760  10.301  18.317  0.00  0.00    +0.000 A 
BRANCH  29  32
ATOM     32  C   UNL     1      -1.351  11.605  20.953  0.00  0.00    +0.000 A 
ATOM     33  C   UNL     1      -2.231  12.580  20.521  0.00  0.00    +0.000 A 
ATOM     34  C   UNL     1      -2.990  12.973  21.650  0.00  0.00    +0.000 A 
ATOM     35  C   UNL     1      -2.525  12.223  22.703  0.00  0.00    +0.000 A 
ATOM     36  O   UNL     1      -1.532  11.393  22.295  0.00  0.00    +0.000 OA
ENDBRANCH  29  32
ENDBRANCH  25  26
ENDBRANCH   5  25
TORSDOF 7
ENDMDL
MODEL 9
REMARK VINA RESULT:      -7.4      7.774     11.631
REMARK  Name = 
REMARK  9 active torsions:
REMARK  status: ('A' for Active; 'I' for Inactive)
REMARK    1  A    between atoms: C_1  and  C_2
REMARK    2  A    between atoms: C_2  and  C_3
REMARK    3  A    between atoms: C_2  and  O_4
REMARK    4  A    between atoms: C_2  and  C_5
REMARK    5  A    between atoms: C_5  and  N_6
REMARK    6  A    between atoms: N_10  and  C_11
REMARK    7  A    between atoms: C_11  and  C_12
REMARK    8  A    between atoms: C_15  and  C_16
REMARK    9  A    between atoms: N_26  and  C_27
REMARK                            x       y       z     vdW  Elec       q    Type
REMARK                         _______ _______ _______ _____ _____    ______ ____
ROOT
ATOM      1  N   UNL     1      -3.754  13.157  19.581  0.00  0.00    +0.000 N 
ATOM      2  C   UNL     1      -2.425  12.828  19.792  0.00  0.00    +0.000 A 
ATOM      3  N   UNL     1      -2.055  11.528  19.780  0.00  0.00    +0.000 NA
ATOM      4  C   UNL     1      -0.750  11.183  19.932  0.00  0.00    +0.000 A 
ATOM      5  N   UNL     1      -0.460   9.823  19.946  0.00  0.00    +0.000 N 
ATOM      6  C   UNL     1       0.191  12.220  20.037  0.00  0.00    +0.000 A 
ATOM      7  N   UNL     1       1.566  12.222  20.155  0.00  0.00    +0.000 NA
ATOM      8  C   UNL     1       1.898  13.490  20.204  0.00  0.00    +0.000 A 
ATOM      9  N   UNL     1       0.800  14.309  20.150  0.00  0.00    +0.000 N 
ATOM     10  C   UNL     1      -0.308  13.509  20.050  0.00  0.00    +0.000 A 
ATOM     11  N   UNL     1      -1.598  13.873  19.971  0.00  0.00    +0.000 NA
ATOM     12  H   UNL     1      -4.021  13.909  20.206  0.00  0.00    +0.000 HD
ATOM     13  H   UNL     1      -1.314   9.293  20.069  0.00  0.00    +0.000 HD
ENDROOT
BRANCH   9  14
ATOM     14  C   UNL     1       0.873  15.747  20.175  0.00  0.00    +0.000 C 
ATOM     15  C   UNL     1       2.277  16.324  20.329  0.00  0.00    +0.000 C 
ATOM     16  C   UNL     1       2.085  17.795  19.986  0.00  0.00    +0.000 C 
ATOM     17  C   UNL     1       0.921  17.850  18.994  0.00  0.00    +0.000 C 
ATOM     18  C   UNL     1       0.330  16.443  18.931  0.00  0.00    +0.000 C 
ENDBRANCH   9  14
BRANCH   1  19
ATOM     19  C   UNL     1      -4.718  12.071  19.468  0.00  0.00    +0.000 C 
BRANCH  19  21
ATOM     20  C   UNL     1      -6.758  11.304  18.191  0.00  0.00    +0.000 C 
ATOM     21  C   UNL     1      -5.472  12.135  18.111  0.00  0.00    +0.000 C 
ATOM     22  C   UNL     1      -4.613  11.640  16.942  0.00  0.00    +0.000 C 
BRANCH  21  23
ATOM     23  O   UNL     1      -5.840  13.500  17.852  0.00  0.00    +0.000 OA
ATOM     24  H   UNL     1      -5.655  13.682  16.914  0.00  0.00    +0.000 HD
ENDBRANCH  21  23
ENDBRANCH  19  21
ENDBRANCH   1  19
BRANCH   5  25
ATOM     25  C   UNL     1       0.701   9.361  20.684  0.00  0.00    +0.000 C 
BRANCH  25  26
ATOM     26  C   UNL     1       1.563   8.507  19.799  0.00  0.00    +0.000 A 
ATOM     27  C   UNL     1       1.866   8.904  18.494  0.00  0.00    +0.000 A 
ATOM     28  C   UNL     1       2.644   8.084  17.685  0.00  0.00    +0.000 A 
ATOM     29  C   UNL     1       3.098   6.872  18.193  0.00  0.00    +0.000 A 
ATOM     30  N   UNL     1       2.829   6.462  19.456  0.00  0.00    +0.000 NA
ATOM     31  C   UNL     1       2.086   7.291  20.231  0.00  0.00    +0.000 A 
BRANCH  29  32
ATOM     32  C   UNL     1       3.872   5.937  17.389  0.00  0.00    +0.000 A 
ATOM     33  C   UNL     1       3.927   4.558  17.306  0.00  0.00    +0.000 A 
ATOM     34  C   UNL     1       4.866   4.247  16.292  0.00  0.00    +0.000 A 
ATOM     35  C   UNL     1       5.334   5.452  15.823  0.00  0.00    +0.000 A 
ATOM     36  O   UNL     1       4.742   6.480  16.479  0.00  0.00    +0.000 OA
ENDBRANCH  29  32
ENDBRANCH  25  26
ENDBRANCH   5  25
TORSDOF 7
ENDMDL
