MODEL 1
REMARK VINA RESULT:      -7.2      0.000      0.000
REMARK  Name = 
REMARK  2 active torsions:
REMARK  status: ('A' for Active; 'I' for Inactive)
REMARK    1  A    between atoms: C_1  and  C_2
REMARK    2  A    between atoms: C_5  and  C_6
REMARK                            x       y       z     vdW  Elec       q    Type
REMARK                         _______ _______ _______ _____ _____    ______ ____
ROOT
ATOM      1  C   UNL     1       3.905   7.364  16.853  0.00  0.00    +0.000 C 
ATOM      2  C   UNL     1       3.419   6.499  17.978  0.00  0.00    +0.000 A 
ATOM      3  C   UNL     1       3.761   5.153  18.077  0.00  0.00    +0.000 A 
ATOM      4  C   UNL     1       3.301   4.359  19.119  0.00  0.00    +0.000 A 
ATOM      5  C   UNL     1       2.474   4.856  20.126  0.00  0.00    +0.000 A 
ATOM      6  C   UNL     1       1.961   4.025  21.264  0.00  0.00    +0.000 C 
ATOM      7  C   UNL     1       2.123   6.216  20.035  0.00  0.00    +0.000 A 
ATOM      8  C   UNL     1       2.585   7.024  18.978  0.00  0.00    +0.000 A 
ATOM      9  O   UNL     1       2.242   8.353  18.879  0.00  0.00    +0.000 OA
ATOM     10  C   UNL     1       1.417   8.841  19.862  0.00  0.00    +0.000 A 
ATOM     11  C   UNL     1       1.043  10.181  19.783  0.00  0.00    +0.000 A 
ATOM     12  C   UNL     1       0.204  10.722  20.758  0.00  0.00    +0.000 A 
ATOM     13  C   UNL     1      -0.256   9.923  21.806  0.00  0.00    +0.000 A 
ATOM     14  C   UNL     1       0.122   8.581  21.880  0.00  0.00    +0.000 A 
ATOM     15  C   UNL     1       0.959   8.043  20.904  0.00  0.00    +0.000 A 
ATOM     16  O   UNL     1       1.302   6.722  21.020  0.00  0.00    +0.000 OA
ATOM     17  C   UNL     1       3.836   3.005  18.919  0.00  0.00    +0.000 C 
ATOM     18  O   UNL     1       3.689   2.032  19.630  0.00  0.00    +0.000 OA
ATOM     19  O   UNL     1       4.553   3.025  17.756  0.00  0.00    +0.000 OA
ATOM     20  C   UNL     1       4.623   4.341  17.188  0.00  0.00    +0.000 C 
ENDROOT
TORSDOF 0
ENDMDL
MODEL 2
REMARK VINA RESULT:      -7.1      0.540      2.856
REMARK  Name = 
REMARK  2 active torsions:
REMARK  status: ('A' for Active; 'I' for Inactive)
REMARK    1  A    between atoms: C_1  and  C_2
REMARK    2  A    between atoms: C_5  and  C_6
REMARK                            x       y       z     vdW  Elec       q    Type
REMARK                         _______ _______ _______ _____ _____    ______ ____
ROOT
ATOM      1  C   UNL     1       1.617   3.821  21.206  0.00  0.00    +0.000 C 
ATOM      2  C   UNL     1       2.205   4.675  20.122  0.00  0.00    +0.000 A 
ATOM      3  C   UNL     1       3.030   4.149  19.131  0.00  0.00    +0.000 A 
ATOM      4  C   UNL     1       3.575   4.950  18.136  0.00  0.00    +0.000 A 
ATOM      5  C   UNL     1       3.329   6.321  18.064  0.00  0.00    +0.000 A 
ATOM      6  C   UNL     1       3.901   7.211  17.002  0.00  0.00    +0.000 C 
ATOM      7  C   UNL     1       2.497   6.862  19.061  0.00  0.00    +0.000 A 
ATOM      8  C   UNL     1       1.945   6.055  20.074  0.00  0.00    +0.000 A 
ATOM      9  O   UNL     1       1.133   6.577  21.055  0.00  0.00    +0.000 OA
ATOM     10  C   UNL     1       0.902   7.928  20.995  0.00  0.00    +0.000 A 
ATOM     11  C   UNL     1       0.093   8.488  21.981  0.00  0.00    +0.000 A 
ATOM     12  C   UNL     1      -0.170   9.859  21.963  0.00  0.00    +0.000 A 
ATOM     13  C   UNL     1       0.375  10.662  20.959  0.00  0.00    +0.000 A 
ATOM     14  C   UNL     1       1.186  10.095  19.974  0.00  0.00    +0.000 A 
ATOM     15  C   UNL     1       1.448   8.726  19.996  0.00  0.00    +0.000 A 
ATOM     16  O   UNL     1       2.247   8.217  19.008  0.00  0.00    +0.000 OA
ATOM     17  C   UNL     1       4.393   4.090  17.269  0.00  0.00    +0.000 C 
ATOM     18  O   UNL     1       5.006   4.406  16.270  0.00  0.00    +0.000 OA
ATOM     19  O   UNL     1       4.346   2.830  17.795  0.00  0.00    +0.000 OA
ATOM     20  C   UNL     1       3.464   2.749  18.924  0.00  0.00    +0.000 C 
ENDROOT
TORSDOF 0
ENDMDL
MODEL 3
REMARK VINA RESULT:      -6.9      1.001      3.014
REMARK  Name = 
REMARK  2 active torsions:
REMARK  status: ('A' for Active; 'I' for Inactive)
REMARK    1  A    between atoms: C_1  and  C_2
REMARK    2  A    between atoms: C_5  and  C_6
REMARK                            x       y       z     vdW  Elec       q    Type
REMARK                         _______ _______ _______ _____ _____    ______ ____
ROOT
ATOM      1  C   UNL     1       2.079   4.769  21.184  0.00  0.00    +0.000 C 
ATOM      2  C   UNL     1       2.729   5.304  19.943  0.00  0.00    +0.000 A 
ATOM      3  C   UNL     1       3.618   4.544  19.187  0.00  0.00    +0.000 A 
ATOM      4  C   UNL     1       4.219   5.051  18.042  0.00  0.00    +0.000 A 
ATOM      5  C   UNL     1       3.971   6.343  17.579  0.00  0.00    +0.000 A 
ATOM      6  C   UNL     1       4.604   6.919  16.348  0.00  0.00    +0.000 C 
ATOM      7  C   UNL     1       3.074   7.119  18.337  0.00  0.00    +0.000 A 
ATOM      8  C   UNL     1       2.464   6.611  19.500  0.00  0.00    +0.000 A 
ATOM      9  O   UNL     1       1.590   7.364  20.248  0.00  0.00    +0.000 OA
ATOM     10  C   UNL     1       1.355   8.641  19.803  0.00  0.00    +0.000 A 
ATOM     11  C   UNL     1       0.482   9.432  20.546  0.00  0.00    +0.000 A 
ATOM     12  C   UNL     1       0.213  10.739  20.134  0.00  0.00    +0.000 A 
ATOM     13  C   UNL     1       0.816  11.246  18.981  0.00  0.00    +0.000 A 
ATOM     14  C   UNL     1       1.691  10.448  18.241  0.00  0.00    +0.000 A 
ATOM     15  C   UNL     1       1.958   9.144  18.656  0.00  0.00    +0.000 A 
ATOM     16  O   UNL     1       2.821   8.401  17.896  0.00  0.00    +0.000 OA
ATOM     17  C   UNL     1       5.095   4.005  17.497  0.00  0.00    +0.000 C 
ATOM     18  O   UNL     1       5.769   4.047  16.488  0.00  0.00    +0.000 OA
ATOM     19  O   UNL     1       5.022   2.938  18.347  0.00  0.00    +0.000 OA
ATOM     20  C   UNL     1       4.072   3.152  19.400  0.00  0.00    +0.000 C 
ENDROOT
TORSDOF 0
ENDMDL
MODEL 4
REMARK VINA RESULT:      -6.9      1.712      6.413
REMARK  Name = 
REMARK  2 active torsions:
REMARK  status: ('A' for Active; 'I' for Inactive)
REMARK    1  A    between atoms: C_1  and  C_2
REMARK    2  A    between atoms: C_5  and  C_6
REMARK                            x       y       z     vdW  Elec       q    Type
REMARK                         _______ _______ _______ _____ _____    ______ ____
ROOT
ATOM      1  C   UNL     1       2.063   4.952  21.032  0.00  0.00    +0.000 C 
ATOM      2  C   UNL     1       2.126   6.193  20.192  0.00  0.00    +0.000 A 
ATOM      3  C   UNL     1       1.412   7.344  20.517  0.00  0.00    +0.000 A 
ATOM      4  C   UNL     1       1.472   8.486  19.729  0.00  0.00    +0.000 A 
ATOM      5  C   UNL     1       2.247   8.553  18.571  0.00  0.00    +0.000 A 
ATOM      6  C   UNL     1       2.333   9.770  17.700  0.00  0.00    +0.000 C 
ATOM      7  C   UNL     1       2.971   7.395  18.234  0.00  0.00    +0.000 A 
ATOM      8  C   UNL     1       2.911   6.234  19.028  0.00  0.00    +0.000 A 
ATOM      9  O   UNL     1       3.613   5.095  18.702  0.00  0.00    +0.000 OA
ATOM     10  C   UNL     1       4.364   5.154  17.556  0.00  0.00    +0.000 A 
ATOM     11  C   UNL     1       5.077   4.014  17.193  0.00  0.00    +0.000 A 
ATOM     12  C   UNL     1       5.855   4.025  16.034  0.00  0.00    +0.000 A 
ATOM     13  C   UNL     1       5.917   5.174  15.244  0.00  0.00    +0.000 A 
ATOM     14  C   UNL     1       5.199   6.314  15.612  0.00  0.00    +0.000 A 
ATOM     15  C   UNL     1       4.422   6.300  16.770  0.00  0.00    +0.000 A 
ATOM     16  O   UNL     1       3.738   7.442  17.089  0.00  0.00    +0.000 OA
ATOM     17  C   UNL     1       0.605   9.500  20.346  0.00  0.00    +0.000 C 
ATOM     18  O   UNL     1       0.413  10.641  19.978  0.00  0.00    +0.000 OA
ATOM     19  O   UNL     1       0.030   8.923  21.442  0.00  0.00    +0.000 OA
ATOM     20  C   UNL     1       0.523   7.595  21.674  0.00  0.00    +0.000 C 
ENDROOT
TORSDOF 0
ENDMDL
MODEL 5
REMARK VINA RESULT:      -6.6      1.645      5.668
REMARK  Name = 
REMARK  2 active torsions:
REMARK  status: ('A' for Active; 'I' for Inactive)
REMARK    1  A    between atoms: C_1  and  C_2
REMARK    2  A    between atoms: C_5  and  C_6
REMARK                            x       y       z     vdW  Elec       q    Type
REMARK                         _______ _______ _______ _____ _____    ______ ____
ROOT
ATOM      1  C   UNL     1       3.588   7.845  17.098  0.00  0.00    +0.000 C 
ATOM      2  C   UNL     1       2.689   7.948  18.294  0.00  0.00    +0.000 A 
ATOM      3  C   UNL     1       1.994   9.116  18.599  0.00  0.00    +0.000 A 
ATOM      4  C   UNL     1       1.169   9.204  19.713  0.00  0.00    +0.000 A 
ATOM      5  C   UNL     1       0.983   8.135  20.589  0.00  0.00    +0.000 A 
ATOM      6  C   UNL     1       0.100   8.198  21.798  0.00  0.00    +0.000 C 
ATOM      7  C   UNL     1       1.682   6.950  20.290  0.00  0.00    +0.000 A 
ATOM      8  C   UNL     1       2.522   6.858  19.163  0.00  0.00    +0.000 A 
ATOM      9  O   UNL     1       3.211   5.704  18.867  0.00  0.00    +0.000 OA
ATOM     10  C   UNL     1       3.041   4.656  19.735  0.00  0.00    +0.000 A 
ATOM     11  C   UNL     1       3.735   3.478  19.467  0.00  0.00    +0.000 A 
ATOM     12  C   UNL     1       3.596   2.384  20.323  0.00  0.00    +0.000 A 
ATOM     13  C   UNL     1       2.764   2.473  21.441  0.00  0.00    +0.000 A 
ATOM     14  C   UNL     1       2.071   3.656  21.705  0.00  0.00    +0.000 A 
ATOM     15  C   UNL     1       2.214   4.747  20.848  0.00  0.00    +0.000 A 
ATOM     16  O   UNL     1       1.514   5.885  21.148  0.00  0.00    +0.000 OA
ATOM     17  C   UNL     1       0.603  10.559  19.743  0.00  0.00    +0.000 C 
ATOM     18  O   UNL     1      -0.189  11.019  20.540  0.00  0.00    +0.000 OA
ATOM     19  O   UNL     1       1.136  11.240  18.686  0.00  0.00    +0.000 OA
ATOM     20  C   UNL     1       1.967  10.403  17.869  0.00  0.00    +0.000 C 
ENDROOT
TORSDOF 0
ENDMDL
MODEL 6
REMARK VINA RESULT:      -6.5      2.996      7.892
REMARK  Name = 
REMARK  2 active torsions:
REMARK  status: ('A' for Active; 'I' for Inactive)
REMARK    1  A    between atoms: C_1  and  C_2
REMARK    2  A    between atoms: C_5  and  C_6
REMARK                            x       y       z     vdW  Elec       q    Type
REMARK                         _______ _______ _______ _____ _____    ______ ____
ROOT
ATOM      1  C   UNL     1      -0.359   9.541  23.420  0.00  0.00    +0.000 C 
ATOM      2  C   UNL     1      -0.325  10.376  22.175  0.00  0.00    +0.000 A 
ATOM      3  C   UNL     1      -0.959  11.614  22.097  0.00  0.00    +0.000 A 
ATOM      4  C   UNL     1      -0.927  12.377  20.937  0.00  0.00    +0.000 A 
ATOM      5  C   UNL     1      -0.261  11.956  19.786  0.00  0.00    +0.000 A 
ATOM      6  C   UNL     1      -0.208  12.756  18.519  0.00  0.00    +0.000 C 
ATOM      7  C   UNL     1       0.382  10.706  19.855  0.00  0.00    +0.000 A 
ATOM      8  C   UNL     1       0.350   9.928  21.028  0.00  0.00    +0.000 A 
ATOM      9  O   UNL     1       0.973   8.703  21.102  0.00  0.00    +0.000 OA
ATOM     10  C   UNL     1       1.617   8.281  19.966  0.00  0.00    +0.000 A 
ATOM     11  C   UNL     1       2.247   7.039  20.006  0.00  0.00    +0.000 A 
ATOM     12  C   UNL     1       2.914   6.565  18.874  0.00  0.00    +0.000 A 
ATOM     13  C   UNL     1       2.947   7.335  17.710  0.00  0.00    +0.000 A 
ATOM     14  C   UNL     1       2.312   8.579  17.675  0.00  0.00    +0.000 A 
ATOM     15  C   UNL     1       1.647   9.048  18.807  0.00  0.00    +0.000 A 
ATOM     16  O   UNL     1       1.041  10.273  18.724  0.00  0.00    +0.000 OA
ATOM     17  C   UNL     1      -1.692  13.606  21.190  0.00  0.00    +0.000 C 
ATOM     18  O   UNL     1      -1.871  14.541  20.437  0.00  0.00    +0.000 OA
ATOM     19  O   UNL     1      -2.185  13.517  22.460  0.00  0.00    +0.000 OA
ATOM     20  C   UNL     1      -1.725  12.337  23.136  0.00  0.00    +0.000 C 
ENDROOT
TORSDOF 0
ENDMDL
MODEL 7
REMARK VINA RESULT:      -6.4      2.155      6.461
REMARK  Name = 
REMARK  2 active torsions:
REMARK  status: ('A' for Active; 'I' for Inactive)
REMARK    1  A    between atoms: C_1  and  C_2
REMARK    2  A    between atoms: C_5  and  C_6
REMARK                            x       y       z     vdW  Elec       q    Type
REMARK                         _______ _______ _______ _____ _____    ______ ____
ROOT
ATOM      1  C   UNL     1       1.866  10.864  17.832  0.00  0.00    +0.000 C 
ATOM      2  C   UNL     1       1.349  10.423  19.170  0.00  0.00    +0.000 A 
ATOM      3  C   UNL     1       0.720  11.304  20.046  0.00  0.00    +0.000 A 
ATOM      4  C   UNL     1       0.251  10.888  21.286  0.00  0.00    +0.000 A 
ATOM      5  C   UNL     1       0.378   9.571  21.727  0.00  0.00    +0.000 A 
ATOM      6  C   UNL     1      -0.118   9.090  23.058  0.00  0.00    +0.000 C 
ATOM      7  C   UNL     1       1.014   8.673  20.848  0.00  0.00    +0.000 A 
ATOM      8  C   UNL     1       1.493   9.091  19.592  0.00  0.00    +0.000 A 
ATOM      9  O   UNL     1       2.119   8.221  18.729  0.00  0.00    +0.000 OA
ATOM     10  C   UNL     1       2.258   6.928  19.167  0.00  0.00    +0.000 A 
ATOM     11  C   UNL     1       2.898   6.026  18.320  0.00  0.00    +0.000 A 
ATOM     12  C   UNL     1       3.064   4.699  18.722  0.00  0.00    +0.000 A 
ATOM     13  C   UNL     1       2.590   4.282  19.967  0.00  0.00    +0.000 A 
ATOM     14  C   UNL     1       1.950   5.191  20.812  0.00  0.00    +0.000 A 
ATOM     15  C   UNL     1       1.786   6.515  20.408  0.00  0.00    +0.000 A 
ATOM     16  O   UNL     1       1.152   7.369  21.271  0.00  0.00    +0.000 OA
ATOM     17  C   UNL     1      -0.344  12.054  21.952  0.00  0.00    +0.000 C 
ATOM     18  O   UNL     1      -0.890  12.095  23.036  0.00  0.00    +0.000 OA
ATOM     19  O   UNL     1      -0.174  13.122  21.119  0.00  0.00    +0.000 OA
ATOM     20  C   UNL     1       0.422  12.743  19.870  0.00  0.00    +0.000 C 
ENDROOT
TORSDOF 0
ENDMDL
MODEL 8
REMARK VINA RESULT:      -6.4      3.229      7.585
REMARK  Name = 
REMARK  2 active torsions:
REMARK  status: ('A' for Active; 'I' for Inactive)
REMARK    1  A    between atoms: C_1  and  C_2
REMARK    2  A    between atoms: C_5  and  C_6
REMARK                            x       y       z     vdW  Elec       q    Type
REMARK                         _______ _______ _______ _____ _____    ______ ____
ROOT
ATOM      1  C   UNL     1      -0.700  12.748  18.011  0.00  0.00    +0.000 C 
ATOM      2  C   UNL     1      -0.737  12.077  19.352  0.00  0.00    +0.000 A 
ATOM      3  C   UNL     1      -1.453  12.605  20.424  0.00  0.00    +0.000 A 
ATOM      4  C   UNL     1      -1.475  11.979  21.664  0.00  0.00    +0.000 A 
ATOM      5  C   UNL     1      -0.789  10.791  21.912  0.00  0.00    +0.000 A 
ATOM      6  C   UNL     1      -0.793  10.092  23.238  0.00  0.00    +0.000 C 
ATOM      7  C   UNL     1      -0.061  10.250  20.835  0.00  0.00    +0.000 A 
ATOM      8  C   UNL     1      -0.033  10.882  19.577  0.00  0.00    +0.000 A 
ATOM      9  O   UNL     1       0.679  10.362  18.521  0.00  0.00    +0.000 OA
ATOM     10  C   UNL     1       1.367   9.201  18.767  0.00  0.00    +0.000 A 
ATOM     11  C   UNL     1       2.106   8.656  17.720  0.00  0.00    +0.000 A 
ATOM     12  C   UNL     1       2.825   7.476  17.922  0.00  0.00    +0.000 A 
ATOM     13  C   UNL     1       2.799   6.847  19.168  0.00  0.00    +0.000 A 
ATOM     14  C   UNL     1       2.056   7.399  20.214  0.00  0.00    +0.000 A 
ATOM     15  C   UNL     1       1.341   8.577  20.009  0.00  0.00    +0.000 A 
ATOM     16  O   UNL     1       0.627   9.079  21.065  0.00  0.00    +0.000 OA
ATOM     17  C   UNL     1      -2.308  12.794  22.560  0.00  0.00    +0.000 C 
ATOM     18  O   UNL     1      -2.599  12.569  23.717  0.00  0.00    +0.000 OA
ATOM     19  O   UNL     1      -2.713  13.886  21.847  0.00  0.00    +0.000 OA
ATOM     20  C   UNL     1      -2.286  13.827  20.479  0.00  0.00    +0.000 C 
ENDROOT
TORSDOF 0
ENDMDL
MODEL 9
REMARK VINA RESULT:      -6.3      5.290      8.105
REMARK  Name = 
REMARK  2 active torsions:
REMARK  status: ('A' for Active; 'I' for Inactive)
REMARK    1  A    between atoms: C_1  and  C_2
REMARK    2  A    between atoms: C_5  and  C_6
REMARK                            x       y       z     vdW  Elec       q    Type
REMARK                         _______ _______ _______ _____ _____    ______ ____
ROOT
ATOM      1  C   UNL     1      -2.301   9.949  16.617  0.00  0.00    +0.000 C 
ATOM      2  C   UNL     1      -2.130  10.688  17.911  0.00  0.00    +0.000 A 
ATOM      3  C   UNL     1      -0.937  10.654  18.630  0.00  0.00    +0.000 A 
ATOM      4  C   UNL     1      -0.791  11.336  19.831  0.00  0.00    +0.000 A 
ATOM      5  C   UNL     1      -1.821  12.094  20.388  0.00  0.00    +0.000 A 
ATOM      6  C   UNL     1      -1.694  12.841  21.682  0.00  0.00    +0.000 C 
ATOM      7  C   UNL     1      -3.030  12.133  19.670  0.00  0.00    +0.000 A 
ATOM      8  C   UNL     1      -3.184  11.441  18.453  0.00  0.00    +0.000 A 
ATOM      9  O   UNL     1      -4.365  11.470  17.747  0.00  0.00    +0.000 OA
ATOM     10  C   UNL     1      -5.384  12.204  18.301  0.00  0.00    +0.000 A 
ATOM     11  C   UNL     1      -6.596  12.244  17.614  0.00  0.00    +0.000 A 
ATOM     12  C   UNL     1      -7.663  12.975  18.139  0.00  0.00    +0.000 A 
ATOM     13  C   UNL     1      -7.513  13.662  19.345  0.00  0.00    +0.000 A 
ATOM     14  C   UNL     1      -6.297  13.617  20.029  0.00  0.00    +0.000 A 
ATOM     15  C   UNL     1      -5.234  12.886  19.503  0.00  0.00    +0.000 A 
ATOM     16  O   UNL     1      -4.061  12.873  20.209  0.00  0.00    +0.000 OA
ATOM     17  C   UNL     1       0.571  11.086  20.323  0.00  0.00    +0.000 C 
ATOM     18  O   UNL     1       1.095  11.530  21.324  0.00  0.00    +0.000 OA
ATOM     19  O   UNL     1       1.169  10.239  19.434  0.00  0.00    +0.000 OA
ATOM     20  C   UNL     1       0.330   9.964  18.303  0.00  0.00    +0.000 C 
ENDROOT
TORSDOF 0
ENDMDL
