MODEL 1
REMARK VINA RESULT:      -8.1      0.000      0.000
REMARK  Name = 
REMARK  9 active torsions:
REMARK  status: ('A' for Active; 'I' for Inactive)
REMARK    1  A    between atoms: C_1  and  C_2
REMARK    2  A    between atoms: C_3  and  C_4
REMARK    3  A    between atoms: N_6  and  C_7
REMARK    4  A    between atoms: C_7  and  C_8
REMARK    5  A    between atoms: C_8  and  C_9
REMARK    6  A    between atoms: C_12  and  N_13
REMARK    7  A    between atoms: N_13  and  C_14
REMARK    8  A    between atoms: N_13  and  C_15
REMARK    9  A    between atoms: C_26  and  O_27
REMARK                            x       y       z     vdW  Elec       q    Type
REMARK                         _______ _______ _______ _____ _____    ______ ____
ROOT
ATOM      1  C   UNL     1       2.283   6.124  19.801  0.00  0.00    +0.000 C 
ATOM      2  O   UNL     1       1.588   5.122  19.719  0.00  0.00    +0.000 OA
ATOM      3  N   UNL     1       3.669   6.067  19.779  0.00  0.00    +0.000 N 
ATOM      4  H   UNL     1       4.148   6.962  19.800  0.00  0.00    +0.000 HD
ENDROOT
BRANCH   1   7
ATOM      5  C   UNL     1       2.475   8.371  17.641  0.00  0.00    +0.000 C 
ATOM      6  C   UNL     1       1.783   8.511  18.964  0.00  0.00    +0.000 A 
ATOM      7  C   UNL     1       1.724   7.532  19.955  0.00  0.00    +0.000 A 
ATOM      8  N   UNL     1       1.146   7.741  21.179  0.00  0.00    +0.000 NA
ATOM      9  C   UNL     1       0.576   8.925  21.445  0.00  0.00    +0.000 A 
ATOM     10  C   UNL     1       0.020   9.125  22.698  0.00  0.00    +0.000 A 
ATOM     11  C   UNL     1      -0.575  10.333  23.065  0.00  0.00    +0.000 A 
ATOM     12  C   UNL     1      -0.641  11.366  22.138  0.00  0.00    +0.000 A 
ATOM     13 CL   UNL     1      -1.353  12.868  22.571  0.00  0.00    +0.000 Cl
ATOM     14  C   UNL     1      -0.116  11.188  20.863  0.00  0.00    +0.000 A 
ATOM     15  C   UNL     1       0.527   9.973  20.503  0.00  0.00    +0.000 A 
ATOM     16  C   UNL     1       1.140   9.724  19.259  0.00  0.00    +0.000 A 
BRANCH  16  17
ATOM     17  O   UNL     1       1.154  10.671  18.260  0.00  0.00    +0.000 OA
ATOM     18  H   UNL     1       0.309  10.687  17.788  0.00  0.00    +0.000 HD
ENDBRANCH  16  17
ENDBRANCH   1   7
BRANCH   3  19
ATOM     19  C   UNL     1       4.391   4.822  19.589  0.00  0.00    +0.000 C 
BRANCH  19  20
ATOM     20  C   UNL     1       5.843   5.053  19.156  0.00  0.00    +0.000 C 
BRANCH  20  21
ATOM     21  C   UNL     1       6.061   4.780  17.689  0.00  0.00    +0.000 A 
ATOM     22  C   UNL     1       7.322   4.937  17.113  0.00  0.00    +0.000 A 
ATOM     23  C   UNL     1       7.513   4.733  15.736  0.00  0.00    +0.000 A 
ATOM     24  C   UNL     1       6.464   4.381  14.871  0.00  0.00    +0.000 A 
ATOM     25  C   UNL     1       5.211   4.207  15.482  0.00  0.00    +0.000 A 
ATOM     26  C   UNL     1       5.007   4.399  16.861  0.00  0.00    +0.000 A 
BRANCH  24  27
ATOM     27  N   UNL     1       6.643   4.253  13.504  0.00  0.00    +0.000 N 
ATOM     28  C   UNL     1       7.614   5.054  12.762  0.00  0.00    +0.000 C 
ATOM     29  C   UNL     1       5.755   3.447  12.672  0.00  0.00    +0.000 C 
ENDBRANCH  24  27
ENDBRANCH  20  21
ENDBRANCH  19  20
ENDBRANCH   3  19
TORSDOF 6
ENDMDL
MODEL 2
REMARK VINA RESULT:      -7.9      6.731     10.060
REMARK  Name = 
REMARK  9 active torsions:
REMARK  status: ('A' for Active; 'I' for Inactive)
REMARK    1  A    between atoms: C_1  and  C_2
REMARK    2  A    between atoms: C_3  and  C_4
REMARK    3  A    between atoms: N_6  and  C_7
REMARK    4  A    between atoms: C_7  and  C_8
REMARK    5  A    between atoms: C_8  and  C_9
REMARK    6  A    between atoms: C_12  and  N_13
REMARK    7  A    between atoms: N_13  and  C_14
REMARK    8  A    between atoms: N_13  and  C_15
REMARK    9  A    between atoms: C_26  and  O_27
REMARK                            x       y       z     vdW  Elec       q    Type
REMARK                         _______ _______ _______ _____ _____    ______ ____
ROOT
ATOM      1  C   UNL     1       7.633   6.774  18.046  0.00  0.00    +0.000 C 
ATOM      2  O   UNL     1       8.106   6.401  19.109  0.00  0.00    +0.000 OA
ATOM      3  N   UNL     1       7.710   8.093  17.624  0.00  0.00    +0.000 N 
ATOM      4  H   UNL     1       7.332   8.285  16.702  0.00  0.00    +0.000 HD
ENDROOT
BRANCH   1   7
ATOM      5  C   UNL     1       5.094   5.097  18.749  0.00  0.00    +0.000 C 
ATOM      6  C   UNL     1       5.741   5.147  17.397  0.00  0.00    +0.000 A 
ATOM      7  C   UNL     1       6.897   5.857  17.078  0.00  0.00    +0.000 A 
ATOM      8  N   UNL     1       7.491   5.805  15.845  0.00  0.00    +0.000 NA
ATOM      9  C   UNL     1       6.932   5.066  14.875  0.00  0.00    +0.000 A 
ATOM     10  C   UNL     1       7.562   5.005  13.643  0.00  0.00    +0.000 A 
ATOM     11  C   UNL     1       7.058   4.245  12.586  0.00  0.00    +0.000 A 
ATOM     12  C   UNL     1       5.871   3.545  12.759  0.00  0.00    +0.000 A 
ATOM     13 CL   UNL     1       5.240   2.589  11.478  0.00  0.00    +0.000 Cl
ATOM     14  C   UNL     1       5.200   3.606  13.974  0.00  0.00    +0.000 A 
ATOM     15  C   UNL     1       5.733   4.347  15.064  0.00  0.00    +0.000 A 
ATOM     16  C   UNL     1       5.157   4.418  16.348  0.00  0.00    +0.000 A 
BRANCH  16  17
ATOM     17  O   UNL     1       3.987   3.759  16.651  0.00  0.00    +0.000 OA
ATOM     18  H   UNL     1       4.027   3.376  17.539  0.00  0.00    +0.000 HD
ENDBRANCH  16  17
ENDBRANCH   1   7
BRANCH   3  19
ATOM     19  C   UNL     1       8.415   9.110  18.383  0.00  0.00    +0.000 C 
BRANCH  19  20
ATOM     20  C   UNL     1       8.852  10.290  17.508  0.00  0.00    +0.000 C 
BRANCH  20  21
ATOM     21  C   UNL     1       9.384  11.446  18.317  0.00  0.00    +0.000 A 
ATOM     22  C   UNL     1      10.382  11.251  19.272  0.00  0.00    +0.000 A 
ATOM     23  C   UNL     1      10.840  12.319  20.061  0.00  0.00    +0.000 A 
ATOM     24  C   UNL     1      10.322  13.619  19.948  0.00  0.00    +0.000 A 
ATOM     25  C   UNL     1       9.336  13.792  18.963  0.00  0.00    +0.000 A 
ATOM     26  C   UNL     1       8.873  12.734  18.160  0.00  0.00    +0.000 A 
BRANCH  24  27
ATOM     27  N   UNL     1      10.724  14.652  20.779  0.00  0.00    +0.000 N 
ATOM     28  C   UNL     1      10.104  14.901  22.078  0.00  0.00    +0.000 C 
ATOM     29  C   UNL     1      11.669  15.677  20.347  0.00  0.00    +0.000 C 
ENDBRANCH  24  27
ENDBRANCH  20  21
ENDBRANCH  19  20
ENDBRANCH   3  19
TORSDOF 6
ENDMDL
MODEL 3
REMARK VINA RESULT:      -7.9      1.829      2.700
REMARK  Name = 
REMARK  9 active torsions:
REMARK  status: ('A' for Active; 'I' for Inactive)
REMARK    1  A    between atoms: C_1  and  C_2
REMARK    2  A    between atoms: C_3  and  C_4
REMARK    3  A    between atoms: N_6  and  C_7
REMARK    4  A    between atoms: C_7  and  C_8
REMARK    5  A    between atoms: C_8  and  C_9
REMARK    6  A    between atoms: C_12  and  N_13
REMARK    7  A    between atoms: N_13  and  C_14
REMARK    8  A    between atoms: N_13  and  C_15
REMARK    9  A    between atoms: C_26  and  O_27
REMARK                            x       y       z     vdW  Elec       q    Type
REMARK                         _______ _______ _______ _____ _____    ______ ____
ROOT
ATOM      1  C   UNL     1       1.726   5.310  20.737  0.00  0.00    +0.000 C 
ATOM      2  O   UNL     1       2.530   4.850  21.533  0.00  0.00    +0.000 OA
ATOM      3  N   UNL     1       0.924   4.502  19.944  0.00  0.00    +0.000 N 
ATOM      4  H   UNL     1       0.253   4.986  19.356  0.00  0.00    +0.000 HD
ENDROOT
BRANCH   1   7
ATOM      5  C   UNL     1       2.852   6.917  18.307  0.00  0.00    +0.000 C 
ATOM      6  C   UNL     1       1.996   7.495  19.395  0.00  0.00    +0.000 A 
ATOM      7  C   UNL     1       1.521   6.802  20.506  0.00  0.00    +0.000 A 
ATOM      8  N   UNL     1       0.808   7.399  21.512  0.00  0.00    +0.000 NA
ATOM      9  C   UNL     1       0.516   8.704  21.427  0.00  0.00    +0.000 A 
ATOM     10  C   UNL     1      -0.183   9.295  22.467  0.00  0.00    +0.000 A 
ATOM     11  C   UNL     1      -0.511  10.652  22.468  0.00  0.00    +0.000 A 
ATOM     12  C   UNL     1      -0.152  11.438  21.379  0.00  0.00    +0.000 A 
ATOM     13 CL   UNL     1      -0.529  13.114  21.365  0.00  0.00    +0.000 Cl
ATOM     14  C   UNL     1       0.527  10.870  20.308  0.00  0.00    +0.000 A 
ATOM     15  C   UNL     1       0.897   9.497  20.325  0.00  0.00    +0.000 A 
ATOM     16  C   UNL     1       1.636   8.850  19.315  0.00  0.00    +0.000 A 
BRANCH  16  17
ATOM     17  O   UNL     1       2.063   9.522  18.191  0.00  0.00    +0.000 OA
ATOM     18  H   UNL     1       1.676   9.136  17.392  0.00  0.00    +0.000 HD
ENDBRANCH  16  17
ENDBRANCH   1   7
BRANCH   3  19
ATOM     19  C   UNL     1       0.935   3.054  20.051  0.00  0.00    +0.000 C 
BRANCH  19  20
ATOM     20  C   UNL     1       1.428   2.380  18.767  0.00  0.00    +0.000 C 
BRANCH  20  21
ATOM     21  C   UNL     1       2.764   2.911  18.309  0.00  0.00    +0.000 A 
ATOM     22  C   UNL     1       3.863   2.917  19.168  0.00  0.00    +0.000 A 
ATOM     23  C   UNL     1       5.092   3.460  18.757  0.00  0.00    +0.000 A 
ATOM     24  C   UNL     1       5.281   4.030  17.488  0.00  0.00    +0.000 A 
ATOM     25  C   UNL     1       4.165   3.989  16.636  0.00  0.00    +0.000 A 
ATOM     26  C   UNL     1       2.930   3.441  17.031  0.00  0.00    +0.000 A 
BRANCH  24  27
ATOM     27  N   UNL     1       6.472   4.630  17.115  0.00  0.00    +0.000 N 
ATOM     28  C   UNL     1       6.934   4.662  15.730  0.00  0.00    +0.000 C 
ATOM     29  C   UNL     1       7.443   5.112  18.093  0.00  0.00    +0.000 C 
ENDBRANCH  24  27
ENDBRANCH  20  21
ENDBRANCH  19  20
ENDBRANCH   3  19
TORSDOF 6
ENDMDL
MODEL 4
REMARK VINA RESULT:      -7.8      6.816     10.095
REMARK  Name = 
REMARK  9 active torsions:
REMARK  status: ('A' for Active; 'I' for Inactive)
REMARK    1  A    between atoms: C_1  and  C_2
REMARK    2  A    between atoms: C_3  and  C_4
REMARK    3  A    between atoms: N_6  and  C_7
REMARK    4  A    between atoms: C_7  and  C_8
REMARK    5  A    between atoms: C_8  and  C_9
REMARK    6  A    between atoms: C_12  and  N_13
REMARK    7  A    between atoms: N_13  and  C_14
REMARK    8  A    between atoms: N_13  and  C_15
REMARK    9  A    between atoms: C_26  and  O_27
REMARK                            x       y       z     vdW  Elec       q    Type
REMARK                         _______ _______ _______ _____ _____    ______ ____
ROOT
ATOM      1  C   UNL     1       7.630   6.896  17.992  0.00  0.00    +0.000 C 
ATOM      2  O   UNL     1       8.137   6.536  19.043  0.00  0.00    +0.000 OA
ATOM      3  N   UNL     1       7.654   8.218  17.572  0.00  0.00    +0.000 N 
ATOM      4  H   UNL     1       7.250   8.400  16.659  0.00  0.00    +0.000 HD
ENDROOT
BRANCH   1   7
ATOM      5  C   UNL     1       5.095   5.219  18.712  0.00  0.00    +0.000 C 
ATOM      6  C   UNL     1       5.749   5.248  17.363  0.00  0.00    +0.000 A 
ATOM      7  C   UNL     1       6.903   5.958  17.036  0.00  0.00    +0.000 A 
ATOM      8  N   UNL     1       7.503   5.886  15.808  0.00  0.00    +0.000 NA
ATOM      9  C   UNL     1       6.953   5.127  14.849  0.00  0.00    +0.000 A 
ATOM     10  C   UNL     1       7.590   5.047  13.621  0.00  0.00    +0.000 A 
ATOM     11  C   UNL     1       7.096   4.265  12.576  0.00  0.00    +0.000 A 
ATOM     12  C   UNL     1       5.911   3.562  12.755  0.00  0.00    +0.000 A 
ATOM     13 CL   UNL     1       5.292   2.580  11.489  0.00  0.00    +0.000 Cl
ATOM     14  C   UNL     1       5.233   3.642  13.966  0.00  0.00    +0.000 A 
ATOM     15  C   UNL     1       5.758   4.405  15.045  0.00  0.00    +0.000 A 
ATOM     16  C   UNL     1       5.174   4.497  16.324  0.00  0.00    +0.000 A 
BRANCH  16  17
ATOM     17  O   UNL     1       4.006   3.837  16.633  0.00  0.00    +0.000 OA
ATOM     18  H   UNL     1       3.629   3.418  15.846  0.00  0.00    +0.000 HD
ENDBRANCH  16  17
ENDBRANCH   1   7
BRANCH   3  19
ATOM     19  C   UNL     1       8.342   9.256  18.319  0.00  0.00    +0.000 C 
BRANCH  19  20
ATOM     20  C   UNL     1       8.581  10.515  17.479  0.00  0.00    +0.000 C 
BRANCH  20  21
ATOM     21  C   UNL     1       9.193  11.638  18.279  0.00  0.00    +0.000 A 
ATOM     22  C   UNL     1       8.705  12.940  18.172  0.00  0.00    +0.000 A 
ATOM     23  C   UNL     1       9.310  13.993  18.877  0.00  0.00    +0.000 A 
ATOM     24  C   UNL     1      10.429  13.806  19.705  0.00  0.00    +0.000 A 
ATOM     25  C   UNL     1      10.885  12.481  19.812  0.00  0.00    +0.000 A 
ATOM     26  C   UNL     1      10.284  11.415  19.118  0.00  0.00    +0.000 A 
BRANCH  24  27
ATOM     27  N   UNL     1      11.067  14.859  20.339  0.00  0.00    +0.000 N 
ATOM     28  C   UNL     1      12.333  15.411  19.863  0.00  0.00    +0.000 C 
ATOM     29  C   UNL     1      10.621  15.378  21.629  0.00  0.00    +0.000 C 
ENDBRANCH  24  27
ENDBRANCH  20  21
ENDBRANCH  19  20
ENDBRANCH   3  19
TORSDOF 6
ENDMDL
MODEL 5
REMARK VINA RESULT:      -7.8      5.673      7.828
REMARK  Name = 
REMARK  9 active torsions:
REMARK  status: ('A' for Active; 'I' for Inactive)
REMARK    1  A    between atoms: C_1  and  C_2
REMARK    2  A    between atoms: C_3  and  C_4
REMARK    3  A    between atoms: N_6  and  C_7
REMARK    4  A    between atoms: C_7  and  C_8
REMARK    5  A    between atoms: C_8  and  C_9
REMARK    6  A    between atoms: C_12  and  N_13
REMARK    7  A    between atoms: N_13  and  C_14
REMARK    8  A    between atoms: N_13  and  C_15
REMARK    9  A    between atoms: C_26  and  O_27
REMARK                            x       y       z     vdW  Elec       q    Type
REMARK                         _______ _______ _______ _____ _____    ______ ____
ROOT
ATOM      1  C   UNL     1       5.870   6.702  16.985  0.00  0.00    +0.000 C 
ATOM      2  O   UNL     1       5.669   7.154  15.868  0.00  0.00    +0.000 OA
ATOM      3  N   UNL     1       6.896   7.161  17.797  0.00  0.00    +0.000 N 
ATOM      4  H   UNL     1       6.941   6.755  18.726  0.00  0.00    +0.000 HD
ENDROOT
BRANCH   1   7
ATOM      5  C   UNL     1       5.694   3.784  15.886  0.00  0.00    +0.000 C 
ATOM      6  C   UNL     1       5.009   4.275  17.126  0.00  0.00    +0.000 A 
ATOM      7  C   UNL     1       5.044   5.583  17.607  0.00  0.00    +0.000 A 
ATOM      8  N   UNL     1       4.335   5.996  18.703  0.00  0.00    +0.000 NA
ATOM      9  C   UNL     1       3.590   5.109  19.378  0.00  0.00    +0.000 A 
ATOM     10  C   UNL     1       2.859   5.553  20.468  0.00  0.00    +0.000 A 
ATOM     11  C   UNL     1       2.043   4.701  21.215  0.00  0.00    +0.000 A 
ATOM     12  C   UNL     1       1.978   3.355  20.876  0.00  0.00    +0.000 A 
ATOM     13 CL   UNL     1       0.969   2.289  21.769  0.00  0.00    +0.000 Cl
ATOM     14  C   UNL     1       2.720   2.872  19.804  0.00  0.00    +0.000 A 
ATOM     15  C   UNL     1       3.518   3.748  19.019  0.00  0.00    +0.000 A 
ATOM     16  C   UNL     1       4.255   3.362  17.881  0.00  0.00    +0.000 A 
BRANCH  16  17
ATOM     17  O   UNL     1       4.263   2.060  17.434  0.00  0.00    +0.000 OA
ATOM     18  H   UNL     1       4.613   1.465  18.113  0.00  0.00    +0.000 HD
ENDBRANCH  16  17
ENDBRANCH   1   7
BRANCH   3  19
ATOM     19  C   UNL     1       7.763   8.258  17.405  0.00  0.00    +0.000 C 
BRANCH  19  20
ATOM     20  C   UNL     1       8.708   8.685  18.533  0.00  0.00    +0.000 C 
BRANCH  20  21
ATOM     21  C   UNL     1       8.911  10.178  18.586  0.00  0.00    +0.000 A 
ATOM     22  C   UNL     1       8.280  11.019  17.669  0.00  0.00    +0.000 A 
ATOM     23  C   UNL     1       8.512  12.404  17.686  0.00  0.00    +0.000 A 
ATOM     24  C   UNL     1       9.386  13.013  18.601  0.00  0.00    +0.000 A 
ATOM     25  C   UNL     1       9.989  12.147  19.528  0.00  0.00    +0.000 A 
ATOM     26  C   UNL     1       9.760  10.758  19.527  0.00  0.00    +0.000 A 
BRANCH  24  27
ATOM     27  N   UNL     1       9.668  14.369  18.567  0.00  0.00    +0.000 N 
ATOM     28  C   UNL     1      10.900  14.928  19.116  0.00  0.00    +0.000 C 
ATOM     29  C   UNL     1       8.681  15.360  18.147  0.00  0.00    +0.000 C 
ENDBRANCH  24  27
ENDBRANCH  20  21
ENDBRANCH  19  20
ENDBRANCH   3  19
TORSDOF 6
ENDMDL
MODEL 6
REMARK VINA RESULT:      -7.8      4.316      9.551
REMARK  Name = 
REMARK  9 active torsions:
REMARK  status: ('A' for Active; 'I' for Inactive)
REMARK    1  A    between atoms: C_1  and  C_2
REMARK    2  A    between atoms: C_3  and  C_4
REMARK    3  A    between atoms: N_6  and  C_7
REMARK    4  A    between atoms: C_7  and  C_8
REMARK    5  A    between atoms: C_8  and  C_9
REMARK    6  A    between atoms: C_12  and  N_13
REMARK    7  A    between atoms: N_13  and  C_14
REMARK    8  A    between atoms: N_13  and  C_15
REMARK    9  A    between atoms: C_26  and  O_27
REMARK                            x       y       z     vdW  Elec       q    Type
REMARK                         _______ _______ _______ _____ _____    ______ ____
ROOT
ATOM      1  C   UNL     1       1.698   7.853  20.143  0.00  0.00    +0.000 C 
ATOM      2  O   UNL     1       1.582   7.841  21.359  0.00  0.00    +0.000 OA
ATOM      3  N   UNL     1       1.193   8.881  19.361  0.00  0.00    +0.000 N 
ATOM      4  H   UNL     1       1.391   8.820  18.367  0.00  0.00    +0.000 HD
ENDROOT
BRANCH   1   7
ATOM      5  C   UNL     1       1.349   4.792  20.653  0.00  0.00    +0.000 C 
ATOM      6  C   UNL     1       2.186   5.389  19.562  0.00  0.00    +0.000 A 
ATOM      7  C   UNL     1       2.385   6.751  19.346  0.00  0.00    +0.000 A 
ATOM      8  N   UNL     1       3.225   7.242  18.381  0.00  0.00    +0.000 NA
ATOM      9  C   UNL     1       3.871   6.388  17.575  0.00  0.00    +0.000 A 
ATOM     10  C   UNL     1       4.736   6.902  16.623  0.00  0.00    +0.000 A 
ATOM     11  C   UNL     1       5.462   6.084  15.756  0.00  0.00    +0.000 A 
ATOM     12  C   UNL     1       5.296   4.706  15.826  0.00  0.00    +0.000 A 
ATOM     13 CL   UNL     1       6.192   3.677  14.781  0.00  0.00    +0.000 Cl
ATOM     14  C   UNL     1       4.416   4.159  16.752  0.00  0.00    +0.000 A 
ATOM     15  C   UNL     1       3.708   4.990  17.662  0.00  0.00    +0.000 A 
ATOM     16  C   UNL     1       2.843   4.523  18.672  0.00  0.00    +0.000 A 
BRANCH  16  17
ATOM     17  O   UNL     1       2.605   3.179  18.854  0.00  0.00    +0.000 OA
ATOM     18  H   UNL     1       2.615   2.710  18.007  0.00  0.00    +0.000 HD
ENDBRANCH  16  17
ENDBRANCH   1   7
BRANCH   3  19
ATOM     19  C   UNL     1       0.549  10.048  19.936  0.00  0.00    +0.000 C 
BRANCH  19  20
ATOM     20  C   UNL     1       0.249  11.124  18.887  0.00  0.00    +0.000 C 
BRANCH  20  21
ATOM     21  C   UNL     1      -1.229  11.302  18.645  0.00  0.00    +0.000 A 
ATOM     22  C   UNL     1      -2.018  12.023  19.540  0.00  0.00    +0.000 A 
ATOM     23  C   UNL     1      -3.404  12.143  19.340  0.00  0.00    +0.000 A 
ATOM     24  C   UNL     1      -4.066  11.546  18.256  0.00  0.00    +0.000 A 
ATOM     25  C   UNL     1      -3.244  10.846  17.357  0.00  0.00    +0.000 A 
ATOM     26  C   UNL     1      -1.854  10.724  17.540  0.00  0.00    +0.000 A 
BRANCH  24  27
ATOM     27  N   UNL     1      -5.442  11.606  18.104  0.00  0.00    +0.000 N 
ATOM     28  C   UNL     1      -6.343  10.640  18.728  0.00  0.00    +0.000 C 
ATOM     29  C   UNL     1      -6.084  12.523  17.167  0.00  0.00    +0.000 C 
ENDBRANCH  24  27
ENDBRANCH  20  21
ENDBRANCH  19  20
ENDBRANCH   3  19
TORSDOF 6
ENDMDL
MODEL 7
REMARK VINA RESULT:      -7.7      0.556      1.038
REMARK  Name = 
REMARK  9 active torsions:
REMARK  status: ('A' for Active; 'I' for Inactive)
REMARK    1  A    between atoms: C_1  and  C_2
REMARK    2  A    between atoms: C_3  and  C_4
REMARK    3  A    between atoms: N_6  and  C_7
REMARK    4  A    between atoms: C_7  and  C_8
REMARK    5  A    between atoms: C_8  and  C_9
REMARK    6  A    between atoms: C_12  and  N_13
REMARK    7  A    between atoms: N_13  and  C_14
REMARK    8  A    between atoms: N_13  and  C_15
REMARK    9  A    between atoms: C_26  and  O_27
REMARK                            x       y       z     vdW  Elec       q    Type
REMARK                         _______ _______ _______ _____ _____    ______ ____
ROOT
ATOM      1  C   UNL     1       2.698   5.974  19.404  0.00  0.00    +0.000 C 
ATOM      2  O   UNL     1       2.107   5.002  18.959  0.00  0.00    +0.000 OA
ATOM      3  N   UNL     1       4.036   5.924  19.768  0.00  0.00    +0.000 N 
ATOM      4  H   UNL     1       4.443   6.802  20.076  0.00  0.00    +0.000 HD
ENDROOT
BRANCH   1   7
ATOM      5  C   UNL     1       2.662   8.308  17.330  0.00  0.00    +0.000 C 
ATOM      6  C   UNL     1       2.004   8.348  18.677  0.00  0.00    +0.000 A 
ATOM      7  C   UNL     1       2.046   7.332  19.630  0.00  0.00    +0.000 A 
ATOM      8  N   UNL     1       1.493   7.452  20.877  0.00  0.00    +0.000 NA
ATOM      9  C   UNL     1       0.850   8.581  21.206  0.00  0.00    +0.000 A 
ATOM     10  C   UNL     1       0.321   8.694  22.482  0.00  0.00    +0.000 A 
ATOM     11  C   UNL     1      -0.346   9.842  22.913  0.00  0.00    +0.000 A 
ATOM     12  C   UNL     1      -0.515  10.901  22.029  0.00  0.00    +0.000 A 
ATOM     13 CL   UNL     1      -1.318  12.331  22.542  0.00  0.00    +0.000 Cl
ATOM     14  C   UNL     1      -0.019  10.809  20.734  0.00  0.00    +0.000 A 
ATOM     15  C   UNL     1       0.697   9.657  20.308  0.00  0.00    +0.000 A 
ATOM     16  C   UNL     1       1.286   9.500  19.037  0.00  0.00    +0.000 A 
BRANCH  16  17
ATOM     17  O   UNL     1       1.202  10.483  18.077  0.00  0.00    +0.000 OA
ATOM     18  H   UNL     1       1.068  11.351  18.483  0.00  0.00    +0.000 HD
ENDBRANCH  16  17
ENDBRANCH   1   7
BRANCH   3  19
ATOM     19  C   UNL     1       4.847   4.734  19.582  0.00  0.00    +0.000 C 
BRANCH  19  20
ATOM     20  C   UNL     1       6.182   5.041  18.897  0.00  0.00    +0.000 C 
BRANCH  20  21
ATOM     21  C   UNL     1       6.141   4.793  17.409  0.00  0.00    +0.000 A 
ATOM     22  C   UNL     1       5.138   4.006  16.844  0.00  0.00    +0.000 A 
ATOM     23  C   UNL     1       5.132   3.732  15.466  0.00  0.00    +0.000 A 
ATOM     24  C   UNL     1       6.122   4.214  14.594  0.00  0.00    +0.000 A 
ATOM     25  C   UNL     1       7.106   5.023  15.187  0.00  0.00    +0.000 A 
ATOM     26  C   UNL     1       7.120   5.312  16.564  0.00  0.00    +0.000 A 
BRANCH  24  27
ATOM     27  N   UNL     1       6.152   3.880  13.250  0.00  0.00    +0.000 N 
ATOM     28  C   UNL     1       7.290   4.192  12.390  0.00  0.00    +0.000 C 
ATOM     29  C   UNL     1       4.982   3.359  12.550  0.00  0.00    +0.000 C 
ENDBRANCH  24  27
ENDBRANCH  20  21
ENDBRANCH  19  20
ENDBRANCH   3  19
TORSDOF 6
ENDMDL
MODEL 8
REMARK VINA RESULT:      -7.7      4.115      8.923
REMARK  Name = 
REMARK  9 active torsions:
REMARK  status: ('A' for Active; 'I' for Inactive)
REMARK    1  A    between atoms: C_1  and  C_2
REMARK    2  A    between atoms: C_3  and  C_4
REMARK    3  A    between atoms: N_6  and  C_7
REMARK    4  A    between atoms: C_7  and  C_8
REMARK    5  A    between atoms: C_8  and  C_9
REMARK    6  A    between atoms: C_12  and  N_13
REMARK    7  A    between atoms: N_13  and  C_14
REMARK    8  A    between atoms: N_13  and  C_15
REMARK    9  A    between atoms: C_26  and  O_27
REMARK                            x       y       z     vdW  Elec       q    Type
REMARK                         _______ _______ _______ _____ _____    ______ ____
ROOT
ATOM      1  C   UNL     1       1.736   6.850  20.197  0.00  0.00    +0.000 C 
ATOM      2  O   UNL     1       1.300   6.476  21.275  0.00  0.00    +0.000 OA
ATOM      3  N   UNL     1       1.606   8.160  19.760  0.00  0.00    +0.000 N 
ATOM      4  H   UNL     1       2.050   8.377  18.874  0.00  0.00    +0.000 HD
ENDROOT
BRANCH   1   7
ATOM      5  C   UNL     1       1.290   3.768  19.969  0.00  0.00    +0.000 C 
ATOM      6  C   UNL     1       2.204   4.568  19.092  0.00  0.00    +0.000 A 
ATOM      7  C   UNL     1       2.446   5.936  19.207  0.00  0.00    +0.000 A 
ATOM      8  N   UNL     1       3.353   6.604  18.428  0.00  0.00    +0.000 NA
ATOM      9  C   UNL     1       4.029   5.935  17.483  0.00  0.00    +0.000 A 
ATOM     10  C   UNL     1       4.961   6.623  16.724  0.00  0.00    +0.000 A 
ATOM     11  C   UNL     1       5.721   5.999  15.733  0.00  0.00    +0.000 A 
ATOM     12  C   UNL     1       5.522   4.648  15.474  0.00  0.00    +0.000 A 
ATOM     13 CL   UNL     1       6.458   3.854  14.272  0.00  0.00    +0.000 Cl
ATOM     14  C   UNL     1       4.576   3.935  16.201  0.00  0.00    +0.000 A 
ATOM     15  C   UNL     1       3.831   4.561  17.238  0.00  0.00    +0.000 A 
ATOM     16  C   UNL     1       2.896   3.906  18.064  0.00  0.00    +0.000 A 
BRANCH  16  17
ATOM     17  O   UNL     1       2.618   2.566  17.918  0.00  0.00    +0.000 OA
ATOM     18  H   UNL     1       2.673   2.302  16.988  0.00  0.00    +0.000 HD
ENDBRANCH  16  17
ENDBRANCH   1   7
BRANCH   3  19
ATOM     19  C   UNL     1       1.004   9.196  20.582  0.00  0.00    +0.000 C 
BRANCH  19  20
ATOM     20  C   UNL     1       0.884  10.530  19.839  0.00  0.00    +0.000 C 
BRANCH  20  21
ATOM     21  C   UNL     1      -0.389  10.634  19.035  0.00  0.00    +0.000 A 
ATOM     22  C   UNL     1      -0.587   9.840  17.906  0.00  0.00    +0.000 A 
ATOM     23  C   UNL     1      -1.750   9.975  17.129  0.00  0.00    +0.000 A 
ATOM     24  C   UNL     1      -2.755  10.908  17.428  0.00  0.00    +0.000 A 
ATOM     25  C   UNL     1      -2.541  11.677  18.583  0.00  0.00    +0.000 A 
ATOM     26  C   UNL     1      -1.385  11.547  19.376  0.00  0.00    +0.000 A 
BRANCH  24  27
ATOM     27  N   UNL     1      -3.864  11.088  16.617  0.00  0.00    +0.000 N 
ATOM     28  C   UNL     1      -3.892  10.658  15.221  0.00  0.00    +0.000 C 
ATOM     29  C   UNL     1      -5.017  11.879  17.036  0.00  0.00    +0.000 C 
ENDBRANCH  24  27
ENDBRANCH  20  21
ENDBRANCH  19  20
ENDBRANCH   3  19
TORSDOF 6
ENDMDL
MODEL 9
REMARK VINA RESULT:      -7.7      6.271      8.361
REMARK  Name = 
REMARK  9 active torsions:
REMARK  status: ('A' for Active; 'I' for Inactive)
REMARK    1  A    between atoms: C_1  and  C_2
REMARK    2  A    between atoms: C_3  and  C_4
REMARK    3  A    between atoms: N_6  and  C_7
REMARK    4  A    between atoms: C_7  and  C_8
REMARK    5  A    between atoms: C_8  and  C_9
REMARK    6  A    between atoms: C_12  and  N_13
REMARK    7  A    between atoms: N_13  and  C_14
REMARK    8  A    between atoms: N_13  and  C_15
REMARK    9  A    between atoms: C_26  and  O_27
REMARK                            x       y       z     vdW  Elec       q    Type
REMARK                         _______ _______ _______ _____ _____    ______ ____
ROOT
ATOM      1  C   UNL     1       7.463   6.725  18.172  0.00  0.00    +0.000 C 
ATOM      2  O   UNL     1       8.396   6.537  18.938  0.00  0.00    +0.000 OA
ATOM      3  N   UNL     1       7.361   7.871  17.398  0.00  0.00    +0.000 N 
ATOM      4  H   UNL     1       6.574   7.903  16.756  0.00  0.00    +0.000 HD
ENDROOT
BRANCH   1   7
ATOM      5  C   UNL     1       7.270   4.582  15.908  0.00  0.00    +0.000 C 
ATOM      6  C   UNL     1       6.257   4.773  16.997  0.00  0.00    +0.000 A 
ATOM      7  C   UNL     1       6.307   5.750  17.989  0.00  0.00    +0.000 A 
ATOM      8  N   UNL     1       5.313   5.930  18.913  0.00  0.00    +0.000 NA
ATOM      9  C   UNL     1       4.246   5.118  18.900  0.00  0.00    +0.000 A 
ATOM     10  C   UNL     1       3.239   5.333  19.826  0.00  0.00    +0.000 A 
ATOM     11  C   UNL     1       2.086   4.547  19.869  0.00  0.00    +0.000 A 
ATOM     12  C   UNL     1       1.949   3.494  18.973  0.00  0.00    +0.000 A 
ATOM     13 CL   UNL     1       0.532   2.523  18.995  0.00  0.00    +0.000 Cl
ATOM     14  C   UNL     1       2.954   3.235  18.049  0.00  0.00    +0.000 A 
ATOM     15  C   UNL     1       4.109   4.060  17.978  0.00  0.00    +0.000 A 
ATOM     16  C   UNL     1       5.148   3.912  17.037  0.00  0.00    +0.000 A 
BRANCH  16  17
ATOM     17  O   UNL     1       5.124   2.915  16.088  0.00  0.00    +0.000 OA
ATOM     18  H   UNL     1       4.553   2.185  16.369  0.00  0.00    +0.000 HD
ENDBRANCH  16  17
ENDBRANCH   1   7
BRANCH   3  19
ATOM     19  C   UNL     1       8.388   8.898  17.392  0.00  0.00    +0.000 C 
BRANCH  19  20
ATOM     20  C   UNL     1       8.596   9.520  18.776  0.00  0.00    +0.000 C 
BRANCH  20  21
ATOM     21  C   UNL     1       9.268  10.868  18.711  0.00  0.00    +0.000 A 
ATOM     22  C   UNL     1       8.789  11.865  17.862  0.00  0.00    +0.000 A 
ATOM     23  C   UNL     1       9.448  13.102  17.763  0.00  0.00    +0.000 A 
ATOM     24  C   UNL     1      10.612  13.399  18.489  0.00  0.00    +0.000 A 
ATOM     25  C   UNL     1      11.059  12.387  19.355  0.00  0.00    +0.000 A 
ATOM     26  C   UNL     1      10.405  11.146  19.470  0.00  0.00    +0.000 A 
BRANCH  24  27
ATOM     27  N   UNL     1      11.299  14.592  18.333  0.00  0.00    +0.000 N 
ATOM     28  C   UNL     1      12.333  14.775  17.319  0.00  0.00    +0.000 C 
ATOM     29  C   UNL     1      11.173  15.695  19.282  0.00  0.00    +0.000 C 
ENDBRANCH  24  27
ENDBRANCH  20  21
ENDBRANCH  19  20
ENDBRANCH   3  19
TORSDOF 6
ENDMDL
