MODEL 1
REMARK VINA RESULT:      -7.8      0.000      0.000
REMARK  Name = 
REMARK  1 active torsions:
REMARK  status: ('A' for Active; 'I' for Inactive)
REMARK    1  A    between atoms: C_4  and  C_5
REMARK                            x       y       z     vdW  Elec       q    Type
REMARK                         _______ _______ _______ _____ _____    ______ ____
ROOT
ATOM      1  O   UNL     1       7.676   6.435  16.363  0.00  0.00    +0.000 OA
ATOM      2  C   UNL     1       6.826   5.600  16.071  0.00  0.00    +0.000 A 
ATOM      3  O   UNL     1       5.888   5.176  16.970  0.00  0.00    +0.000 OA
ATOM      4  C   UNL     1       4.912   4.205  16.643  0.00  0.00    +0.000 A 
ATOM      5  C   UNL     1       4.853   3.634  15.434  0.00  0.00    +0.000 A 
ATOM      6  C   UNL     1       5.802   4.045  14.413  0.00  0.00    +0.000 A 
ATOM      7  C   UNL     1       5.750   3.491  13.129  0.00  0.00    +0.000 A 
ATOM      8  C   UNL     1       6.668   3.889  12.158  0.00  0.00    +0.000 A 
ATOM      9  C   UNL     1       7.640   4.841  12.462  0.00  0.00    +0.000 A 
ATOM     10  C   UNL     1       7.694   5.400  13.739  0.00  0.00    +0.000 A 
ATOM     11  C   UNL     1       6.771   5.002  14.717  0.00  0.00    +0.000 A 
ENDROOT
BRANCH   4  12
ATOM     12  C   UNL     1       3.980   3.864  17.739  0.00  0.00    +0.000 A 
ATOM     13  C   UNL     1       2.592   3.902  17.531  0.00  0.00    +0.000 A 
ATOM     14  C   UNL     1       1.702   3.575  18.562  0.00  0.00    +0.000 A 
ATOM     15  C   UNL     1       2.194   3.200  19.810  0.00  0.00    +0.000 A 
ATOM     16 CL   UNL     1       1.106   2.793  21.076  0.00  0.00    +0.000 Cl
ATOM     17  C   UNL     1       3.566   3.147  20.035  0.00  0.00    +0.000 A 
ATOM     18  C   UNL     1       4.451   3.472  19.003  0.00  0.00    +0.000 A 
ENDBRANCH   4  12
TORSDOF 1
ENDMDL
MODEL 2
REMARK VINA RESULT:      -7.8      0.162      1.132
REMARK  Name = 
REMARK  1 active torsions:
REMARK  status: ('A' for Active; 'I' for Inactive)
REMARK    1  A    between atoms: C_4  and  C_5
REMARK                            x       y       z     vdW  Elec       q    Type
REMARK                         _______ _______ _______ _____ _____    ______ ____
ROOT
ATOM      1  O   UNL     1       7.657   6.503  16.368  0.00  0.00    +0.000 OA
ATOM      2  C   UNL     1       6.813   5.659  16.086  0.00  0.00    +0.000 A 
ATOM      3  O   UNL     1       5.878   5.239  16.991  0.00  0.00    +0.000 OA
ATOM      4  C   UNL     1       4.909   4.257  16.677  0.00  0.00    +0.000 A 
ATOM      5  C   UNL     1       4.854   3.671  15.474  0.00  0.00    +0.000 A 
ATOM      6  C   UNL     1       5.800   4.075  14.449  0.00  0.00    +0.000 A 
ATOM      7  C   UNL     1       5.752   3.504  13.171  0.00  0.00    +0.000 A 
ATOM      8  C   UNL     1       6.667   3.896  12.195  0.00  0.00    +0.000 A 
ATOM      9  C   UNL     1       7.632   4.859  12.487  0.00  0.00    +0.000 A 
ATOM     10  C   UNL     1       7.683   5.434  13.757  0.00  0.00    +0.000 A 
ATOM     11  C   UNL     1       6.762   5.043  14.740  0.00  0.00    +0.000 A 
ENDROOT
BRANCH   4  12
ATOM     12  C   UNL     1       3.979   3.923  17.776  0.00  0.00    +0.000 A 
ATOM     13  C   UNL     1       4.448   3.285  18.935  0.00  0.00    +0.000 A 
ATOM     14  C   UNL     1       3.575   2.970  19.984  0.00  0.00    +0.000 A 
ATOM     15  C   UNL     1       2.225   3.296  19.885  0.00  0.00    +0.000 A 
ATOM     16 CL   UNL     1       1.151   2.916  21.172  0.00  0.00    +0.000 Cl
ATOM     17  C   UNL     1       1.740   3.937  18.749  0.00  0.00    +0.000 A 
ATOM     18  C   UNL     1       2.615   4.253  17.705  0.00  0.00    +0.000 A 
ENDBRANCH   4  12
TORSDOF 1
ENDMDL
MODEL 3
REMARK VINA RESULT:      -7.8      3.062      6.841
REMARK  Name = 
REMARK  1 active torsions:
REMARK  status: ('A' for Active; 'I' for Inactive)
REMARK    1  A    between atoms: C_4  and  C_5
REMARK                            x       y       z     vdW  Elec       q    Type
REMARK                         _______ _______ _______ _____ _____    ______ ____
ROOT
ATOM      1  O   UNL     1       5.257   1.834  20.653  0.00  0.00    +0.000 OA
ATOM      2  C   UNL     1       4.689   2.560  19.844  0.00  0.00    +0.000 A 
ATOM      3  O   UNL     1       5.305   2.997  18.704  0.00  0.00    +0.000 OA
ATOM      4  C   UNL     1       4.659   3.844  17.772  0.00  0.00    +0.000 A 
ATOM      5  C   UNL     1       3.405   4.278  17.955  0.00  0.00    +0.000 A 
ATOM      6  C   UNL     1       2.673   3.844  19.133  0.00  0.00    +0.000 A 
ATOM      7  C   UNL     1       1.351   4.254  19.340  0.00  0.00    +0.000 A 
ATOM      8  C   UNL     1       0.658   3.834  20.475  0.00  0.00    +0.000 A 
ATOM      9  C   UNL     1       1.278   3.003  21.406  0.00  0.00    +0.000 A 
ATOM     10  C   UNL     1       2.595   2.587  21.203  0.00  0.00    +0.000 A 
ATOM     11  C   UNL     1       3.293   3.007  20.061  0.00  0.00    +0.000 A 
ENDROOT
BRANCH   4  12
ATOM     12  C   UNL     1       5.476   4.219  16.599  0.00  0.00    +0.000 A 
ATOM     13  C   UNL     1       6.662   4.951  16.763  0.00  0.00    +0.000 A 
ATOM     14  C   UNL     1       7.445   5.306  15.657  0.00  0.00    +0.000 A 
ATOM     15  C   UNL     1       7.050   4.927  14.377  0.00  0.00    +0.000 A 
ATOM     16 CL   UNL     1       8.010   5.356  13.018  0.00  0.00    +0.000 Cl
ATOM     17  C   UNL     1       5.881   4.194  14.192  0.00  0.00    +0.000 A 
ATOM     18  C   UNL     1       5.104   3.838  15.299  0.00  0.00    +0.000 A 
ENDBRANCH   4  12
TORSDOF 1
ENDMDL
MODEL 4
REMARK VINA RESULT:      -7.8      3.066      6.763
REMARK  Name = 
REMARK  1 active torsions:
REMARK  status: ('A' for Active; 'I' for Inactive)
REMARK    1  A    between atoms: C_4  and  C_5
REMARK                            x       y       z     vdW  Elec       q    Type
REMARK                         _______ _______ _______ _____ _____    ______ ____
ROOT
ATOM      1  O   UNL     1       5.167   1.814  20.618  0.00  0.00    +0.000 OA
ATOM      2  C   UNL     1       4.627   2.563  19.811  0.00  0.00    +0.000 A 
ATOM      3  O   UNL     1       5.264   2.992  18.681  0.00  0.00    +0.000 OA
ATOM      4  C   UNL     1       4.650   3.865  17.751  0.00  0.00    +0.000 A 
ATOM      5  C   UNL     1       3.408   4.333  17.928  0.00  0.00    +0.000 A 
ATOM      6  C   UNL     1       2.654   3.909  19.095  0.00  0.00    +0.000 A 
ATOM      7  C   UNL     1       1.342   4.355  19.294  0.00  0.00    +0.000 A 
ATOM      8  C   UNL     1       0.628   3.945  20.420  0.00  0.00    +0.000 A 
ATOM      9  C   UNL     1       1.217   3.088  21.349  0.00  0.00    +0.000 A 
ATOM     10  C   UNL     1       2.523   2.638  21.153  0.00  0.00    +0.000 A 
ATOM     11  C   UNL     1       3.242   3.047  20.021  0.00  0.00    +0.000 A 
ENDROOT
BRANCH   4  12
ATOM     12  C   UNL     1       5.487   4.227  16.588  0.00  0.00    +0.000 A 
ATOM     13  C   UNL     1       5.100   3.860  15.289  0.00  0.00    +0.000 A 
ATOM     14  C   UNL     1       5.885   4.204  14.182  0.00  0.00    +0.000 A 
ATOM     15  C   UNL     1       7.063   4.924  14.364  0.00  0.00    +0.000 A 
ATOM     16 CL   UNL     1       8.027   5.352  13.006  0.00  0.00    +0.000 Cl
ATOM     17  C   UNL     1       7.462   5.305  15.641  0.00  0.00    +0.000 A 
ATOM     18  C   UNL     1       6.674   4.963  16.744  0.00  0.00    +0.000 A 
ENDBRANCH   4  12
TORSDOF 1
ENDMDL
MODEL 5
REMARK VINA RESULT:      -7.4      4.099      4.986
REMARK  Name = 
REMARK  1 active torsions:
REMARK  status: ('A' for Active; 'I' for Inactive)
REMARK    1  A    between atoms: C_4  and  C_5
REMARK                            x       y       z     vdW  Elec       q    Type
REMARK                         _______ _______ _______ _____ _____    ______ ____
ROOT
ATOM      1  O   UNL     1       2.525   3.318  17.489  0.00  0.00    +0.000 OA
ATOM      2  C   UNL     1       3.027   4.437  17.488  0.00  0.00    +0.000 A 
ATOM      3  O   UNL     1       2.409   5.509  18.068  0.00  0.00    +0.000 OA
ATOM      4  C   UNL     1       2.977   6.805  18.061  0.00  0.00    +0.000 A 
ATOM      5  C   UNL     1       4.153   7.063  17.474  0.00  0.00    +0.000 A 
ATOM      6  C   UNL     1       4.884   5.974  16.851  0.00  0.00    +0.000 A 
ATOM      7  C   UNL     1       6.131   6.202  16.256  0.00  0.00    +0.000 A 
ATOM      8  C   UNL     1       6.823   5.150  15.657  0.00  0.00    +0.000 A 
ATOM      9  C   UNL     1       6.278   3.867  15.651  0.00  0.00    +0.000 A 
ATOM     10  C   UNL     1       5.039   3.632  16.247  0.00  0.00    +0.000 A 
ATOM     11  C   UNL     1       4.341   4.688  16.851  0.00  0.00    +0.000 A 
ENDROOT
BRANCH   4  12
ATOM     12  C   UNL     1       2.169   7.845  18.732  0.00  0.00    +0.000 A 
ATOM     13  C   UNL     1       1.674   8.941  18.008  0.00  0.00    +0.000 A 
ATOM     14  C   UNL     1       0.903   9.927  18.636  0.00  0.00    +0.000 A 
ATOM     15  C   UNL     1       0.616   9.822  19.994  0.00  0.00    +0.000 A 
ATOM     16 CL   UNL     1      -0.334  11.029  20.767  0.00  0.00    +0.000 Cl
ATOM     17  C   UNL     1       1.089   8.740  20.729  0.00  0.00    +0.000 A 
ATOM     18  C   UNL     1       1.856   7.756  20.099  0.00  0.00    +0.000 A 
ENDBRANCH   4  12
TORSDOF 1
ENDMDL
MODEL 6
REMARK VINA RESULT:      -7.4      4.107      5.073
REMARK  Name = 
REMARK  1 active torsions:
REMARK  status: ('A' for Active; 'I' for Inactive)
REMARK    1  A    between atoms: C_4  and  C_5
REMARK                            x       y       z     vdW  Elec       q    Type
REMARK                         _______ _______ _______ _____ _____    ______ ____
ROOT
ATOM      1  O   UNL     1       2.543   3.324  17.531  0.00  0.00    +0.000 OA
ATOM      2  C   UNL     1       3.037   4.447  17.522  0.00  0.00    +0.000 A 
ATOM      3  O   UNL     1       2.419   5.515  18.111  0.00  0.00    +0.000 OA
ATOM      4  C   UNL     1       2.978   6.816  18.094  0.00  0.00    +0.000 A 
ATOM      5  C   UNL     1       4.143   7.082  17.490  0.00  0.00    +0.000 A 
ATOM      6  C   UNL     1       4.873   5.997  16.857  0.00  0.00    +0.000 A 
ATOM      7  C   UNL     1       6.109   6.234  16.243  0.00  0.00    +0.000 A 
ATOM      8  C   UNL     1       6.800   5.187  15.635  0.00  0.00    +0.000 A 
ATOM      9  C   UNL     1       6.265   3.899  15.638  0.00  0.00    +0.000 A 
ATOM     10  C   UNL     1       5.036   3.656  16.252  0.00  0.00    +0.000 A 
ATOM     11  C   UNL     1       4.339   4.707  16.865  0.00  0.00    +0.000 A 
ENDROOT
BRANCH   4  12
ATOM     12  C   UNL     1       2.172   7.850  18.776  0.00  0.00    +0.000 A 
ATOM     13  C   UNL     1       1.871   7.732  20.142  0.00  0.00    +0.000 A 
ATOM     14  C   UNL     1       1.113   8.710  20.798  0.00  0.00    +0.000 A 
ATOM     15  C   UNL     1       0.654   9.819  20.093  0.00  0.00    +0.000 A 
ATOM     16 CL   UNL     1      -0.273  11.024  20.895  0.00  0.00    +0.000 Cl
ATOM     17  C   UNL     1       0.947   9.961  18.740  0.00  0.00    +0.000 A 
ATOM     18  C   UNL     1       1.707   8.984  18.090  0.00  0.00    +0.000 A 
ENDBRANCH   4  12
TORSDOF 1
ENDMDL
MODEL 7
REMARK VINA RESULT:      -7.3      3.114      6.864
REMARK  Name = 
REMARK  1 active torsions:
REMARK  status: ('A' for Active; 'I' for Inactive)
REMARK    1  A    between atoms: C_4  and  C_5
REMARK                            x       y       z     vdW  Elec       q    Type
REMARK                         _______ _______ _______ _____ _____    ______ ____
ROOT
ATOM      1  O   UNL     1       0.617   4.085  17.339  0.00  0.00    +0.000 OA
ATOM      2  C   UNL     1       1.775   3.919  17.706  0.00  0.00    +0.000 A 
ATOM      3  O   UNL     1       2.839   4.173  16.887  0.00  0.00    +0.000 OA
ATOM      4  C   UNL     1       4.178   3.972  17.301  0.00  0.00    +0.000 A 
ATOM      5  C   UNL     1       4.484   3.510  18.519  0.00  0.00    +0.000 A 
ATOM      6  C   UNL     1       3.411   3.233  19.459  0.00  0.00    +0.000 A 
ATOM      7  C   UNL     1       3.696   2.778  20.751  0.00  0.00    +0.000 A 
ATOM      8  C   UNL     1       2.659   2.512  21.644  0.00  0.00    +0.000 A 
ATOM      9  C   UNL     1       1.334   2.700  21.254  0.00  0.00    +0.000 A 
ATOM     10  C   UNL     1       1.043   3.157  19.968  0.00  0.00    +0.000 A 
ATOM     11  C   UNL     1       2.085   3.427  19.069  0.00  0.00    +0.000 A 
ENDROOT
BRANCH   4  12
ATOM     12  C   UNL     1       5.201   4.296  16.284  0.00  0.00    +0.000 A 
ATOM     13  C   UNL     1       4.989   3.977  14.933  0.00  0.00    +0.000 A 
ATOM     14  C   UNL     1       5.950   4.285  13.963  0.00  0.00    +0.000 A 
ATOM     15  C   UNL     1       7.132   4.921  14.336  0.00  0.00    +0.000 A 
ATOM     16 CL   UNL     1       8.313   5.306  13.147  0.00  0.00    +0.000 Cl
ATOM     17  C   UNL     1       7.359   5.254  15.667  0.00  0.00    +0.000 A 
ATOM     18  C   UNL     1       6.396   4.948  16.633  0.00  0.00    +0.000 A 
ENDBRANCH   4  12
TORSDOF 1
ENDMDL
MODEL 8
REMARK VINA RESULT:      -7.3      4.446      5.392
REMARK  Name = 
REMARK  1 active torsions:
REMARK  status: ('A' for Active; 'I' for Inactive)
REMARK    1  A    between atoms: C_4  and  C_5
REMARK                            x       y       z     vdW  Elec       q    Type
REMARK                         _______ _______ _______ _____ _____    ______ ____
ROOT
ATOM      1  O   UNL     1       2.910   3.484  19.182  0.00  0.00    +0.000 OA
ATOM      2  C   UNL     1       3.084   4.619  18.751  0.00  0.00    +0.000 A 
ATOM      3  O   UNL     1       2.453   5.704  19.292  0.00  0.00    +0.000 OA
ATOM      4  C   UNL     1       2.641   7.015  18.792  0.00  0.00    +0.000 A 
ATOM      5  C   UNL     1       3.442   7.271  17.750  0.00  0.00    +0.000 A 
ATOM      6  C   UNL     1       4.166   6.175  17.131  0.00  0.00    +0.000 A 
ATOM      7  C   UNL     1       5.035   6.411  16.059  0.00  0.00    +0.000 A 
ATOM      8  C   UNL     1       5.723   5.351  15.469  0.00  0.00    +0.000 A 
ATOM      9  C   UNL     1       5.548   4.053  15.945  0.00  0.00    +0.000 A 
ATOM     10  C   UNL     1       4.686   3.811  17.015  0.00  0.00    +0.000 A 
ATOM     11  C   UNL     1       3.995   4.876  17.611  0.00  0.00    +0.000 A 
ENDROOT
BRANCH   4  12
ATOM     12  C   UNL     1       1.877   8.066  19.496  0.00  0.00    +0.000 A 
ATOM     13  C   UNL     1       1.510   9.246  18.830  0.00  0.00    +0.000 A 
ATOM     14  C   UNL     1       0.781  10.245  19.488  0.00  0.00    +0.000 A 
ATOM     15  C   UNL     1       0.408  10.069  20.818  0.00  0.00    +0.000 A 
ATOM     16 CL   UNL     1      -0.490  11.291  21.628  0.00  0.00    +0.000 Cl
ATOM     17  C   UNL     1       0.754   8.904  21.495  0.00  0.00    +0.000 A 
ATOM     18  C   UNL     1       1.479   7.908  20.834  0.00  0.00    +0.000 A 
ENDBRANCH   4  12
TORSDOF 1
ENDMDL
MODEL 9
REMARK VINA RESULT:      -7.3      3.225      6.821
REMARK  Name = 
REMARK  1 active torsions:
REMARK  status: ('A' for Active; 'I' for Inactive)
REMARK    1  A    between atoms: C_4  and  C_5
REMARK                            x       y       z     vdW  Elec       q    Type
REMARK                         _______ _______ _______ _____ _____    ______ ____
ROOT
ATOM      1  O   UNL     1       3.505   0.887  18.619  0.00  0.00    +0.000 OA
ATOM      2  C   UNL     1       3.578   2.088  18.384  0.00  0.00    +0.000 A 
ATOM      3  O   UNL     1       4.382   2.586  17.397  0.00  0.00    +0.000 OA
ATOM      4  C   UNL     1       4.480   3.972  17.128  0.00  0.00    +0.000 A 
ATOM      5  C   UNL     1       3.797   4.884  17.832  0.00  0.00    +0.000 A 
ATOM      6  C   UNL     1       2.904   4.436  18.887  0.00  0.00    +0.000 A 
ATOM      7  C   UNL     1       2.152   5.359  19.622  0.00  0.00    +0.000 A 
ATOM      8  C   UNL     1       1.300   4.920  20.635  0.00  0.00    +0.000 A 
ATOM      9  C   UNL     1       1.193   3.559  20.917  0.00  0.00    +0.000 A 
ATOM     10  C   UNL     1       1.937   2.633  20.185  0.00  0.00    +0.000 A 
ATOM     11  C   UNL     1       2.793   3.073  19.165  0.00  0.00    +0.000 A 
ENDROOT
BRANCH   4  12
ATOM     12  C   UNL     1       5.400   4.331  16.028  0.00  0.00    +0.000 A 
ATOM     13  C   UNL     1       5.243   3.762  14.754  0.00  0.00    +0.000 A 
ATOM     14  C   UNL     1       6.106   4.101  13.705  0.00  0.00    +0.000 A 
ATOM     15  C   UNL     1       7.132   5.017  13.920  0.00  0.00    +0.000 A 
ATOM     16 CL   UNL     1       8.192   5.439  12.634  0.00  0.00    +0.000 Cl
ATOM     17  C   UNL     1       7.302   5.599  15.172  0.00  0.00    +0.000 A 
ATOM     18  C   UNL     1       6.436   5.261  16.216  0.00  0.00    +0.000 A 
ENDBRANCH   4  12
TORSDOF 1
ENDMDL
