MODEL 1
REMARK VINA RESULT:      -7.9      0.000      0.000
REMARK  Name = 
REMARK  13 active torsions:
REMARK  status: ('A' for Active; 'I' for Inactive)
REMARK    1  A    between atoms: C_1  and  C_2
REMARK    2  A    between atoms: C_2  and  N_3
REMARK    3  A    between atoms: N_3  and  C_4
REMARK    4  A    between atoms: N_3  and  C_6
REMARK    5  A    between atoms: C_4  and  C_5
REMARK    6  A    between atoms: C_9  and  C_10
REMARK    7  A    between atoms: C_11  and  C_12
REMARK    8  A    between atoms: C_12  and  C_14
REMARK    9  A    between atoms: C_17  and  O_18
REMARK   10  A    between atoms: O_18  and  C_19
REMARK   11  A    between atoms: C_19  and  C_21
REMARK   12  A    between atoms: C_27  and  C_28
REMARK   13  A    between atoms: C_27  and  C_29
REMARK                            x       y       z     vdW  Elec       q    Type
REMARK                         _______ _______ _______ _____ _____    ______ ____
ROOT
ATOM      1  C   UNL     1       2.688   6.652  18.718  0.00  0.00    +0.000 A 
ATOM      2  C   UNL     1       3.522   7.352  17.818  0.00  0.00    +0.000 A 
ATOM      3  C   UNL     1       4.467   6.700  17.021  0.00  0.00    +0.000 A 
ATOM      4  C   UNL     1       4.737   5.360  17.260  0.00  0.00    +0.000 A 
ATOM      5  C   UNL     1       4.017   4.687  18.259  0.00  0.00    +0.000 A 
ATOM      6  C   UNL     1       2.838   5.257  18.785  0.00  0.00    +0.000 A 
ATOM      7  O   UNL     1       1.865   4.402  19.287  0.00  0.00    +0.000 OA
ATOM      8  C   UNL     1       2.287   3.050  19.694  0.00  0.00    +0.000 C 
ATOM      9  C   UNL     1       2.144   1.881  18.674  0.00  0.00    +0.000 C 
ATOM     10  C   UNL     1       1.344   2.707  20.865  0.00  0.00    +0.000 C 
ATOM     11  C   UNL     1       3.783   3.132  20.014  0.00  0.00    +0.000 C 
ATOM     12  C   UNL     1       4.514   3.446  18.914  0.00  0.00    +0.000 C 
ENDROOT
BRANCH   1  13
ATOM     13  C   UNL     1       1.950   7.546  19.683  0.00  0.00    +0.000 C 
ATOM     14  O   UNL     1       1.535   7.069  20.740  0.00  0.00    +0.000 OA
BRANCH  13  16
ATOM     15  C   UNL     1       0.682   9.615  20.070  0.00  0.00    +0.000 C 
ATOM     16  C   UNL     1       1.648   8.955  19.363  0.00  0.00    +0.000 C 
BRANCH  15  20
ATOM     17  C   UNL     1      -0.368  13.802  19.648  0.00  0.00    +0.000 A 
ATOM     18  C   UNL     1      -0.638  12.870  18.639  0.00  0.00    +0.000 A 
ATOM     19  C   UNL     1      -0.304  11.519  18.769  0.00  0.00    +0.000 A 
ATOM     20  C   UNL     1       0.338  11.040  19.911  0.00  0.00    +0.000 A 
ATOM     21  C   UNL     1       0.627  11.960  20.928  0.00  0.00    +0.000 A 
ATOM     22  C   UNL     1       0.283  13.320  20.796  0.00  0.00    +0.000 A 
BRANCH  17  23
ATOM     23  N   UNL     1      -0.763  15.144  19.554  0.00  0.00    +0.000 N 
BRANCH  23  25
ATOM     24  C   UNL     1      -0.732  17.263  18.230  0.00  0.00    +0.000 C 
ATOM     25  C   UNL     1       0.014  16.006  18.649  0.00  0.00    +0.000 C 
ENDBRANCH  23  25
BRANCH  23  26
ATOM     26  C   UNL     1      -1.400  15.749  20.739  0.00  0.00    +0.000 C 
ATOM     27  C   UNL     1      -2.886  15.433  20.857  0.00  0.00    +0.000 C 
ENDBRANCH  23  26
ENDBRANCH  17  23
ENDBRANCH  15  20
ENDBRANCH  13  16
ENDBRANCH   1  13
BRANCH   4  28
ATOM     28  O   UNL     1       5.597   4.577  16.444  0.00  0.00    +0.000 OA
BRANCH  28  29
ATOM     29  C   UNL     1       6.565   5.093  15.576  0.00  0.00    +0.000 C 
ATOM     30  O   UNL     1       7.622   5.599  15.899  0.00  0.00    +0.000 OA
BRANCH  29  31
ATOM     31  C   UNL     1       6.122   5.006  14.154  0.00  0.00    +0.000 C 
ATOM     32  C   UNL     1       6.889   4.124  13.186  0.00  0.00    +0.000 C 
ATOM     33  C   UNL     1       5.502   3.739  13.605  0.00  0.00    +0.000 C 
ENDBRANCH  29  31
ENDBRANCH  28  29
ENDBRANCH   4  28
TORSDOF 9
ENDMDL
MODEL 2
REMARK VINA RESULT:      -7.9      5.014      7.826
REMARK  Name = 
REMARK  13 active torsions:
REMARK  status: ('A' for Active; 'I' for Inactive)
REMARK    1  A    between atoms: C_1  and  C_2
REMARK    2  A    between atoms: C_2  and  N_3
REMARK    3  A    between atoms: N_3  and  C_4
REMARK    4  A    between atoms: N_3  and  C_6
REMARK    5  A    between atoms: C_4  and  C_5
REMARK    6  A    between atoms: C_9  and  C_10
REMARK    7  A    between atoms: C_11  and  C_12
REMARK    8  A    between atoms: C_12  and  C_14
REMARK    9  A    between atoms: C_17  and  O_18
REMARK   10  A    between atoms: O_18  and  C_19
REMARK   11  A    between atoms: C_19  and  C_21
REMARK   12  A    between atoms: C_27  and  C_28
REMARK   13  A    between atoms: C_27  and  C_29
REMARK                            x       y       z     vdW  Elec       q    Type
REMARK                         _______ _______ _______ _____ _____    ______ ____
ROOT
ATOM      1  C   UNL     1       4.992   6.012  16.946  0.00  0.00    +0.000 A 
ATOM      2  C   UNL     1       5.018   4.600  16.903  0.00  0.00    +0.000 A 
ATOM      3  C   UNL     1       3.916   3.826  17.278  0.00  0.00    +0.000 A 
ATOM      4  C   UNL     1       2.840   4.446  17.899  0.00  0.00    +0.000 A 
ATOM      5  C   UNL     1       2.868   5.837  18.083  0.00  0.00    +0.000 A 
ATOM      6  C   UNL     1       3.805   6.624  17.380  0.00  0.00    +0.000 A 
ATOM      7  O   UNL     1       3.476   7.945  17.106  0.00  0.00    +0.000 OA
ATOM      8  C   UNL     1       2.446   8.581  17.947  0.00  0.00    +0.000 C 
ATOM      9  C   UNL     1       0.970   8.584  17.452  0.00  0.00    +0.000 C 
ATOM     10  C   UNL     1       2.878  10.061  17.999  0.00  0.00    +0.000 C 
ATOM     11  C   UNL     1       2.431   7.821  19.277  0.00  0.00    +0.000 C 
ATOM     12  C   UNL     1       2.044   6.531  19.111  0.00  0.00    +0.000 C 
ENDROOT
BRANCH   1  13
ATOM     13  C   UNL     1       6.350   6.649  16.783  0.00  0.00    +0.000 C 
ATOM     14  O   UNL     1       7.240   6.018  16.213  0.00  0.00    +0.000 OA
BRANCH  13  16
ATOM     15  C   UNL     1       7.957   8.301  17.637  0.00  0.00    +0.000 C 
ATOM     16  C   UNL     1       6.660   7.976  17.352  0.00  0.00    +0.000 C 
BRANCH  15  20
ATOM     17  C   UNL     1       9.335  12.170  19.033  0.00  0.00    +0.000 A 
ATOM     18  C   UNL     1       9.658  10.986  19.706  0.00  0.00    +0.000 A 
ATOM     19  C   UNL     1       9.218   9.736  19.261  0.00  0.00    +0.000 A 
ATOM     20  C   UNL     1       8.414   9.614  18.129  0.00  0.00    +0.000 A 
ATOM     21  C   UNL     1       8.071  10.788  17.446  0.00  0.00    +0.000 A 
ATOM     22  C   UNL     1       8.521  12.046  17.893  0.00  0.00    +0.000 A 
BRANCH  17  23
ATOM     23  N   UNL     1       9.830  13.419  19.432  0.00  0.00    +0.000 N 
BRANCH  23  25
ATOM     24  C   UNL     1       9.391  15.872  19.249  0.00  0.00    +0.000 C 
ATOM     25  C   UNL     1       9.591  14.552  18.523  0.00  0.00    +0.000 C 
ENDBRANCH  23  25
BRANCH  23  26
ATOM     26  C   UNL     1      11.035  13.433  20.282  0.00  0.00    +0.000 C 
ATOM     27  C   UNL     1      12.333  13.560  19.494  0.00  0.00    +0.000 C 
ENDBRANCH  23  26
ENDBRANCH  17  23
ENDBRANCH  15  20
ENDBRANCH  13  16
ENDBRANCH   1  13
BRANCH   4  28
ATOM     28  O   UNL     1       1.631   3.774  18.223  0.00  0.00    +0.000 OA
BRANCH  28  29
ATOM     29  C   UNL     1       1.514   2.745  19.164  0.00  0.00    +0.000 C 
ATOM     30  O   UNL     1       1.667   1.558  18.951  0.00  0.00    +0.000 OA
BRANCH  29  31
ATOM     31  C   UNL     1       1.112   3.272  20.500  0.00  0.00    +0.000 C 
ATOM     32  C   UNL     1       1.526   2.523  21.753  0.00  0.00    +0.000 C 
ATOM     33  C   UNL     1       2.134   3.858  21.449  0.00  0.00    +0.000 C 
ENDBRANCH  29  31
ENDBRANCH  28  29
ENDBRANCH   4  28
TORSDOF 9
ENDMDL
MODEL 3
REMARK VINA RESULT:      -7.8      5.073      7.901
REMARK  Name = 
REMARK  13 active torsions:
REMARK  status: ('A' for Active; 'I' for Inactive)
REMARK    1  A    between atoms: C_1  and  C_2
REMARK    2  A    between atoms: C_2  and  N_3
REMARK    3  A    between atoms: N_3  and  C_4
REMARK    4  A    between atoms: N_3  and  C_6
REMARK    5  A    between atoms: C_4  and  C_5
REMARK    6  A    between atoms: C_9  and  C_10
REMARK    7  A    between atoms: C_11  and  C_12
REMARK    8  A    between atoms: C_12  and  C_14
REMARK    9  A    between atoms: C_17  and  O_18
REMARK   10  A    between atoms: O_18  and  C_19
REMARK   11  A    between atoms: C_19  and  C_21
REMARK   12  A    between atoms: C_27  and  C_28
REMARK   13  A    between atoms: C_27  and  C_29
REMARK                            x       y       z     vdW  Elec       q    Type
REMARK                         _______ _______ _______ _____ _____    ______ ____
ROOT
ATOM      1  C   UNL     1       4.736   6.208  17.167  0.00  0.00    +0.000 A 
ATOM      2  C   UNL     1       4.752   4.797  17.235  0.00  0.00    +0.000 A 
ATOM      3  C   UNL     1       3.653   4.064  17.690  0.00  0.00    +0.000 A 
ATOM      4  C   UNL     1       2.593   4.739  18.278  0.00  0.00    +0.000 A 
ATOM      5  C   UNL     1       2.632   6.139  18.352  0.00  0.00    +0.000 A 
ATOM      6  C   UNL     1       3.562   6.861  17.572  0.00  0.00    +0.000 A 
ATOM      7  O   UNL     1       3.235   8.159  17.201  0.00  0.00    +0.000 OA
ATOM      8  C   UNL     1       2.226   8.868  18.008  0.00  0.00    +0.000 C 
ATOM      9  C   UNL     1       0.740   8.843  17.540  0.00  0.00    +0.000 C 
ATOM     10  C   UNL     1       2.667  10.344  17.935  0.00  0.00    +0.000 C 
ATOM     11  C   UNL     1       2.230   8.214  19.393  0.00  0.00    +0.000 C 
ATOM     12  C   UNL     1       1.831   6.918  19.336  0.00  0.00    +0.000 C 
ENDROOT
BRANCH   1  13
ATOM     13  C   UNL     1       6.095   6.820  16.931  0.00  0.00    +0.000 C 
ATOM     14  O   UNL     1       6.860   6.282  16.129  0.00  0.00    +0.000 OA
BRANCH  13  16
ATOM     15  C   UNL     1       7.847   8.433  17.537  0.00  0.00    +0.000 C 
ATOM     16  C   UNL     1       6.558   8.001  17.685  0.00  0.00    +0.000 C 
BRANCH  15  20
ATOM     17  C   UNL     1       9.557  11.990  19.337  0.00  0.00    +0.000 A 
ATOM     18  C   UNL     1       9.620  10.742  19.968  0.00  0.00    +0.000 A 
ATOM     19  C   UNL     1       9.072   9.592  19.393  0.00  0.00    +0.000 A 
ATOM     20  C   UNL     1       8.415   9.641  18.164  0.00  0.00    +0.000 A 
ATOM     21  C   UNL     1       8.331  10.883  17.521  0.00  0.00    +0.000 A 
ATOM     22  C   UNL     1       8.890  12.039  18.100  0.00  0.00    +0.000 A 
BRANCH  17  23
ATOM     23  N   UNL     1      10.165  13.134  19.873  0.00  0.00    +0.000 N 
BRANCH  23  25
ATOM     24  C   UNL     1      11.907  14.161  18.405  0.00  0.00    +0.000 C 
ATOM     25  C   UNL     1      11.606  13.301  19.623  0.00  0.00    +0.000 C 
ENDBRANCH  23  25
BRANCH  23  26
ATOM     26  C   UNL     1       9.589  13.693  21.110  0.00  0.00    +0.000 C 
ATOM     27  C   UNL     1      10.347  14.905  21.639  0.00  0.00    +0.000 C 
ENDBRANCH  23  26
ENDBRANCH  17  23
ENDBRANCH  15  20
ENDBRANCH  13  16
ENDBRANCH   1  13
BRANCH   4  28
ATOM     28  O   UNL     1       1.385   4.104  18.677  0.00  0.00    +0.000 OA
BRANCH  28  29
ATOM     29  C   UNL     1       1.299   2.819  19.223  0.00  0.00    +0.000 C 
ATOM     30  O   UNL     1       1.184   1.781  18.600  0.00  0.00    +0.000 OA
BRANCH  29  31
ATOM     31  C   UNL     1       1.306   2.860  20.713  0.00  0.00    +0.000 C 
ATOM     32  C   UNL     1       2.604   2.617  21.460  0.00  0.00    +0.000 C 
ATOM     33  C   UNL     1       1.989   3.984  21.461  0.00  0.00    +0.000 C 
ENDBRANCH  29  31
ENDBRANCH  28  29
ENDBRANCH   4  28
TORSDOF 9
ENDMDL
MODEL 4
REMARK VINA RESULT:      -7.8      4.872      7.695
REMARK  Name = 
REMARK  13 active torsions:
REMARK  status: ('A' for Active; 'I' for Inactive)
REMARK    1  A    between atoms: C_1  and  C_2
REMARK    2  A    between atoms: C_2  and  N_3
REMARK    3  A    between atoms: N_3  and  C_4
REMARK    4  A    between atoms: N_3  and  C_6
REMARK    5  A    between atoms: C_4  and  C_5
REMARK    6  A    between atoms: C_9  and  C_10
REMARK    7  A    between atoms: C_11  and  C_12
REMARK    8  A    between atoms: C_12  and  C_14
REMARK    9  A    between atoms: C_17  and  O_18
REMARK   10  A    between atoms: O_18  and  C_19
REMARK   11  A    between atoms: C_19  and  C_21
REMARK   12  A    between atoms: C_27  and  C_28
REMARK   13  A    between atoms: C_27  and  C_29
REMARK                            x       y       z     vdW  Elec       q    Type
REMARK                         _______ _______ _______ _____ _____    ______ ____
ROOT
ATOM      1  C   UNL     1       5.014   6.013  16.995  0.00  0.00    +0.000 A 
ATOM      2  C   UNL     1       5.063   4.601  16.974  0.00  0.00    +0.000 A 
ATOM      3  C   UNL     1       3.973   3.816  17.361  0.00  0.00    +0.000 A 
ATOM      4  C   UNL     1       2.887   4.428  17.971  0.00  0.00    +0.000 A 
ATOM      5  C   UNL     1       2.892   5.821  18.133  0.00  0.00    +0.000 A 
ATOM      6  C   UNL     1       3.817   6.612  17.419  0.00  0.00    +0.000 A 
ATOM      7  O   UNL     1       3.466   7.923  17.123  0.00  0.00    +0.000 OA
ATOM      8  C   UNL     1       2.426   8.556  17.954  0.00  0.00    +0.000 C 
ATOM      9  C   UNL     1       0.950   8.527  17.458  0.00  0.00    +0.000 C 
ATOM     10  C   UNL     1       2.833  10.043  17.982  0.00  0.00    +0.000 C 
ATOM     11  C   UNL     1       2.421   7.817  19.295  0.00  0.00    +0.000 C 
ATOM     12  C   UNL     1       2.055   6.518  19.149  0.00  0.00    +0.000 C 
ENDROOT
BRANCH   1  13
ATOM     13  C   UNL     1       6.362   6.670  16.824  0.00  0.00    +0.000 C 
ATOM     14  O   UNL     1       7.227   6.091  16.167  0.00  0.00    +0.000 OA
BRANCH  13  16
ATOM     15  C   UNL     1       8.002   8.307  17.640  0.00  0.00    +0.000 C 
ATOM     16  C   UNL     1       6.692   7.950  17.480  0.00  0.00    +0.000 C 
BRANCH  15  20
ATOM     17  C   UNL     1       9.342  12.067  19.337  0.00  0.00    +0.000 A 
ATOM     18  C   UNL     1       8.716  12.005  18.086  0.00  0.00    +0.000 A 
ATOM     19  C   UNL     1       8.282  10.797  17.534  0.00  0.00    +0.000 A 
ATOM     20  C   UNL     1       8.471   9.587  18.202  0.00  0.00    +0.000 A 
ATOM     21  C   UNL     1       9.104   9.627  19.452  0.00  0.00    +0.000 A 
ATOM     22  C   UNL     1       9.536  10.847  20.008  0.00  0.00    +0.000 A 
BRANCH  17  23
ATOM     23  N   UNL     1       9.717  13.282  19.929  0.00  0.00    +0.000 N 
BRANCH  23  25
ATOM     24  C   UNL     1      12.024  13.333  18.971  0.00  0.00    +0.000 C 
ATOM     25  C   UNL     1      11.149  13.472  20.207  0.00  0.00    +0.000 C 
ENDBRANCH  23  25
BRANCH  23  26
ATOM     26  C   UNL     1       8.729  13.949  20.798  0.00  0.00    +0.000 C 
ATOM     27  C   UNL     1       8.335  15.339  20.314  0.00  0.00    +0.000 C 
ENDBRANCH  23  26
ENDBRANCH  17  23
ENDBRANCH  15  20
ENDBRANCH  13  16
ENDBRANCH   1  13
BRANCH   4  28
ATOM     28  O   UNL     1       1.688   3.742  18.305  0.00  0.00    +0.000 OA
BRANCH  28  29
ATOM     29  C   UNL     1       1.590   2.719  19.255  0.00  0.00    +0.000 C 
ATOM     30  O   UNL     1       1.768   1.533  19.054  0.00  0.00    +0.000 OA
BRANCH  29  31
ATOM     31  C   UNL     1       1.171   3.250  20.584  0.00  0.00    +0.000 C 
ATOM     32  C   UNL     1       1.525   2.477  21.842  0.00  0.00    +0.000 C 
ATOM     33  C   UNL     1       2.188   3.792  21.565  0.00  0.00    +0.000 C 
ENDBRANCH  29  31
ENDBRANCH  28  29
ENDBRANCH   4  28
TORSDOF 9
ENDMDL
MODEL 5
REMARK VINA RESULT:      -7.8      5.676      7.043
REMARK  Name = 
REMARK  13 active torsions:
REMARK  status: ('A' for Active; 'I' for Inactive)
REMARK    1  A    between atoms: C_1  and  C_2
REMARK    2  A    between atoms: C_2  and  N_3
REMARK    3  A    between atoms: N_3  and  C_4
REMARK    4  A    between atoms: N_3  and  C_6
REMARK    5  A    between atoms: C_4  and  C_5
REMARK    6  A    between atoms: C_9  and  C_10
REMARK    7  A    between atoms: C_11  and  C_12
REMARK    8  A    between atoms: C_12  and  C_14
REMARK    9  A    between atoms: C_17  and  O_18
REMARK   10  A    between atoms: O_18  and  C_19
REMARK   11  A    between atoms: C_19  and  C_21
REMARK   12  A    between atoms: C_27  and  C_28
REMARK   13  A    between atoms: C_27  and  C_29
REMARK                            x       y       z     vdW  Elec       q    Type
REMARK                         _______ _______ _______ _____ _____    ______ ____
ROOT
ATOM      1  C   UNL     1       6.809   5.843  17.571  0.00  0.00    +0.000 A 
ATOM      2  C   UNL     1       7.513   5.835  16.347  0.00  0.00    +0.000 A 
ATOM      3  C   UNL     1       6.930   5.383  15.159  0.00  0.00    +0.000 A 
ATOM      4  C   UNL     1       5.701   4.742  15.216  0.00  0.00    +0.000 A 
ATOM      5  C   UNL     1       5.056   4.611  16.455  0.00  0.00    +0.000 A 
ATOM      6  C   UNL     1       5.483   5.383  17.558  0.00  0.00    +0.000 A 
ATOM      7  O   UNL     1       4.550   5.692  18.539  0.00  0.00    +0.000 OA
ATOM      8  C   UNL     1       3.358   4.833  18.645  0.00  0.00    +0.000 C 
ATOM      9  C   UNL     1       2.055   5.264  17.910  0.00  0.00    +0.000 C 
ATOM     10  C   UNL     1       3.021   4.855  20.150  0.00  0.00    +0.000 C 
ATOM     11  C   UNL     1       3.737   3.476  18.044  0.00  0.00    +0.000 C 
ATOM     12  C   UNL     1       4.019   3.577  16.720  0.00  0.00    +0.000 C 
ENDROOT
BRANCH   1  13
ATOM     13  C   UNL     1       7.686   6.087  18.775  0.00  0.00    +0.000 C 
ATOM     14  O   UNL     1       7.764   5.217  19.642  0.00  0.00    +0.000 OA
BRANCH  13  16
ATOM     15  C   UNL     1       8.032   8.460  18.238  0.00  0.00    +0.000 C 
ATOM     16  C   UNL     1       8.395   7.367  18.974  0.00  0.00    +0.000 C 
BRANCH  15  20
ATOM     17  C   UNL     1       9.718  12.437  18.637  0.00  0.00    +0.000 A 
ATOM     18  C   UNL     1      10.109  11.383  19.473  0.00  0.00    +0.000 A 
ATOM     19  C   UNL     1       9.570  10.100  19.348  0.00  0.00    +0.000 A 
ATOM     20  C   UNL     1       8.597   9.813  18.392  0.00  0.00    +0.000 A 
ATOM     21  C   UNL     1       8.184  10.857  17.552  0.00  0.00    +0.000 A 
ATOM     22  C   UNL     1       8.733  12.148  17.676  0.00  0.00    +0.000 A 
BRANCH  17  23
ATOM     23  N   UNL     1      10.304  13.708  18.709  0.00  0.00    +0.000 N 
BRANCH  23  25
ATOM     24  C   UNL     1      12.023  13.276  16.947  0.00  0.00    +0.000 C 
ATOM     25  C   UNL     1      11.725  13.808  18.341  0.00  0.00    +0.000 C 
ENDBRANCH  23  25
BRANCH  23  26
ATOM     26  C   UNL     1       9.760  14.653  19.702  0.00  0.00    +0.000 C 
ATOM     27  C   UNL     1       9.216  15.936  19.085  0.00  0.00    +0.000 C 
ENDBRANCH  23  26
ENDBRANCH  17  23
ENDBRANCH  15  20
ENDBRANCH  13  16
ENDBRANCH   1  13
BRANCH   4  28
ATOM     28  O   UNL     1       4.973   4.341  14.063  0.00  0.00    +0.000 OA
BRANCH  28  29
ATOM     29  C   UNL     1       5.535   3.744  12.929  0.00  0.00    +0.000 C 
ATOM     30  O   UNL     1       6.682   3.871  12.546  0.00  0.00    +0.000 OA
BRANCH  29  31
ATOM     31  C   UNL     1       4.524   2.946  12.177  0.00  0.00    +0.000 C 
ATOM     32  C   UNL     1       3.880   3.536  10.936  0.00  0.00    +0.000 C 
ATOM     33  C   UNL     1       4.833   2.387  10.805  0.00  0.00    +0.000 C 
ENDBRANCH  29  31
ENDBRANCH  28  29
ENDBRANCH   4  28
TORSDOF 9
ENDMDL
MODEL 6
REMARK VINA RESULT:      -7.8      1.077      1.450
REMARK  Name = 
REMARK  13 active torsions:
REMARK  status: ('A' for Active; 'I' for Inactive)
REMARK    1  A    between atoms: C_1  and  C_2
REMARK    2  A    between atoms: C_2  and  N_3
REMARK    3  A    between atoms: N_3  and  C_4
REMARK    4  A    between atoms: N_3  and  C_6
REMARK    5  A    between atoms: C_4  and  C_5
REMARK    6  A    between atoms: C_9  and  C_10
REMARK    7  A    between atoms: C_11  and  C_12
REMARK    8  A    between atoms: C_12  and  C_14
REMARK    9  A    between atoms: C_17  and  O_18
REMARK   10  A    between atoms: O_18  and  C_19
REMARK   11  A    between atoms: C_19  and  C_21
REMARK   12  A    between atoms: C_27  and  C_28
REMARK   13  A    between atoms: C_27  and  C_29
REMARK                            x       y       z     vdW  Elec       q    Type
REMARK                         _______ _______ _______ _____ _____    ______ ____
ROOT
ATOM      1  C   UNL     1       2.709   6.630  18.671  0.00  0.00    +0.000 A 
ATOM      2  C   UNL     1       3.591   7.200  17.726  0.00  0.00    +0.000 A 
ATOM      3  C   UNL     1       4.485   6.424  16.984  0.00  0.00    +0.000 A 
ATOM      4  C   UNL     1       4.657   5.089  17.321  0.00  0.00    +0.000 A 
ATOM      5  C   UNL     1       3.890   4.545  18.362  0.00  0.00    +0.000 A 
ATOM      6  C   UNL     1       2.756   5.237  18.840  0.00  0.00    +0.000 A 
ATOM      7  O   UNL     1       1.724   4.494  19.398  0.00  0.00    +0.000 OA
ATOM      8  C   UNL     1       2.046   3.147  19.903  0.00  0.00    +0.000 C 
ATOM      9  C   UNL     1       1.816   1.922  18.971  0.00  0.00    +0.000 C 
ATOM     10  C   UNL     1       1.081   2.960  21.092  0.00  0.00    +0.000 C 
ATOM     11  C   UNL     1       3.544   3.143  20.224  0.00  0.00    +0.000 C 
ATOM     12  C   UNL     1       4.295   3.322  19.108  0.00  0.00    +0.000 C 
ENDROOT
BRANCH   1  13
ATOM     13  C   UNL     1       2.038   7.643  19.565  0.00  0.00    +0.000 C 
ATOM     14  O   UNL     1       1.511   7.260  20.609  0.00  0.00    +0.000 OA
BRANCH  13  16
ATOM     15  C   UNL     1       1.179   9.914  19.948  0.00  0.00    +0.000 C 
ATOM     16  C   UNL     1       1.935   9.066  19.187  0.00  0.00    +0.000 C 
BRANCH  15  20
ATOM     17  C   UNL     1       0.874  14.195  19.324  0.00  0.00    +0.000 A 
ATOM     18  C   UNL     1       0.248  13.561  20.404  0.00  0.00    +0.000 A 
ATOM     19  C   UNL     1       0.343  12.183  20.611  0.00  0.00    +0.000 A 
ATOM     20  C   UNL     1       1.055  11.367  19.733  0.00  0.00    +0.000 A 
ATOM     21  C   UNL     1       1.682  11.980  18.640  0.00  0.00    +0.000 A 
ATOM     22  C   UNL     1       1.589  13.371  18.437  0.00  0.00    +0.000 A 
BRANCH  17  23
ATOM     23  N   UNL     1       0.842  15.586  19.149  0.00  0.00    +0.000 N 
BRANCH  23  25
ATOM     24  C   UNL     1       3.042  15.980  20.266  0.00  0.00    +0.000 C 
ATOM     25  C   UNL     1       1.587  16.397  20.125  0.00  0.00    +0.000 C 
ENDBRANCH  23  25
BRANCH  23  26
ATOM     26  C   UNL     1      -0.355  16.163  18.511  0.00  0.00    +0.000 C 
ATOM     27  C   UNL     1      -1.290  16.858  19.492  0.00  0.00    +0.000 C 
ENDBRANCH  23  26
ENDBRANCH  17  23
ENDBRANCH  15  20
ENDBRANCH  13  16
ENDBRANCH   1  13
BRANCH   4  28
ATOM     28  O   UNL     1       5.457   4.188  16.568  0.00  0.00    +0.000 OA
BRANCH  28  29
ATOM     29  C   UNL     1       6.641   4.531  15.906  0.00  0.00    +0.000 C 
ATOM     30  O   UNL     1       7.752   4.574  16.399  0.00  0.00    +0.000 OA
BRANCH  29  31
ATOM     31  C   UNL     1       6.382   4.908  14.487  0.00  0.00    +0.000 C 
ATOM     32  C   UNL     1       6.663   3.904  13.384  0.00  0.00    +0.000 C 
ATOM     33  C   UNL     1       5.248   4.280  13.706  0.00  0.00    +0.000 C 
ENDBRANCH  29  31
ENDBRANCH  28  29
ENDBRANCH   4  28
TORSDOF 9
ENDMDL
MODEL 7
REMARK VINA RESULT:      -7.7      1.175      1.712
REMARK  Name = 
REMARK  13 active torsions:
REMARK  status: ('A' for Active; 'I' for Inactive)
REMARK    1  A    between atoms: C_1  and  C_2
REMARK    2  A    between atoms: C_2  and  N_3
REMARK    3  A    between atoms: N_3  and  C_4
REMARK    4  A    between atoms: N_3  and  C_6
REMARK    5  A    between atoms: C_4  and  C_5
REMARK    6  A    between atoms: C_9  and  C_10
REMARK    7  A    between atoms: C_11  and  C_12
REMARK    8  A    between atoms: C_12  and  C_14
REMARK    9  A    between atoms: C_17  and  O_18
REMARK   10  A    between atoms: O_18  and  C_19
REMARK   11  A    between atoms: C_19  and  C_21
REMARK   12  A    between atoms: C_27  and  C_28
REMARK   13  A    between atoms: C_27  and  C_29
REMARK                            x       y       z     vdW  Elec       q    Type
REMARK                         _______ _______ _______ _____ _____    ______ ____
ROOT
ATOM      1  C   UNL     1       2.204   6.914  19.283  0.00  0.00    +0.000 A 
ATOM      2  C   UNL     1       2.918   7.682  18.335  0.00  0.00    +0.000 A 
ATOM      3  C   UNL     1       3.792   7.097  17.415  0.00  0.00    +0.000 A 
ATOM      4  C   UNL     1       4.124   5.757  17.561  0.00  0.00    +0.000 A 
ATOM      5  C   UNL     1       3.533   5.017  18.596  0.00  0.00    +0.000 A 
ATOM      6  C   UNL     1       2.400   5.524  19.268  0.00  0.00    +0.000 A 
ATOM      7  O   UNL     1       1.510   4.616  19.827  0.00  0.00    +0.000 OA
ATOM      8  C   UNL     1       2.012   3.262  20.123  0.00  0.00    +0.000 C 
ATOM      9  C   UNL     1       1.795   2.135  19.070  0.00  0.00    +0.000 C 
ATOM     10  C   UNL     1       1.207   2.836  21.368  0.00  0.00    +0.000 C 
ATOM     11  C   UNL     1       3.530   3.380  20.290  0.00  0.00    +0.000 C 
ATOM     12  C   UNL     1       4.131   3.766  19.136  0.00  0.00    +0.000 C 
ENDROOT
BRANCH   1  13
ATOM     13  C   UNL     1       1.546   7.740  20.361  0.00  0.00    +0.000 C 
ATOM     14  O   UNL     1       1.084   7.170  21.350  0.00  0.00    +0.000 OA
BRANCH  13  16
ATOM     15  C   UNL     1       0.151   9.710  19.900  0.00  0.00    +0.000 C 
ATOM     16  C   UNL     1       1.376   9.200  20.228  0.00  0.00    +0.000 C 
BRANCH  15  20
ATOM     17  C   UNL     1      -0.759  13.944  19.670  0.00  0.00    +0.000 A 
ATOM     18  C   UNL     1      -1.453  13.087  20.533  0.00  0.00    +0.000 A 
ATOM     19  C   UNL     1      -1.164  11.722  20.613  0.00  0.00    +0.000 A 
ATOM     20  C   UNL     1      -0.177  11.144  19.815  0.00  0.00    +0.000 A 
ATOM     21  C   UNL     1       0.522  11.983  18.936  0.00  0.00    +0.000 A 
ATOM     22  C   UNL     1       0.232  13.360  18.863  0.00  0.00    +0.000 A 
BRANCH  17  23
ATOM     23  N   UNL     1      -0.995  15.326  19.635  0.00  0.00    +0.000 N 
BRANCH  23  25
ATOM     24  C   UNL     1      -0.595  17.190  18.020  0.00  0.00    +0.000 C 
ATOM     25  C   UNL     1       0.012  16.156  18.955  0.00  0.00    +0.000 C 
ENDBRANCH  23  25
BRANCH  23  26
ATOM     26  C   UNL     1      -1.765  15.912  20.748  0.00  0.00    +0.000 C 
ATOM     27  C   UNL     1      -0.896  16.609  21.787  0.00  0.00    +0.000 C 
ENDBRANCH  23  26
ENDBRANCH  17  23
ENDBRANCH  15  20
ENDBRANCH  13  16
ENDBRANCH   1  13
BRANCH   4  28
ATOM     28  O   UNL     1       4.916   5.041  16.624  0.00  0.00    +0.000 OA
BRANCH  28  29
ATOM     29  C   UNL     1       5.928   5.601  15.836  0.00  0.00    +0.000 C 
ATOM     30  O   UNL     1       5.811   5.993  14.691  0.00  0.00    +0.000 OA
BRANCH  29  31
ATOM     31  C   UNL     1       7.233   5.618  16.558  0.00  0.00    +0.000 C 
ATOM     32  C   UNL     1       7.518   6.722  17.560  0.00  0.00    +0.000 C 
ATOM     33  C   UNL     1       7.311   5.317  18.039  0.00  0.00    +0.000 C 
ENDBRANCH  29  31
ENDBRANCH  28  29
ENDBRANCH   4  28
TORSDOF 9
ENDMDL
MODEL 8
REMARK VINA RESULT:      -7.6      0.572      1.317
REMARK  Name = 
REMARK  13 active torsions:
REMARK  status: ('A' for Active; 'I' for Inactive)
REMARK    1  A    between atoms: C_1  and  C_2
REMARK    2  A    between atoms: C_2  and  N_3
REMARK    3  A    between atoms: N_3  and  C_4
REMARK    4  A    between atoms: N_3  and  C_6
REMARK    5  A    between atoms: C_4  and  C_5
REMARK    6  A    between atoms: C_9  and  C_10
REMARK    7  A    between atoms: C_11  and  C_12
REMARK    8  A    between atoms: C_12  and  C_14
REMARK    9  A    between atoms: C_17  and  O_18
REMARK   10  A    between atoms: O_18  and  C_19
REMARK   11  A    between atoms: C_19  and  C_21
REMARK   12  A    between atoms: C_27  and  C_28
REMARK   13  A    between atoms: C_27  and  C_29
REMARK                            x       y       z     vdW  Elec       q    Type
REMARK                         _______ _______ _______ _____ _____    ______ ____
ROOT
ATOM      1  C   UNL     1       2.532   6.808  18.845  0.00  0.00    +0.000 A 
ATOM      2  C   UNL     1       3.360   7.515  17.944  0.00  0.00    +0.000 A 
ATOM      3  C   UNL     1       4.297   6.868  17.135  0.00  0.00    +0.000 A 
ATOM      4  C   UNL     1       4.566   5.525  17.360  0.00  0.00    +0.000 A 
ATOM      5  C   UNL     1       3.852   4.844  18.357  0.00  0.00    +0.000 A 
ATOM      6  C   UNL     1       2.678   5.413  18.898  0.00  0.00    +0.000 A 
ATOM      7  O   UNL     1       1.707   4.555  19.399  0.00  0.00    +0.000 OA
ATOM      8  C   UNL     1       2.129   3.198  19.790  0.00  0.00    +0.000 C 
ATOM      9  C   UNL     1       1.975   2.040  18.760  0.00  0.00    +0.000 C 
ATOM     10  C   UNL     1       1.194   2.846  20.965  0.00  0.00    +0.000 C 
ATOM     11  C   UNL     1       3.627   3.274  20.099  0.00  0.00    +0.000 C 
ATOM     12  C   UNL     1       4.350   3.596  18.997  0.00  0.00    +0.000 C 
ENDROOT
BRANCH   1  13
ATOM     13  C   UNL     1       1.802   7.695  19.824  0.00  0.00    +0.000 C 
ATOM     14  O   UNL     1       1.489   7.238  20.923  0.00  0.00    +0.000 OA
BRANCH  13  16
ATOM     15  C   UNL     1       0.814   9.864  20.422  0.00  0.00    +0.000 C 
ATOM     16  C   UNL     1       1.392   9.068  19.472  0.00  0.00    +0.000 C 
BRANCH  15  20
ATOM     17  C   UNL     1      -0.302  14.025  19.920  0.00  0.00    +0.000 A 
ATOM     18  C   UNL     1      -1.177  12.982  19.591  0.00  0.00    +0.000 A 
ATOM     19  C   UNL     1      -0.824  11.640  19.752  0.00  0.00    +0.000 A 
ATOM     20  C   UNL     1       0.434  11.275  20.231  0.00  0.00    +0.000 A 
ATOM     21  C   UNL     1       1.328  12.304  20.557  0.00  0.00    +0.000 A 
ATOM     22  C   UNL     1       0.967  13.657  20.400  0.00  0.00    +0.000 A 
BRANCH  17  23
ATOM     23  N   UNL     1      -0.674  15.373  19.828  0.00  0.00    +0.000 N 
BRANCH  23  25
ATOM     24  C   UNL     1      -1.529  16.172  22.036  0.00  0.00    +0.000 C 
ATOM     25  C   UNL     1      -1.855  15.792  20.600  0.00  0.00    +0.000 C 
ENDBRANCH  23  25
BRANCH  23  26
ATOM     26  C   UNL     1      -0.357  16.083  18.575  0.00  0.00    +0.000 C 
ATOM     27  C   UNL     1       0.808  17.056  18.706  0.00  0.00    +0.000 C 
ENDBRANCH  23  26
ENDBRANCH  17  23
ENDBRANCH  15  20
ENDBRANCH  13  16
ENDBRANCH   1  13
BRANCH   4  28
ATOM     28  O   UNL     1       5.418   4.748  16.530  0.00  0.00    +0.000 OA
BRANCH  28  29
ATOM     29  C   UNL     1       6.481   5.256  15.775  0.00  0.00    +0.000 C 
ATOM     30  O   UNL     1       7.464   5.824  16.211  0.00  0.00    +0.000 OA
BRANCH  29  31
ATOM     31  C   UNL     1       6.248   5.071  14.313  0.00  0.00    +0.000 C 
ATOM     32  C   UNL     1       6.536   3.724  13.676  0.00  0.00    +0.000 C 
ATOM     33  C   UNL     1       5.120   4.199  13.806  0.00  0.00    +0.000 C 
ENDBRANCH  29  31
ENDBRANCH  28  29
ENDBRANCH   4  28
TORSDOF 9
ENDMDL
MODEL 9
REMARK VINA RESULT:      -7.6      5.753      7.121
REMARK  Name = 
REMARK  13 active torsions:
REMARK  status: ('A' for Active; 'I' for Inactive)
REMARK    1  A    between atoms: C_1  and  C_2
REMARK    2  A    between atoms: C_2  and  N_3
REMARK    3  A    between atoms: N_3  and  C_4
REMARK    4  A    between atoms: N_3  and  C_6
REMARK    5  A    between atoms: C_4  and  C_5
REMARK    6  A    between atoms: C_9  and  C_10
REMARK    7  A    between atoms: C_11  and  C_12
REMARK    8  A    between atoms: C_12  and  C_14
REMARK    9  A    between atoms: C_17  and  O_18
REMARK   10  A    between atoms: O_18  and  C_19
REMARK   11  A    between atoms: C_19  and  C_21
REMARK   12  A    between atoms: C_27  and  C_28
REMARK   13  A    between atoms: C_27  and  C_29
REMARK                            x       y       z     vdW  Elec       q    Type
REMARK                         _______ _______ _______ _____ _____    ______ ____
ROOT
ATOM      1  C   UNL     1       6.659   6.231  16.794  0.00  0.00    +0.000 A 
ATOM      2  C   UNL     1       7.280   5.996  15.547  0.00  0.00    +0.000 A 
ATOM      3  C   UNL     1       6.733   5.128  14.598  0.00  0.00    +0.000 A 
ATOM      4  C   UNL     1       5.662   4.323  14.962  0.00  0.00    +0.000 A 
ATOM      5  C   UNL     1       5.128   4.442  16.254  0.00  0.00    +0.000 A 
ATOM      6  C   UNL     1       5.453   5.560  17.052  0.00  0.00    +0.000 A 
ATOM      7  O   UNL     1       4.535   5.968  18.011  0.00  0.00    +0.000 OA
ATOM      8  C   UNL     1       3.547   4.979  18.476  0.00  0.00    +0.000 C 
ATOM      9  C   UNL     1       2.144   4.945  17.801  0.00  0.00    +0.000 C 
ATOM     10  C   UNL     1       3.298   5.372  19.947  0.00  0.00    +0.000 C 
ATOM     11  C   UNL     1       4.155   3.596  18.226  0.00  0.00    +0.000 C 
ATOM     12  C   UNL     1       4.335   3.361  16.901  0.00  0.00    +0.000 C 
ENDROOT
BRANCH   1  13
ATOM     13  C   UNL     1       7.536   6.960  17.781  0.00  0.00    +0.000 C 
ATOM     14  O   UNL     1       7.923   6.366  18.788  0.00  0.00    +0.000 OA
BRANCH  13  16
ATOM     15  C   UNL     1       8.567   9.036  18.598  0.00  0.00    +0.000 C 
ATOM     16  C   UNL     1       7.883   8.385  17.610  0.00  0.00    +0.000 C 
BRANCH  15  20
ATOM     17  C   UNL     1       9.967  13.138  18.436  0.00  0.00    +0.000 A 
ATOM     18  C   UNL     1       8.820  12.723  17.748  0.00  0.00    +0.000 A 
ATOM     19  C   UNL     1       8.363  11.404  17.797  0.00  0.00    +0.000 A 
ATOM     20  C   UNL     1       9.046  10.429  18.523  0.00  0.00    +0.000 A 
ATOM     21  C   UNL     1      10.203  10.821  19.210  0.00  0.00    +0.000 A 
ATOM     22  C   UNL     1      10.658  12.154  19.164  0.00  0.00    +0.000 A 
BRANCH  17  23
ATOM     23  N   UNL     1      10.392  14.474  18.449  0.00  0.00    +0.000 N 
BRANCH  23  25
ATOM     24  C   UNL     1       9.711  16.042  20.272  0.00  0.00    +0.000 C 
ATOM     25  C   UNL     1       9.412  15.480  18.891  0.00  0.00    +0.000 C 
ENDBRANCH  23  25
BRANCH  23  26
ATOM     26  C   UNL     1      11.424  14.870  17.473  0.00  0.00    +0.000 C 
ATOM     27  C   UNL     1      11.087  16.150  16.718  0.00  0.00    +0.000 C 
ENDBRANCH  23  26
ENDBRANCH  17  23
ENDBRANCH  15  20
ENDBRANCH  13  16
ENDBRANCH   1  13
BRANCH   4  28
ATOM     28  O   UNL     1       4.965   3.487  14.048  0.00  0.00    +0.000 OA
BRANCH  28  29
ATOM     29  C   UNL     1       5.199   3.438  12.670  0.00  0.00    +0.000 C 
ATOM     30  O   UNL     1       6.287   3.460  12.125  0.00  0.00    +0.000 OA
BRANCH  29  31
ATOM     31  C   UNL     1       3.922   3.411  11.901  0.00  0.00    +0.000 C 
ATOM     32  C   UNL     1       3.845   4.109  10.556  0.00  0.00    +0.000 C 
ATOM     33  C   UNL     1       3.796   2.612  10.622  0.00  0.00    +0.000 C 
ENDBRANCH  29  31
ENDBRANCH  28  29
ENDBRANCH   4  28
TORSDOF 9
ENDMDL
