MODEL 1
REMARK VINA RESULT:      -7.6      0.000      0.000
REMARK  Name = 
REMARK  4 active torsions:
REMARK  status: ('A' for Active; 'I' for Inactive)
REMARK    1  A    between atoms: C_1  and  C_2
REMARK    2  A    between atoms: N_4  and  S_5
REMARK    3  A    between atoms: S_5  and  C_8
REMARK    4  A    between atoms: C_8  and  C_9
REMARK                            x       y       z     vdW  Elec       q    Type
REMARK                         _______ _______ _______ _____ _____    ______ ____
ROOT
ATOM      1  C   UNL     1       1.644   2.579  21.878  0.00  0.00    +0.000 C 
ATOM      2  C   UNL     1       1.888   3.494  20.681  0.00  0.00    +0.000 C 
ATOM      3  C   UNL     1       3.279   3.276  20.080  0.00  0.00    +0.000 C 
ATOM      4  N   UNL     1       3.508   4.199  18.901  0.00  0.00    +0.000 N 
ATOM      5  C   UNL     1       2.864   5.509  19.080  0.00  0.00    +0.000 A 
ATOM      6  C   UNL     1       3.102   6.584  18.216  0.00  0.00    +0.000 A 
ATOM      7  C   UNL     1       2.573   7.855  18.462  0.00  0.00    +0.000 A 
ATOM      8  C   UNL     1       1.817   8.075  19.601  0.00  0.00    +0.000 A 
ATOM      9  F   UNL     1       1.347   9.302  19.851  0.00  0.00    +0.000 F 
ATOM     10  C   UNL     1       1.574   7.044  20.493  0.00  0.00    +0.000 A 
ATOM     11  C   UNL     1       2.079   5.768  20.224  0.00  0.00    +0.000 A 
ATOM     12  O   UNL     1       1.771   4.832  21.177  0.00  0.00    +0.000 OA
ENDROOT
BRANCH   4  13
ATOM     13  S   UNL     1       3.347   3.414  17.382  0.00  0.00    +0.000 S 
ATOM     14  O   UNL     1       4.034   2.139  17.465  0.00  0.00    +0.000 OA
ATOM     15  O   UNL     1       1.950   3.461  17.013  0.00  0.00    +0.000 OA
BRANCH  13  16
ATOM     16  C   UNL     1       4.334   4.406  16.230  0.00  0.00    +0.000 C 
BRANCH  16  17
ATOM     17  C   UNL     1       5.839   4.130  16.348  0.00  0.00    +0.000 C 
ATOM     18  C   UNL     1       6.484   4.902  17.499  0.00  0.00    +0.000 C 
ATOM     19  C   UNL     1       7.203   6.043  16.814  0.00  0.00    +0.000 C 
ATOM     20  O   UNL     1       7.662   5.478  15.587  0.00  0.00    +0.000 OA
ATOM     21  C   UNL     1       6.627   4.602  15.122  0.00  0.00    +0.000 C 
ENDBRANCH  16  17
ENDBRANCH  13  16
ENDBRANCH   4  13
TORSDOF 3
ENDMDL
MODEL 2
REMARK VINA RESULT:      -7.6      2.852      4.441
REMARK  Name = 
REMARK  4 active torsions:
REMARK  status: ('A' for Active; 'I' for Inactive)
REMARK    1  A    between atoms: C_1  and  C_2
REMARK    2  A    between atoms: N_4  and  S_5
REMARK    3  A    between atoms: S_5  and  C_8
REMARK    4  A    between atoms: C_8  and  C_9
REMARK                            x       y       z     vdW  Elec       q    Type
REMARK                         _______ _______ _______ _____ _____    ______ ____
ROOT
ATOM      1  C   UNL     1       2.659   8.544  18.132  0.00  0.00    +0.000 C 
ATOM      2  C   UNL     1       3.249   7.138  18.065  0.00  0.00    +0.000 C 
ATOM      3  C   UNL     1       4.015   6.909  16.760  0.00  0.00    +0.000 C 
ATOM      4  N   UNL     1       4.584   5.507  16.706  0.00  0.00    +0.000 N 
ATOM      5  C   UNL     1       3.705   4.520  17.350  0.00  0.00    +0.000 A 
ATOM      6  C   UNL     1       3.928   3.141  17.250  0.00  0.00    +0.000 A 
ATOM      7  C   UNL     1       3.024   2.211  17.771  0.00  0.00    +0.000 A 
ATOM      8  C   UNL     1       1.859   2.651  18.377  0.00  0.00    +0.000 A 
ATOM      9  F   UNL     1       0.979   1.756  18.838  0.00  0.00    +0.000 F 
ATOM     10  C   UNL     1       1.590   4.005  18.480  0.00  0.00    +0.000 A 
ATOM     11  C   UNL     1       2.515   4.930  17.986  0.00  0.00    +0.000 A 
ATOM     12  O   UNL     1       2.138   6.239  18.147  0.00  0.00    +0.000 OA
ENDROOT
BRANCH   4  13
ATOM     13  S   UNL     1       6.267   5.443  17.045  0.00  0.00    +0.000 S 
ATOM     14  O   UNL     1       6.800   6.784  16.905  0.00  0.00    +0.000 OA
ATOM     15  O   UNL     1       6.433   4.724  18.288  0.00  0.00    +0.000 OA
BRANCH  13  16
ATOM     16  C   UNL     1       6.990   4.503  15.675  0.00  0.00    +0.000 C 
BRANCH  16  17
ATOM     17  C   UNL     1       6.505   4.987  14.302  0.00  0.00    +0.000 C 
ATOM     18  C   UNL     1       5.498   4.028  13.668  0.00  0.00    +0.000 C 
ATOM     19  C   UNL     1       6.306   3.291  12.622  0.00  0.00    +0.000 C 
ATOM     20  O   UNL     1       7.220   4.272  12.135  0.00  0.00    +0.000 OA
ATOM     21  C   UNL     1       7.630   5.053  13.264  0.00  0.00    +0.000 C 
ENDBRANCH  16  17
ENDBRANCH  13  16
ENDBRANCH   4  13
TORSDOF 3
ENDMDL
MODEL 3
REMARK VINA RESULT:      -7.5      0.619      1.114
REMARK  Name = 
REMARK  4 active torsions:
REMARK  status: ('A' for Active; 'I' for Inactive)
REMARK    1  A    between atoms: C_1  and  C_2
REMARK    2  A    between atoms: N_4  and  S_5
REMARK    3  A    between atoms: S_5  and  C_8
REMARK    4  A    between atoms: C_8  and  C_9
REMARK                            x       y       z     vdW  Elec       q    Type
REMARK                         _______ _______ _______ _____ _____    ______ ____
ROOT
ATOM      1  C   UNL     1       1.507   2.503  21.941  0.00  0.00    +0.000 C 
ATOM      2  C   UNL     1       1.856   3.354  20.722  0.00  0.00    +0.000 C 
ATOM      3  C   UNL     1       3.275   3.069  20.225  0.00  0.00    +0.000 C 
ATOM      4  N   UNL     1       3.608   3.929  19.023  0.00  0.00    +0.000 N 
ATOM      5  C   UNL     1       2.995   5.263  19.100  0.00  0.00    +0.000 A 
ATOM      6  C   UNL     1       3.321   6.289  18.206  0.00  0.00    +0.000 A 
ATOM      7  C   UNL     1       2.817   7.585  18.358  0.00  0.00    +0.000 A 
ATOM      8  C   UNL     1       1.996   7.879  19.434  0.00  0.00    +0.000 A 
ATOM      9  F   UNL     1       1.548   9.129  19.596  0.00  0.00    +0.000 F 
ATOM     10  C   UNL     1       1.664   6.898  20.353  0.00  0.00    +0.000 A 
ATOM     11  C   UNL     1       2.145   5.598  20.176  0.00  0.00    +0.000 A 
ATOM     12  O   UNL     1       1.748   4.716  21.148  0.00  0.00    +0.000 OA
ENDROOT
BRANCH   4  13
ATOM     13  S   UNL     1       3.522   3.077  17.534  0.00  0.00    +0.000 S 
ATOM     14  O   UNL     1       3.431   1.662  17.835  0.00  0.00    +0.000 OA
ATOM     15  O   UNL     1       2.505   3.713  16.727  0.00  0.00    +0.000 OA
BRANCH  13  16
ATOM     16  C   UNL     1       5.152   3.292  16.771  0.00  0.00    +0.000 C 
BRANCH  16  17
ATOM     17  C   UNL     1       5.299   4.642  16.055  0.00  0.00    +0.000 C 
ATOM     18  C   UNL     1       5.439   4.485  14.541  0.00  0.00    +0.000 C 
ATOM     19  C   UNL     1       6.914   4.699  14.287  0.00  0.00    +0.000 C 
ATOM     20  O   UNL     1       7.291   5.687  15.245  0.00  0.00    +0.000 OA
ATOM     21  C   UNL     1       6.576   5.389  16.451  0.00  0.00    +0.000 C 
ENDBRANCH  16  17
ENDBRANCH  13  16
ENDBRANCH   4  13
TORSDOF 3
ENDMDL
MODEL 4
REMARK VINA RESULT:      -7.5      3.054      6.345
REMARK  Name = 
REMARK  4 active torsions:
REMARK  status: ('A' for Active; 'I' for Inactive)
REMARK    1  A    between atoms: C_1  and  C_2
REMARK    2  A    between atoms: N_4  and  S_5
REMARK    3  A    between atoms: S_5  and  C_8
REMARK    4  A    between atoms: C_8  and  C_9
REMARK                            x       y       z     vdW  Elec       q    Type
REMARK                         _______ _______ _______ _____ _____    ______ ____
ROOT
ATOM      1  C   UNL     1       7.838   5.867  19.315  0.00  0.00    +0.000 C 
ATOM      2  C   UNL     1       6.871   5.551  18.177  0.00  0.00    +0.000 C 
ATOM      3  C   UNL     1       5.998   4.335  18.501  0.00  0.00    +0.000 C 
ATOM      4  N   UNL     1       5.053   4.030  17.357  0.00  0.00    +0.000 N 
ATOM      5  C   UNL     1       5.651   4.311  16.044  0.00  0.00    +0.000 A 
ATOM      6  C   UNL     1       5.042   3.923  14.845  0.00  0.00    +0.000 A 
ATOM      7  C   UNL     1       5.674   4.095  13.610  0.00  0.00    +0.000 A 
ATOM      8  C   UNL     1       6.948   4.635  13.561  0.00  0.00    +0.000 A 
ATOM      9  F   UNL     1       7.563   4.761  12.380  0.00  0.00    +0.000 F 
ATOM     10  C   UNL     1       7.596   5.014  14.724  0.00  0.00    +0.000 A 
ATOM     11  C   UNL     1       6.944   4.869  15.953  0.00  0.00    +0.000 A 
ATOM     12  O   UNL     1       7.685   5.281  17.031  0.00  0.00    +0.000 OA
ENDROOT
BRANCH   4  13
ATOM     13  S   UNL     1       3.443   4.555  17.648  0.00  0.00    +0.000 S 
ATOM     14  O   UNL     1       3.385   5.980  17.386  0.00  0.00    +0.000 OA
ATOM     15  O   UNL     1       2.559   3.653  16.946  0.00  0.00    +0.000 OA
BRANCH  13  16
ATOM     16  C   UNL     1       3.209   4.395  19.438  0.00  0.00    +0.000 C 
BRANCH  16  17
ATOM     17  C   UNL     1       2.748   2.991  19.853  0.00  0.00    +0.000 C 
ATOM     18  C   UNL     1       1.252   2.936  20.158  0.00  0.00    +0.000 C 
ATOM     19  C   UNL     1       1.189   2.914  21.669  0.00  0.00    +0.000 C 
ATOM     20  O   UNL     1       2.333   2.151  22.053  0.00  0.00    +0.000 OA
ATOM     21  C   UNL     1       3.392   2.516  21.159  0.00  0.00    +0.000 C 
ENDBRANCH  16  17
ENDBRANCH  13  16
ENDBRANCH   4  13
TORSDOF 3
ENDMDL
MODEL 5
REMARK VINA RESULT:      -7.3      2.452      4.017
REMARK  Name = 
REMARK  4 active torsions:
REMARK  status: ('A' for Active; 'I' for Inactive)
REMARK    1  A    between atoms: C_1  and  C_2
REMARK    2  A    between atoms: N_4  and  S_5
REMARK    3  A    between atoms: S_5  and  C_8
REMARK    4  A    between atoms: C_8  and  C_9
REMARK                            x       y       z     vdW  Elec       q    Type
REMARK                         _______ _______ _______ _____ _____    ______ ____
ROOT
ATOM      1  C   UNL     1       2.518   8.431  17.956  0.00  0.00    +0.000 C 
ATOM      2  C   UNL     1       3.191   7.149  18.438  0.00  0.00    +0.000 C 
ATOM      3  C   UNL     1       3.722   6.317  17.268  0.00  0.00    +0.000 C 
ATOM      4  N   UNL     1       4.377   5.045  17.764  0.00  0.00    +0.000 N 
ATOM      5  C   UNL     1       3.708   4.495  18.952  0.00  0.00    +0.000 A 
ATOM      6  C   UNL     1       4.013   3.229  19.465  0.00  0.00    +0.000 A 
ATOM      7  C   UNL     1       3.292   2.672  20.526  0.00  0.00    +0.000 A 
ATOM      8  C   UNL     1       2.228   3.369  21.072  0.00  0.00    +0.000 A 
ATOM      9  F   UNL     1       1.517   2.814  22.060  0.00  0.00    +0.000 F 
ATOM     10  C   UNL     1       1.879   4.616  20.582  0.00  0.00    +0.000 A 
ATOM     11  C   UNL     1       2.625   5.180  19.543  0.00  0.00    +0.000 A 
ATOM     12  O   UNL     1       2.185   6.417  19.146  0.00  0.00    +0.000 OA
ENDROOT
BRANCH   4  13
ATOM     13  S   UNL     1       6.093   5.116  17.755  0.00  0.00    +0.000 S 
ATOM     14  O   UNL     1       6.480   6.488  17.490  0.00  0.00    +0.000 OA
ATOM     15  O   UNL     1       6.562   4.449  18.949  0.00  0.00    +0.000 OA
BRANCH  13  16
ATOM     16  C   UNL     1       6.597   4.190  16.282  0.00  0.00    +0.000 C 
BRANCH  16  17
ATOM     17  C   UNL     1       6.260   4.923  14.976  0.00  0.00    +0.000 C 
ATOM     18  C   UNL     1       5.263   4.148  14.114  0.00  0.00    +0.000 C 
ATOM     19  C   UNL     1       6.118   3.540  13.025  0.00  0.00    +0.000 C 
ATOM     20  O   UNL     1       7.121   4.525  12.781  0.00  0.00    +0.000 OA
ATOM     21  C   UNL     1       7.472   5.083  14.054  0.00  0.00    +0.000 C 
ENDBRANCH  16  17
ENDBRANCH  13  16
ENDBRANCH   4  13
TORSDOF 3
ENDMDL
MODEL 6
REMARK VINA RESULT:      -7.1      3.203      6.449
REMARK  Name = 
REMARK  4 active torsions:
REMARK  status: ('A' for Active; 'I' for Inactive)
REMARK    1  A    between atoms: C_1  and  C_2
REMARK    2  A    between atoms: N_4  and  S_5
REMARK    3  A    between atoms: S_5  and  C_8
REMARK    4  A    between atoms: C_8  and  C_9
REMARK                            x       y       z     vdW  Elec       q    Type
REMARK                         _______ _______ _______ _____ _____    ______ ____
ROOT
ATOM      1  C   UNL     1       7.976   8.030  17.998  0.00  0.00    +0.000 C 
ATOM      2  C   UNL     1       7.061   6.936  17.454  0.00  0.00    +0.000 C 
ATOM      3  C   UNL     1       6.964   5.751  18.418  0.00  0.00    +0.000 C 
ATOM      4  N   UNL     1       6.062   4.671  17.859  0.00  0.00    +0.000 N 
ATOM      5  C   UNL     1       6.161   4.560  16.396  0.00  0.00    +0.000 A 
ATOM      6  C   UNL     1       5.572   3.508  15.684  0.00  0.00    +0.000 A 
ATOM      7  C   UNL     1       5.769   3.351  14.308  0.00  0.00    +0.000 A 
ATOM      8  C   UNL     1       6.588   4.236  13.627  0.00  0.00    +0.000 A 
ATOM      9  F   UNL     1       6.804   4.058  12.319  0.00  0.00    +0.000 F 
ATOM     10  C   UNL     1       7.205   5.279  14.296  0.00  0.00    +0.000 A 
ATOM     11  C   UNL     1       6.978   5.448  15.665  0.00  0.00    +0.000 A 
ATOM     12  O   UNL     1       7.642   6.515  16.215  0.00  0.00    +0.000 OA
ENDROOT
BRANCH   4  13
ATOM     13  S   UNL     1       4.499   4.653  18.573  0.00  0.00    +0.000 S 
ATOM     14  O   UNL     1       4.501   5.602  19.670  0.00  0.00    +0.000 OA
ATOM     15  O   UNL     1       3.532   4.781  17.506  0.00  0.00    +0.000 OA
BRANCH  13  16
ATOM     16  C   UNL     1       4.356   3.026  19.356  0.00  0.00    +0.000 C 
BRANCH  16  17
ATOM     17  C   UNL     1       3.013   2.827  20.071  0.00  0.00    +0.000 C 
ATOM     18  C   UNL     1       2.047   1.960  19.265  0.00  0.00    +0.000 C 
ATOM     19  C   UNL     1       1.073   2.954  18.672  0.00  0.00    +0.000 C 
ATOM     20  O   UNL     1       0.939   3.953  19.682  0.00  0.00    +0.000 OA
ATOM     21  C   UNL     1       2.239   4.136  20.257  0.00  0.00    +0.000 C 
ENDBRANCH  16  17
ENDBRANCH  13  16
ENDBRANCH   4  13
TORSDOF 3
ENDMDL
MODEL 7
REMARK VINA RESULT:      -7.0      2.974      6.427
REMARK  Name = 
REMARK  4 active torsions:
REMARK  status: ('A' for Active; 'I' for Inactive)
REMARK    1  A    between atoms: C_1  and  C_2
REMARK    2  A    between atoms: N_4  and  S_5
REMARK    3  A    between atoms: S_5  and  C_8
REMARK    4  A    between atoms: C_8  and  C_9
REMARK                            x       y       z     vdW  Elec       q    Type
REMARK                         _______ _______ _______ _____ _____    ______ ____
ROOT
ATOM      1  C   UNL     1       8.046   6.661  18.809  0.00  0.00    +0.000 C 
ATOM      2  C   UNL     1       7.038   6.035  17.848  0.00  0.00    +0.000 C 
ATOM      3  C   UNL     1       6.432   4.753  18.424  0.00  0.00    +0.000 C 
ATOM      4  N   UNL     1       5.443   4.140  17.454  0.00  0.00    +0.000 N 
ATOM      5  C   UNL     1       5.844   4.326  16.052  0.00  0.00    +0.000 A 
ATOM      6  C   UNL     1       5.192   3.679  14.995  0.00  0.00    +0.000 A 
ATOM      7  C   UNL     1       5.654   3.775  13.678  0.00  0.00    +0.000 A 
ATOM      8  C   UNL     1       6.800   4.502  13.405  0.00  0.00    +0.000 A 
ATOM      9  F   UNL     1       7.258   4.558  12.149  0.00  0.00    +0.000 F 
ATOM     10  C   UNL     1       7.487   5.141  14.422  0.00  0.00    +0.000 A 
ATOM     11  C   UNL     1       7.001   5.068  15.732  0.00  0.00    +0.000 A 
ATOM     12  O   UNL     1       7.764   5.741  16.650  0.00  0.00    +0.000 OA
ENDROOT
BRANCH   4  13
ATOM     13  S   UNL     1       3.805   4.433  17.878  0.00  0.00    +0.000 S 
ATOM     14  O   UNL     1       3.452   5.757  17.403  0.00  0.00    +0.000 OA
ATOM     15  O   UNL     1       3.035   3.284  17.459  0.00  0.00    +0.000 OA
BRANCH  13  16
ATOM     16  C   UNL     1       3.801   4.564  19.686  0.00  0.00    +0.000 C 
BRANCH  16  17
ATOM     17  C   UNL     1       2.386   4.680  20.269  0.00  0.00    +0.000 C 
ATOM     18  C   UNL     1       2.199   3.818  21.518  0.00  0.00    +0.000 C 
ATOM     19  C   UNL     1       1.411   2.626  21.023  0.00  0.00    +0.000 C 
ATOM     20  O   UNL     1       0.547   3.170  20.025  0.00  0.00    +0.000 OA
ATOM     21  C   UNL     1       1.306   4.159  19.317  0.00  0.00    +0.000 C 
ENDBRANCH  16  17
ENDBRANCH  13  16
ENDBRANCH   4  13
TORSDOF 3
ENDMDL
MODEL 8
REMARK VINA RESULT:      -6.9      3.238      6.399
REMARK  Name = 
REMARK  4 active torsions:
REMARK  status: ('A' for Active; 'I' for Inactive)
REMARK    1  A    between atoms: C_1  and  C_2
REMARK    2  A    between atoms: N_4  and  S_5
REMARK    3  A    between atoms: S_5  and  C_8
REMARK    4  A    between atoms: C_8  and  C_9
REMARK                            x       y       z     vdW  Elec       q    Type
REMARK                         _______ _______ _______ _____ _____    ______ ____
ROOT
ATOM      1  C   UNL     1       8.228   7.867  18.205  0.00  0.00    +0.000 C 
ATOM      2  C   UNL     1       7.088   7.117  17.519  0.00  0.00    +0.000 C 
ATOM      3  C   UNL     1       6.325   6.230  18.505  0.00  0.00    +0.000 C 
ATOM      4  N   UNL     1       5.205   5.486  17.807  0.00  0.00    +0.000 N 
ATOM      5  C   UNL     1       5.557   5.106  16.431  0.00  0.00    +0.000 A 
ATOM      6  C   UNL     1       4.761   4.246  15.665  0.00  0.00    +0.000 A 
ATOM      7  C   UNL     1       5.163   3.803  14.401  0.00  0.00    +0.000 A 
ATOM      8  C   UNL     1       6.392   4.195  13.896  0.00  0.00    +0.000 A 
ATOM      9  F   UNL     1       6.788   3.736  12.703  0.00  0.00    +0.000 F 
ATOM     10  C   UNL     1       7.219   5.029  14.628  0.00  0.00    +0.000 A 
ATOM     11  C   UNL     1       6.796   5.494  15.877  0.00  0.00    +0.000 A 
ATOM     12  O   UNL     1       7.699   6.312  16.505  0.00  0.00    +0.000 OA
ENDROOT
BRANCH   4  13
ATOM     13  S   UNL     1       3.655   6.168  18.092  0.00  0.00    +0.000 S 
ATOM     14  O   UNL     1       3.536   6.423  19.515  0.00  0.00    +0.000 OA
ATOM     15  O   UNL     1       3.472   7.245  17.145  0.00  0.00    +0.000 OA
BRANCH  13  16
ATOM     16  C   UNL     1       2.480   4.830  17.754  0.00  0.00    +0.000 C 
BRANCH  16  17
ATOM     17  C   UNL     1       2.611   3.662  18.741  0.00  0.00    +0.000 C 
ATOM     18  C   UNL     1       2.067   2.353  18.169  0.00  0.00    +0.000 C 
ATOM     19  C   UNL     1       0.726   2.188  18.848  0.00  0.00    +0.000 C 
ATOM     20  O   UNL     1       0.933   2.716  20.157  0.00  0.00    +0.000 OA
ATOM     21  C   UNL     1       1.781   3.862  20.012  0.00  0.00    +0.000 C 
ENDBRANCH  16  17
ENDBRANCH  13  16
ENDBRANCH   4  13
TORSDOF 3
ENDMDL
MODEL 9
REMARK VINA RESULT:      -6.9      2.268      3.311
REMARK  Name = 
REMARK  4 active torsions:
REMARK  status: ('A' for Active; 'I' for Inactive)
REMARK    1  A    between atoms: C_1  and  C_2
REMARK    2  A    between atoms: N_4  and  S_5
REMARK    3  A    between atoms: S_5  and  C_8
REMARK    4  A    between atoms: C_8  and  C_9
REMARK                            x       y       z     vdW  Elec       q    Type
REMARK                         _______ _______ _______ _____ _____    ______ ____
ROOT
ATOM      1  C   UNL     1       4.377   2.208  19.979  0.00  0.00    +0.000 C 
ATOM      2  C   UNL     1       4.587   3.397  19.045  0.00  0.00    +0.000 C 
ATOM      3  C   UNL     1       5.922   4.096  19.313  0.00  0.00    +0.000 C 
ATOM      4  N   UNL     1       6.109   5.278  18.386  0.00  0.00    +0.000 N 
ATOM      5  C   UNL     1       4.843   5.967  18.093  0.00  0.00    +0.000 A 
ATOM      6  C   UNL     1       4.797   7.195  17.422  0.00  0.00    +0.000 A 
ATOM      7  C   UNL     1       3.598   7.893  17.250  0.00  0.00    +0.000 A 
ATOM      8  C   UNL     1       2.424   7.381  17.776  0.00  0.00    +0.000 A 
ATOM      9  F   UNL     1       1.287   8.072  17.642  0.00  0.00    +0.000 F 
ATOM     10  C   UNL     1       2.428   6.179  18.463  0.00  0.00    +0.000 A 
ATOM     11  C   UNL     1       3.625   5.470  18.604  0.00  0.00    +0.000 A 
ATOM     12  O   UNL     1       3.502   4.296  19.300  0.00  0.00    +0.000 OA
ENDROOT
BRANCH   4  13
ATOM     13  S   UNL     1       7.183   4.958  17.084  0.00  0.00    +0.000 S 
ATOM     14  O   UNL     1       7.493   6.221  16.442  0.00  0.00    +0.000 OA
ATOM     15  O   UNL     1       8.247   4.124  17.593  0.00  0.00    +0.000 OA
BRANCH  13  16
ATOM     16  C   UNL     1       6.195   4.043  15.871  0.00  0.00    +0.000 C 
BRANCH  16  17
ATOM     17  C   UNL     1       6.066   4.782  14.532  0.00  0.00    +0.000 C 
ATOM     18  C   UNL     1       5.135   4.063  13.557  0.00  0.00    +0.000 C 
ATOM     19  C   UNL     1       6.076   3.391  12.582  0.00  0.00    +0.000 C 
ATOM     20  O   UNL     1       7.162   4.309  12.459  0.00  0.00    +0.000 OA
ATOM     21  C   UNL     1       7.390   4.857  13.764  0.00  0.00    +0.000 C 
ENDBRANCH  16  17
ENDBRANCH  13  16
ENDBRANCH   4  13
TORSDOF 3
ENDMDL
