MODEL 1
REMARK VINA RESULT:      -8.3      0.000      0.000
REMARK  Name = 
REMARK  7 active torsions:
REMARK  status: ('A' for Active; 'I' for Inactive)
REMARK    1  A    between atoms: C_1  and  C_2
REMARK    2  A    between atoms: C_2  and  C_3
REMARK    3  A    between atoms: C_2  and  C_4
REMARK    4  A    between atoms: C_2  and  C_5
REMARK    5  A    between atoms: C_8  and  C_9
REMARK    6  A    between atoms: C_9  and  N_10
REMARK    7  A    between atoms: C_17  and  C_18
REMARK                            x       y       z     vdW  Elec       q    Type
REMARK                         _______ _______ _______ _____ _____    ______ ____
ROOT
ATOM      1  N   UNL     1       5.251   5.947  18.030  0.00  0.00    +0.000 NA
ATOM      2  C   UNL     1       4.188   5.412  17.147  0.00  0.00    +0.000 C 
ATOM      3  C   UNL     1       4.665   4.449  16.041  0.00  0.00    +0.000 C 
ATOM      4  N   UNL     1       5.885   4.915  15.427  0.00  0.00    +0.000 N 
ATOM      5  C   UNL     1       6.687   5.875  15.980  0.00  0.00    +0.000 A 
ATOM      6  N   UNL     1       7.747   6.034  15.217  0.00  0.00    +0.000 NA
ATOM      7  N   UNL     1       7.641   5.151  14.164  0.00  0.00    +0.000 NA
ATOM      8  C   UNL     1       6.520   4.472  14.303  0.00  0.00    +0.000 A 
ATOM      9  C   UNL     1       6.309   6.606  17.223  0.00  0.00    +0.000 C 
ENDROOT
BRANCH   8  10
ATOM     10  C   UNL     1       6.073   3.353  13.372  0.00  0.00    +0.000 C 
ATOM     11  C   UNL     1       5.088   3.660  12.262  0.00  0.00    +0.000 C 
ATOM     12  C   UNL     1       6.523   3.450  11.926  0.00  0.00    +0.000 C 
ENDBRANCH   8  10
BRANCH   1  13
ATOM     13  C   UNL     1       5.826   4.945  18.951  0.00  0.00    +0.000 C 
BRANCH  13  17
ATOM     14  C   UNL     1       2.985   3.106  20.070  0.00  0.00    +0.000 A 
ATOM     15  N   UNL     1       3.892   2.184  20.324  0.00  0.00    +0.000 NA
ATOM     16  N   UNL     1       5.108   2.690  19.902  0.00  0.00    +0.000 NA
ATOM     17  C   UNL     1       4.865   3.887  19.414  0.00  0.00    +0.000 A 
ATOM     18  O   UNL     1       3.530   4.218  19.470  0.00  0.00    +0.000 OA
BRANCH  14  20
ATOM     19  C   UNL     1       1.123   4.645  20.608  0.00  0.00    +0.000 C 
ATOM     20  C   UNL     1       1.534   3.165  20.463  0.00  0.00    +0.000 C 
ATOM     21  C   UNL     1       1.301   2.460  21.811  0.00  0.00    +0.000 C 
ATOM     22  C   UNL     1       0.645   2.488  19.407  0.00  0.00    +0.000 C 
ENDBRANCH  14  20
ENDBRANCH  13  17
ENDBRANCH   1  13
TORSDOF 4
ENDMDL
MODEL 2
REMARK VINA RESULT:      -8.0      3.833      7.268
REMARK  Name = 
REMARK  7 active torsions:
REMARK  status: ('A' for Active; 'I' for Inactive)
REMARK    1  A    between atoms: C_1  and  C_2
REMARK    2  A    between atoms: C_2  and  C_3
REMARK    3  A    between atoms: C_2  and  C_4
REMARK    4  A    between atoms: C_2  and  C_5
REMARK    5  A    between atoms: C_8  and  C_9
REMARK    6  A    between atoms: C_9  and  N_10
REMARK    7  A    between atoms: C_17  and  C_18
REMARK                            x       y       z     vdW  Elec       q    Type
REMARK                         _______ _______ _______ _____ _____    ______ ____
ROOT
ATOM      1  N   UNL     1       7.416   6.218  16.709  0.00  0.00    +0.000 NA
ATOM      2  C   UNL     1       6.705   5.514  15.618  0.00  0.00    +0.000 C 
ATOM      3  C   UNL     1       5.285   5.021  15.959  0.00  0.00    +0.000 C 
ATOM      4  N   UNL     1       5.229   4.450  17.283  0.00  0.00    +0.000 N 
ATOM      5  C   UNL     1       6.203   4.639  18.226  0.00  0.00    +0.000 A 
ATOM      6  N   UNL     1       5.834   4.047  19.341  0.00  0.00    +0.000 NA
ATOM      7  N   UNL     1       4.595   3.481  19.126  0.00  0.00    +0.000 NA
ATOM      8  C   UNL     1       4.232   3.739  17.885  0.00  0.00    +0.000 A 
ATOM      9  C   UNL     1       7.468   5.368  17.926  0.00  0.00    +0.000 C 
ENDROOT
BRANCH   8  10
ATOM     10  C   UNL     1       2.894   3.336  17.282  0.00  0.00    +0.000 C 
ATOM     11  C   UNL     1       1.792   2.826  18.190  0.00  0.00    +0.000 C 
ATOM     12  C   UNL     1       1.699   4.204  17.634  0.00  0.00    +0.000 C 
ENDBRANCH   8  10
BRANCH   1  13
ATOM     13  C   UNL     1       6.871   7.557  17.014  0.00  0.00    +0.000 C 
BRANCH  13  17
ATOM     14  C   UNL     1       8.801  10.202  18.422  0.00  0.00    +0.000 A 
ATOM     15  N   UNL     1       9.283   9.228  19.168  0.00  0.00    +0.000 NA
ATOM     16  N   UNL     1       8.609   8.076  18.808  0.00  0.00    +0.000 NA
ATOM     17  C   UNL     1       7.756   8.420  17.868  0.00  0.00    +0.000 A 
ATOM     18  O   UNL     1       7.806   9.766  17.578  0.00  0.00    +0.000 OA
BRANCH  14  20
ATOM     19  C   UNL     1       9.345  12.268  19.671  0.00  0.00    +0.000 C 
ATOM     20  C   UNL     1       9.272  11.623  18.272  0.00  0.00    +0.000 C 
ATOM     21  C   UNL     1       8.290  12.438  17.410  0.00  0.00    +0.000 C 
ATOM     22  C   UNL     1      10.657  11.682  17.607  0.00  0.00    +0.000 C 
ENDBRANCH  14  20
ENDBRANCH  13  17
ENDBRANCH   1  13
TORSDOF 4
ENDMDL
MODEL 3
REMARK VINA RESULT:      -7.6      1.956      7.195
REMARK  Name = 
REMARK  7 active torsions:
REMARK  status: ('A' for Active; 'I' for Inactive)
REMARK    1  A    between atoms: C_1  and  C_2
REMARK    2  A    between atoms: C_2  and  C_3
REMARK    3  A    between atoms: C_2  and  C_4
REMARK    4  A    between atoms: C_2  and  C_5
REMARK    5  A    between atoms: C_8  and  C_9
REMARK    6  A    between atoms: C_9  and  N_10
REMARK    7  A    between atoms: C_17  and  C_18
REMARK                            x       y       z     vdW  Elec       q    Type
REMARK                         _______ _______ _______ _____ _____    ______ ____
ROOT
ATOM      1  N   UNL     1       5.310   5.348  17.664  0.00  0.00    +0.000 NA
ATOM      2  C   UNL     1       5.237   5.204  19.137  0.00  0.00    +0.000 C 
ATOM      3  C   UNL     1       4.356   4.046  19.648  0.00  0.00    +0.000 C 
ATOM      4  N   UNL     1       3.128   3.947  18.896  0.00  0.00    +0.000 N 
ATOM      5  C   UNL     1       2.935   4.557  17.686  0.00  0.00    +0.000 A 
ATOM      6  N   UNL     1       1.747   4.226  17.230  0.00  0.00    +0.000 NA
ATOM      7  N   UNL     1       1.167   3.374  18.147  0.00  0.00    +0.000 NA
ATOM      8  C   UNL     1       2.012   3.201  19.143  0.00  0.00    +0.000 A 
ATOM      9  C   UNL     1       3.947   5.474  17.089  0.00  0.00    +0.000 C 
ENDROOT
BRANCH   8  10
ATOM     10  C   UNL     1       1.764   2.277  20.327  0.00  0.00    +0.000 C 
ATOM     11  C   UNL     1       2.603   2.433  21.580  0.00  0.00    +0.000 C 
ATOM     12  C   UNL     1       1.194   2.914  21.581  0.00  0.00    +0.000 C 
ENDBRANCH   8  10
BRANCH   1  13
ATOM     13  C   UNL     1       6.077   4.278  16.994  0.00  0.00    +0.000 C 
BRANCH  13  17
ATOM     14  C   UNL     1       6.720   4.417  13.491  0.00  0.00    +0.000 A 
ATOM     15  N   UNL     1       7.704   5.207  13.873  0.00  0.00    +0.000 NA
ATOM     16  N   UNL     1       7.605   5.335  15.247  0.00  0.00    +0.000 NA
ATOM     17  C   UNL     1       6.565   4.619  15.615  0.00  0.00    +0.000 A 
ATOM     18  O   UNL     1       5.936   4.015  14.549  0.00  0.00    +0.000 OA
BRANCH  14  20
ATOM     19  C   UNL     1       4.918   3.604  12.002  0.00  0.00    +0.000 C 
ATOM     20  C   UNL     1       6.441   3.807  12.144  0.00  0.00    +0.000 C 
ATOM     21  C   UNL     1       7.130   2.438  12.008  0.00  0.00    +0.000 C 
ATOM     22  C   UNL     1       6.945   4.714  11.009  0.00  0.00    +0.000 C 
ENDBRANCH  14  20
ENDBRANCH  13  17
ENDBRANCH   1  13
TORSDOF 4
ENDMDL
MODEL 4
REMARK VINA RESULT:      -7.4      1.857      7.105
REMARK  Name = 
REMARK  7 active torsions:
REMARK  status: ('A' for Active; 'I' for Inactive)
REMARK    1  A    between atoms: C_1  and  C_2
REMARK    2  A    between atoms: C_2  and  C_3
REMARK    3  A    between atoms: C_2  and  C_4
REMARK    4  A    between atoms: C_2  and  C_5
REMARK    5  A    between atoms: C_8  and  C_9
REMARK    6  A    between atoms: C_9  and  N_10
REMARK    7  A    between atoms: C_17  and  C_18
REMARK                            x       y       z     vdW  Elec       q    Type
REMARK                         _______ _______ _______ _____ _____    ______ ____
ROOT
ATOM      1  N   UNL     1       6.093   5.372  17.788  0.00  0.00    +0.000 NA
ATOM      2  C   UNL     1       6.057   5.051  19.233  0.00  0.00    +0.000 C 
ATOM      3  C   UNL     1       5.024   3.986  19.652  0.00  0.00    +0.000 C 
ATOM      4  N   UNL     1       3.766   4.175  18.969  0.00  0.00    +0.000 N 
ATOM      5  C   UNL     1       3.625   4.959  17.857  0.00  0.00    +0.000 A 
ATOM      6  N   UNL     1       2.382   4.877  17.436  0.00  0.00    +0.000 NA
ATOM      7  N   UNL     1       1.711   4.013  18.274  0.00  0.00    +0.000 NA
ATOM      8  C   UNL     1       2.556   3.584  19.190  0.00  0.00    +0.000 A 
ATOM      9  C   UNL     1       4.746   5.780  17.316  0.00  0.00    +0.000 C 
ENDROOT
BRANCH   8  10
ATOM     10  C   UNL     1       2.212   2.563  20.265  0.00  0.00    +0.000 C 
ATOM     11  C   UNL     1       2.319   2.956  21.725  0.00  0.00    +0.000 C 
ATOM     12  C   UNL     1       0.973   2.841  21.097  0.00  0.00    +0.000 C 
ENDBRANCH   8  10
BRANCH   1  13
ATOM     13  C   UNL     1       6.652   4.293  16.947  0.00  0.00    +0.000 C 
BRANCH  13  17
ATOM     14  C   UNL     1       6.704   4.388  13.385  0.00  0.00    +0.000 A 
ATOM     15  N   UNL     1       7.570   5.361  13.591  0.00  0.00    +0.000 NA
ATOM     16  N   UNL     1       7.663   5.531  14.960  0.00  0.00    +0.000 NA
ATOM     17  C   UNL     1       6.846   4.654  15.502  0.00  0.00    +0.000 A 
ATOM     18  O   UNL     1       6.184   3.898  14.561  0.00  0.00    +0.000 OA
BRANCH  14  20
ATOM     19  C   UNL     1       6.966   4.439  10.925  0.00  0.00    +0.000 C 
ATOM     20  C   UNL     1       6.339   3.677  12.110  0.00  0.00    +0.000 C 
ATOM     21  C   UNL     1       4.812   3.645  11.917  0.00  0.00    +0.000 C 
ATOM     22  C   UNL     1       6.853   2.228  12.116  0.00  0.00    +0.000 C 
ENDBRANCH  14  20
ENDBRANCH  13  17
ENDBRANCH   1  13
TORSDOF 4
ENDMDL
MODEL 5
REMARK VINA RESULT:      -7.4      3.902      7.709
REMARK  Name = 
REMARK  7 active torsions:
REMARK  status: ('A' for Active; 'I' for Inactive)
REMARK    1  A    between atoms: C_1  and  C_2
REMARK    2  A    between atoms: C_2  and  C_3
REMARK    3  A    between atoms: C_2  and  C_4
REMARK    4  A    between atoms: C_2  and  C_5
REMARK    5  A    between atoms: C_8  and  C_9
REMARK    6  A    between atoms: C_9  and  N_10
REMARK    7  A    between atoms: C_17  and  C_18
REMARK                            x       y       z     vdW  Elec       q    Type
REMARK                         _______ _______ _______ _____ _____    ______ ____
ROOT
ATOM      1  N   UNL     1       7.464   6.066  17.453  0.00  0.00    +0.000 NA
ATOM      2  C   UNL     1       6.264   6.614  16.779  0.00  0.00    +0.000 C 
ATOM      3  C   UNL     1       4.954   6.538  17.588  0.00  0.00    +0.000 C 
ATOM      4  N   UNL     1       4.829   5.273  18.271  0.00  0.00    +0.000 N 
ATOM      5  C   UNL     1       5.876   4.413  18.460  0.00  0.00    +0.000 A 
ATOM      6  N   UNL     1       5.458   3.385  19.165  0.00  0.00    +0.000 NA
ATOM      7  N   UNL     1       4.126   3.588  19.455  0.00  0.00    +0.000 NA
ATOM      8  C   UNL     1       3.756   4.735  18.922  0.00  0.00    +0.000 A 
ATOM      9  C   UNL     1       7.224   4.663  17.875  0.00  0.00    +0.000 C 
ENDROOT
BRANCH   8  10
ATOM     10  C   UNL     1       2.370   5.345  19.074  0.00  0.00    +0.000 C 
ATOM     11  C   UNL     1       1.577   5.082  20.339  0.00  0.00    +0.000 C 
ATOM     12  C   UNL     1       2.210   6.415  20.139  0.00  0.00    +0.000 C 
ENDBRANCH   8  10
BRANCH   1  13
ATOM     13  C   UNL     1       7.946   6.890  18.581  0.00  0.00    +0.000 C 
BRANCH  13  17
ATOM     14  C   UNL     1       8.995  10.296  18.565  0.00  0.00    +0.000 A 
ATOM     15  N   UNL     1       8.187  10.365  17.525  0.00  0.00    +0.000 NA
ATOM     16  N   UNL     1       7.692   9.090  17.318  0.00  0.00    +0.000 NA
ATOM     17  C   UNL     1       8.232   8.324  18.240  0.00  0.00    +0.000 A 
ATOM     18  O   UNL     1       9.089   9.017  19.065  0.00  0.00    +0.000 OA
BRANCH  14  20
ATOM     19  C   UNL     1       9.094  12.749  18.870  0.00  0.00    +0.000 C 
ATOM     20  C   UNL     1       9.677  11.397  19.330  0.00  0.00    +0.000 C 
ATOM     21  C   UNL     1      11.192  11.400  19.057  0.00  0.00    +0.000 C 
ATOM     22  C   UNL     1       9.462  11.236  20.844  0.00  0.00    +0.000 C 
ENDBRANCH  14  20
ENDBRANCH  13  17
ENDBRANCH   1  13
TORSDOF 4
ENDMDL
MODEL 6
REMARK VINA RESULT:      -7.4      4.177      7.595
REMARK  Name = 
REMARK  7 active torsions:
REMARK  status: ('A' for Active; 'I' for Inactive)
REMARK    1  A    between atoms: C_1  and  C_2
REMARK    2  A    between atoms: C_2  and  C_3
REMARK    3  A    between atoms: C_2  and  C_4
REMARK    4  A    between atoms: C_2  and  C_5
REMARK    5  A    between atoms: C_8  and  C_9
REMARK    6  A    between atoms: C_9  and  N_10
REMARK    7  A    between atoms: C_17  and  C_18
REMARK                            x       y       z     vdW  Elec       q    Type
REMARK                         _______ _______ _______ _____ _____    ______ ____
ROOT
ATOM      1  N   UNL     1       7.721   6.679  17.109  0.00  0.00    +0.000 NA
ATOM      2  C   UNL     1       7.135   5.887  16.004  0.00  0.00    +0.000 C 
ATOM      3  C   UNL     1       5.691   5.394  16.232  0.00  0.00    +0.000 C 
ATOM      4  N   UNL     1       5.505   4.917  17.582  0.00  0.00    +0.000 N 
ATOM      5  C   UNL     1       6.373   5.190  18.603  0.00  0.00    +0.000 A 
ATOM      6  N   UNL     1       5.897   4.672  19.714  0.00  0.00    +0.000 NA
ATOM      7  N   UNL     1       4.693   4.071  19.414  0.00  0.00    +0.000 NA
ATOM      8  C   UNL     1       4.458   4.233  18.128  0.00  0.00    +0.000 A 
ATOM      9  C   UNL     1       7.655   5.919  18.383  0.00  0.00    +0.000 C 
ENDROOT
BRANCH   8  10
ATOM     10  C   UNL     1       3.194   3.764  17.421  0.00  0.00    +0.000 C 
ATOM     11  C   UNL     1       2.029   3.251  18.244  0.00  0.00    +0.000 C 
ATOM     12  C   UNL     1       1.947   4.604  17.628  0.00  0.00    +0.000 C 
ENDBRANCH   8  10
BRANCH   1  13
ATOM     13  C   UNL     1       7.133   8.027  17.258  0.00  0.00    +0.000 C 
BRANCH  13  17
ATOM     14  C   UNL     1       8.892  10.892  18.442  0.00  0.00    +0.000 A 
ATOM     15  N   UNL     1       9.487  10.001  19.211  0.00  0.00    +0.000 NA
ATOM     16  N   UNL     1       8.897   8.780  18.939  0.00  0.00    +0.000 NA
ATOM     17  C   UNL     1       7.978   9.004  18.026  0.00  0.00    +0.000 A 
ATOM     18  O   UNL     1       7.902  10.331  17.668  0.00  0.00    +0.000 OA
BRANCH  14  20
ATOM     19  C   UNL     1       8.186  12.936  17.239  0.00  0.00    +0.000 C 
ATOM     20  C   UNL     1       9.234  12.337  18.200  0.00  0.00    +0.000 C 
ATOM     21  C   UNL     1      10.623  12.472  17.551  0.00  0.00    +0.000 C 
ATOM     22  C   UNL     1       9.238  13.134  19.515  0.00  0.00    +0.000 C 
ENDBRANCH  14  20
ENDBRANCH  13  17
ENDBRANCH   1  13
TORSDOF 4
ENDMDL
MODEL 7
REMARK VINA RESULT:      -7.3      1.928      7.118
REMARK  Name = 
REMARK  7 active torsions:
REMARK  status: ('A' for Active; 'I' for Inactive)
REMARK    1  A    between atoms: C_1  and  C_2
REMARK    2  A    between atoms: C_2  and  C_3
REMARK    3  A    between atoms: C_2  and  C_4
REMARK    4  A    between atoms: C_2  and  C_5
REMARK    5  A    between atoms: C_8  and  C_9
REMARK    6  A    between atoms: C_9  and  N_10
REMARK    7  A    between atoms: C_17  and  C_18
REMARK                            x       y       z     vdW  Elec       q    Type
REMARK                         _______ _______ _______ _____ _____    ______ ____
ROOT
ATOM      1  N   UNL     1       6.513   5.647  17.659  0.00  0.00    +0.000 NA
ATOM      2  C   UNL     1       6.581   5.297  19.096  0.00  0.00    +0.000 C 
ATOM      3  C   UNL     1       5.290   4.706  19.699  0.00  0.00    +0.000 C 
ATOM      4  N   UNL     1       4.120   5.407  19.226  0.00  0.00    +0.000 N 
ATOM      5  C   UNL     1       4.128   6.236  18.137  0.00  0.00    +0.000 A 
ATOM      6  N   UNL     1       2.904   6.670  17.927  0.00  0.00    +0.000 NA
ATOM      7  N   UNL     1       2.087   6.101  18.880  0.00  0.00    +0.000 NA
ATOM      8  C   UNL     1       2.826   5.331  19.653  0.00  0.00    +0.000 A 
ATOM      9  C   UNL     1       5.381   6.574  17.405  0.00  0.00    +0.000 C 
ENDROOT
BRANCH   8  10
ATOM     10  C   UNL     1       2.279   4.478  20.789  0.00  0.00    +0.000 C 
ATOM     11  C   UNL     1       0.986   3.713  20.588  0.00  0.00    +0.000 C 
ATOM     12  C   UNL     1       2.280   2.975  20.573  0.00  0.00    +0.000 C 
ENDBRANCH   8  10
BRANCH   1  13
ATOM     13  C   UNL     1       6.459   4.476  16.759  0.00  0.00    +0.000 C 
BRANCH  13  17
ATOM     14  C   UNL     1       6.856   4.427  13.217  0.00  0.00    +0.000 A 
ATOM     15  N   UNL     1       7.791   5.319  13.478  0.00  0.00    +0.000 NA
ATOM     16  N   UNL     1       7.771   5.532  14.844  0.00  0.00    +0.000 NA
ATOM     17  C   UNL     1       6.824   4.760  15.330  0.00  0.00    +0.000 A 
ATOM     18  O   UNL     1       6.181   4.035  14.351  0.00  0.00    +0.000 OA
BRANCH  14  20
ATOM     19  C   UNL     1       6.904   4.626  10.751  0.00  0.00    +0.000 C 
ATOM     20  C   UNL     1       6.543   3.705  11.934  0.00  0.00    +0.000 C 
ATOM     21  C   UNL     1       5.045   3.364  11.847  0.00  0.00    +0.000 C 
ATOM     22  C   UNL     1       7.342   2.395  11.826  0.00  0.00    +0.000 C 
ENDBRANCH  14  20
ENDBRANCH  13  17
ENDBRANCH   1  13
TORSDOF 4
ENDMDL
MODEL 8
REMARK VINA RESULT:      -7.1      4.035      7.456
REMARK  Name = 
REMARK  7 active torsions:
REMARK  status: ('A' for Active; 'I' for Inactive)
REMARK    1  A    between atoms: C_1  and  C_2
REMARK    2  A    between atoms: C_2  and  C_3
REMARK    3  A    between atoms: C_2  and  C_4
REMARK    4  A    between atoms: C_2  and  C_5
REMARK    5  A    between atoms: C_8  and  C_9
REMARK    6  A    between atoms: C_9  and  N_10
REMARK    7  A    between atoms: C_17  and  C_18
REMARK                            x       y       z     vdW  Elec       q    Type
REMARK                         _______ _______ _______ _____ _____    ______ ____
ROOT
ATOM      1  N   UNL     1       7.723   6.166  17.626  0.00  0.00    +0.000 NA
ATOM      2  C   UNL     1       7.329   5.146  16.627  0.00  0.00    +0.000 C 
ATOM      3  C   UNL     1       5.818   4.856  16.533  0.00  0.00    +0.000 C 
ATOM      4  N   UNL     1       5.211   4.794  17.842  0.00  0.00    +0.000 N 
ATOM      5  C   UNL     1       5.813   5.271  18.974  0.00  0.00    +0.000 A 
ATOM      6  N   UNL     1       4.987   5.125  19.986  0.00  0.00    +0.000 NA
ATOM      7  N   UNL     1       3.824   4.564  19.502  0.00  0.00    +0.000 NA
ATOM      8  C   UNL     1       3.963   4.377  18.205  0.00  0.00    +0.000 A 
ATOM      9  C   UNL     1       7.206   5.802  18.969  0.00  0.00    +0.000 C 
ENDROOT
BRANCH   8  10
ATOM     10  C   UNL     1       2.871   3.833  17.295  0.00  0.00    +0.000 C 
ATOM     11  C   UNL     1       2.042   2.650  17.753  0.00  0.00    +0.000 C 
ATOM     12  C   UNL     1       1.440   4.011  17.767  0.00  0.00    +0.000 C 
ENDBRANCH   8  10
BRANCH   1  13
ATOM     13  C   UNL     1       7.337   7.544  17.259  0.00  0.00    +0.000 C 
BRANCH  13  17
ATOM     14  C   UNL     1       8.772  10.599  18.404  0.00  0.00    +0.000 A 
ATOM     15  N   UNL     1       9.369   9.801  19.267  0.00  0.00    +0.000 NA
ATOM     16  N   UNL     1       8.897   8.524  19.023  0.00  0.00    +0.000 NA
ATOM     17  C   UNL     1       8.040   8.625  18.031  0.00  0.00    +0.000 A 
ATOM     18  O   UNL     1       7.892   9.922  17.592  0.00  0.00    +0.000 OA
BRANCH  14  20
ATOM     19  C   UNL     1      10.365  12.178  17.359  0.00  0.00    +0.000 C 
ATOM     20  C   UNL     1       9.021  12.053  18.105  0.00  0.00    +0.000 C 
ATOM     21  C   UNL     1       9.105  12.875  19.404  0.00  0.00    +0.000 C 
ATOM     22  C   UNL     1       7.896  12.641  17.236  0.00  0.00    +0.000 C 
ENDBRANCH  14  20
ENDBRANCH  13  17
ENDBRANCH   1  13
TORSDOF 4
ENDMDL
MODEL 9
REMARK VINA RESULT:      -7.1      6.287      8.774
REMARK  Name = 
REMARK  7 active torsions:
REMARK  status: ('A' for Active; 'I' for Inactive)
REMARK    1  A    between atoms: C_1  and  C_2
REMARK    2  A    between atoms: C_2  and  C_3
REMARK    3  A    between atoms: C_2  and  C_4
REMARK    4  A    between atoms: C_2  and  C_5
REMARK    5  A    between atoms: C_8  and  C_9
REMARK    6  A    between atoms: C_9  and  N_10
REMARK    7  A    between atoms: C_17  and  C_18
REMARK                            x       y       z     vdW  Elec       q    Type
REMARK                         _______ _______ _______ _____ _____    ______ ____
ROOT
ATOM      1  N   UNL     1       9.632  10.234  18.825  0.00  0.00    +0.000 NA
ATOM      2  C   UNL     1       9.379  10.989  20.074  0.00  0.00    +0.000 C 
ATOM      3  C   UNL     1       8.876  12.435  19.886  0.00  0.00    +0.000 C 
ATOM      4  N   UNL     1       9.584  13.104  18.821  0.00  0.00    +0.000 N 
ATOM      5  C   UNL     1      10.335  12.446  17.887  0.00  0.00    +0.000 A 
ATOM      6  N   UNL     1      10.797  13.321  17.021  0.00  0.00    +0.000 NA
ATOM      7  N   UNL     1      10.323  14.563  17.386  0.00  0.00    +0.000 NA
ATOM      8  C   UNL     1       9.582  14.423  18.467  0.00  0.00    +0.000 A 
ATOM      9  C   UNL     1      10.578  10.977  17.955  0.00  0.00    +0.000 C 
ENDROOT
BRANCH   8  10
ATOM     10  C   UNL     1       8.828  15.558  19.144  0.00  0.00    +0.000 C 
ATOM     11  C   UNL     1       8.487  16.803  18.349  0.00  0.00    +0.000 C 
ATOM     12  C   UNL     1       7.413  15.819  18.661  0.00  0.00    +0.000 C 
ENDBRANCH   8  10
BRANCH   1  13
ATOM     13  C   UNL     1       8.405   9.864  18.089  0.00  0.00    +0.000 C 
BRANCH  13  17
ATOM     14  C   UNL     1       7.147   6.612  17.350  0.00  0.00    +0.000 A 
ATOM     15  N   UNL     1       7.818   6.289  18.437  0.00  0.00    +0.000 NA
ATOM     16  N   UNL     1       8.449   7.439  18.876  0.00  0.00    +0.000 NA
ATOM     17  C   UNL     1       8.126   8.389  18.027  0.00  0.00    +0.000 A 
ATOM     18  O   UNL     1       7.310   7.937  17.014  0.00  0.00    +0.000 OA
BRANCH  14  20
ATOM     19  C   UNL     1       5.075   6.760  16.004  0.00  0.00    +0.000 C 
ATOM     20  C   UNL     1       6.157   5.807  16.553  0.00  0.00    +0.000 C 
ATOM     21  C   UNL     1       5.472   4.748  17.436  0.00  0.00    +0.000 C 
ATOM     22  C   UNL     1       6.845   5.084  15.383  0.00  0.00    +0.000 C 
ENDBRANCH  14  20
ENDBRANCH  13  17
ENDBRANCH   1  13
TORSDOF 4
ENDMDL
