MODEL 1
REMARK VINA RESULT:      -7.9      0.000      0.000
REMARK  Name = 
REMARK  6 active torsions:
REMARK  status: ('A' for Active; 'I' for Inactive)
REMARK    1  A    between atoms: C_1  and  C_2
REMARK    2  A    between atoms: C_2  and  C_3
REMARK    3  A    between atoms: C_3  and  C_4
REMARK    4  A    between atoms: C_7  and  N_8
REMARK    5  A    between atoms: C_15  and  C_16
REMARK    6  A    between atoms: C_15  and  C_17
REMARK                            x       y       z     vdW  Elec       q    Type
REMARK                         _______ _______ _______ _____ _____    ______ ____
ROOT
ATOM      1  N   UNL     1       3.736   3.574  19.202  0.00  0.00    +0.000 N 
ATOM      2  C   UNL     1       4.063   2.659  20.170  0.00  0.00    +0.000 C 
ATOM      3  N   UNL     1       5.168   1.888  20.002  0.00  0.00    +0.000 N 
ATOM      4  N   UNL     1       3.375   2.388  21.224  0.00  0.00    +0.000 NA
ATOM      5  C   UNL     1       2.229   3.062  21.420  0.00  0.00    +0.000 C 
ATOM      6  N   UNL     1       1.411   2.545  22.373  0.00  0.00    +0.000 N 
ATOM      7  N   UNL     1       1.835   4.079  20.751  0.00  0.00    +0.000 NA
ATOM      8  C   UNL     1       2.586   4.455  19.545  0.00  0.00    +0.000 C 
ATOM      9  C   UNL     1       1.447   4.411  18.498  0.00  0.00    +0.000 C 
ATOM     10  C   UNL     1       3.036   5.913  19.723  0.00  0.00    +0.000 C 
ATOM     11  H   UNL     1       5.304   1.574  19.054  0.00  0.00    +0.000 HD
ATOM     12  H   UNL     1       5.190   1.123  20.668  0.00  0.00    +0.000 HD
ATOM     13  H   UNL     1       1.719   1.607  22.607  0.00  0.00    +0.000 HD
ATOM     14  H   UNL     1       0.452   2.557  22.048  0.00  0.00    +0.000 HD
ENDROOT
BRANCH   1  18
ATOM     15  C   UNL     1       6.287   4.532  15.906  0.00  0.00    +0.000 A 
ATOM     16  C   UNL     1       5.004   4.024  15.703  0.00  0.00    +0.000 A 
ATOM     17  C   UNL     1       4.187   3.696  16.787  0.00  0.00    +0.000 A 
ATOM     18  C   UNL     1       4.578   3.920  18.114  0.00  0.00    +0.000 A 
ATOM     19  C   UNL     1       5.873   4.439  18.299  0.00  0.00    +0.000 A 
ATOM     20  C   UNL     1       6.727   4.715  17.218  0.00  0.00    +0.000 A 
BRANCH  15  21
ATOM     21  C   UNL     1       7.160   4.863  14.727  0.00  0.00    +0.000 C 
BRANCH  21  23
ATOM     22  C   UNL     1       7.442   4.679  12.233  0.00  0.00    +0.000 C 
ATOM     23  C   UNL     1       6.652   4.208  13.441  0.00  0.00    +0.000 C 
ENDBRANCH  21  23
ENDBRANCH  15  21
ENDBRANCH   1  18
TORSDOF 3
ENDMDL
MODEL 2
REMARK VINA RESULT:      -7.8      0.217      1.116
REMARK  Name = 
REMARK  6 active torsions:
REMARK  status: ('A' for Active; 'I' for Inactive)
REMARK    1  A    between atoms: C_1  and  C_2
REMARK    2  A    between atoms: C_2  and  C_3
REMARK    3  A    between atoms: C_3  and  C_4
REMARK    4  A    between atoms: C_7  and  N_8
REMARK    5  A    between atoms: C_15  and  C_16
REMARK    6  A    between atoms: C_15  and  C_17
REMARK                            x       y       z     vdW  Elec       q    Type
REMARK                         _______ _______ _______ _____ _____    ______ ____
ROOT
ATOM      1  N   UNL     1       3.754   3.511  19.265  0.00  0.00    +0.000 N 
ATOM      2  C   UNL     1       4.047   2.612  20.259  0.00  0.00    +0.000 C 
ATOM      3  N   UNL     1       5.160   1.844  20.146  0.00  0.00    +0.000 N 
ATOM      4  N   UNL     1       3.320   2.355  21.290  0.00  0.00    +0.000 NA
ATOM      5  C   UNL     1       2.164   3.026  21.432  0.00  0.00    +0.000 C 
ATOM      6  N   UNL     1       1.313   2.520  22.360  0.00  0.00    +0.000 N 
ATOM      7  N   UNL     1       1.793   4.031  20.732  0.00  0.00    +0.000 NA
ATOM      8  C   UNL     1       2.588   4.392  19.550  0.00  0.00    +0.000 C 
ATOM      9  C   UNL     1       1.491   4.327  18.461  0.00  0.00    +0.000 C 
ATOM     10  C   UNL     1       3.025   5.855  19.723  0.00  0.00    +0.000 C 
ATOM     11  H   UNL     1       5.334   1.516  19.209  0.00  0.00    +0.000 HD
ATOM     12  H   UNL     1       5.160   1.089  20.823  0.00  0.00    +0.000 HD
ATOM     13  H   UNL     1       1.615   1.588  22.620  0.00  0.00    +0.000 HD
ATOM     14  H   UNL     1       0.366   2.523  21.998  0.00  0.00    +0.000 HD
ENDROOT
BRANCH   1  18
ATOM     15  C   UNL     1       6.391   4.602  16.081  0.00  0.00    +0.000 A 
ATOM     16  C   UNL     1       6.736   4.826  17.413  0.00  0.00    +0.000 A 
ATOM     17  C   UNL     1       5.858   4.484  18.444  0.00  0.00    +0.000 A 
ATOM     18  C   UNL     1       4.635   3.844  18.205  0.00  0.00    +0.000 A 
ATOM     19  C   UNL     1       4.307   3.620  16.854  0.00  0.00    +0.000 A 
ATOM     20  C   UNL     1       5.155   4.016  15.806  0.00  0.00    +0.000 A 
BRANCH  15  21
ATOM     21  C   UNL     1       7.342   4.994  14.982  0.00  0.00    +0.000 C 
BRANCH  21  23
ATOM     22  C   UNL     1       7.676   5.131  12.493  0.00  0.00    +0.000 C 
ATOM     23  C   UNL     1       6.853   4.521  13.612  0.00  0.00    +0.000 C 
ENDBRANCH  21  23
ENDBRANCH  15  21
ENDBRANCH   1  18
TORSDOF 3
ENDMDL
MODEL 3
REMARK VINA RESULT:      -7.5      3.296      5.534
REMARK  Name = 
REMARK  6 active torsions:
REMARK  status: ('A' for Active; 'I' for Inactive)
REMARK    1  A    between atoms: C_1  and  C_2
REMARK    2  A    between atoms: C_2  and  C_3
REMARK    3  A    between atoms: C_3  and  C_4
REMARK    4  A    between atoms: C_7  and  N_8
REMARK    5  A    between atoms: C_15  and  C_16
REMARK    6  A    between atoms: C_15  and  C_17
REMARK                            x       y       z     vdW  Elec       q    Type
REMARK                         _______ _______ _______ _____ _____    ______ ____
ROOT
ATOM      1  N   UNL     1       3.218   4.959  19.237  0.00  0.00    +0.000 N 
ATOM      2  C   UNL     1       4.550   4.700  19.436  0.00  0.00    +0.000 C 
ATOM      3  N   UNL     1       5.443   5.716  19.323  0.00  0.00    +0.000 N 
ATOM      4  N   UNL     1       5.075   3.545  19.656  0.00  0.00    +0.000 NA
ATOM      5  C   UNL     1       4.258   2.479  19.709  0.00  0.00    +0.000 C 
ATOM      6  N   UNL     1       4.879   1.273  19.653  0.00  0.00    +0.000 N 
ATOM      7  N   UNL     1       2.979   2.518  19.740  0.00  0.00    +0.000 NA
ATOM      8  C   UNL     1       2.313   3.808  19.514  0.00  0.00    +0.000 C 
ATOM      9  C   UNL     1       1.411   3.436  18.314  0.00  0.00    +0.000 C 
ATOM     10  C   UNL     1       1.423   4.082  20.735  0.00  0.00    +0.000 C 
ATOM     11  H   UNL     1       5.240   6.353  18.569  0.00  0.00    +0.000 HD
ATOM     12  H   UNL     1       6.395   5.369  19.288  0.00  0.00    +0.000 HD
ATOM     13  H   UNL     1       5.838   1.403  19.352  0.00  0.00    +0.000 HD
ATOM     14  H   UNL     1       4.370   0.652  19.034  0.00  0.00    +0.000 HD
ENDROOT
BRANCH   1  18
ATOM     15  C   UNL     1       1.642   8.914  18.843  0.00  0.00    +0.000 A 
ATOM     16  C   UNL     1       2.157   8.229  17.743  0.00  0.00    +0.000 A 
ATOM     17  C   UNL     1       2.687   6.946  17.887  0.00  0.00    +0.000 A 
ATOM     18  C   UNL     1       2.668   6.261  19.109  0.00  0.00    +0.000 A 
ATOM     19  C   UNL     1       2.139   6.965  20.207  0.00  0.00    +0.000 A 
ATOM     20  C   UNL     1       1.659   8.280  20.086  0.00  0.00    +0.000 A 
BRANCH  15  21
ATOM     21  C   UNL     1       1.091  10.305  18.673  0.00  0.00    +0.000 C 
BRANCH  21  23
ATOM     22  C   UNL     1      -1.259  10.133  17.791  0.00  0.00    +0.000 C 
ATOM     23  C   UNL     1      -0.398  10.373  19.017  0.00  0.00    +0.000 C 
ENDBRANCH  21  23
ENDBRANCH  15  21
ENDBRANCH   1  18
TORSDOF 3
ENDMDL
MODEL 4
REMARK VINA RESULT:      -7.5      3.328      5.659
REMARK  Name = 
REMARK  6 active torsions:
REMARK  status: ('A' for Active; 'I' for Inactive)
REMARK    1  A    between atoms: C_1  and  C_2
REMARK    2  A    between atoms: C_2  and  C_3
REMARK    3  A    between atoms: C_3  and  C_4
REMARK    4  A    between atoms: C_7  and  N_8
REMARK    5  A    between atoms: C_15  and  C_16
REMARK    6  A    between atoms: C_15  and  C_17
REMARK                            x       y       z     vdW  Elec       q    Type
REMARK                         _______ _______ _______ _____ _____    ______ ____
ROOT
ATOM      1  N   UNL     1       3.118   4.934  19.111  0.00  0.00    +0.000 N 
ATOM      2  C   UNL     1       4.420   4.585  19.367  0.00  0.00    +0.000 C 
ATOM      3  N   UNL     1       5.367   5.555  19.407  0.00  0.00    +0.000 N 
ATOM      4  N   UNL     1       4.873   3.387  19.507  0.00  0.00    +0.000 NA
ATOM      5  C   UNL     1       4.003   2.367  19.407  0.00  0.00    +0.000 C 
ATOM      6  N   UNL     1       4.566   1.139  19.273  0.00  0.00    +0.000 N 
ATOM      7  N   UNL     1       2.728   2.473  19.361  0.00  0.00    +0.000 NA
ATOM      8  C   UNL     1       2.143   3.813  19.220  0.00  0.00    +0.000 C 
ATOM      9  C   UNL     1       1.305   3.604  17.936  0.00  0.00    +0.000 C 
ATOM     10  C   UNL     1       1.187   4.021  20.405  0.00  0.00    +0.000 C 
ATOM     11  H   UNL     1       5.246   6.270  18.707  0.00  0.00    +0.000 HD
ATOM     12  H   UNL     1       6.302   5.162  19.398  0.00  0.00    +0.000 HD
ATOM     13  H   UNL     1       5.549   1.243  19.046  0.00  0.00    +0.000 HD
ATOM     14  H   UNL     1       4.071   0.607  18.567  0.00  0.00    +0.000 HD
ENDROOT
BRANCH   1  18
ATOM     15  C   UNL     1       1.600   8.930  19.013  0.00  0.00    +0.000 A 
ATOM     16  C   UNL     1       1.656   8.208  20.204  0.00  0.00    +0.000 A 
ATOM     17  C   UNL     1       2.136   6.896  20.221  0.00  0.00    +0.000 A 
ATOM     18  C   UNL     1       2.642   6.270  19.075  0.00  0.00    +0.000 A 
ATOM     19  C   UNL     1       2.584   7.016  17.883  0.00  0.00    +0.000 A 
ATOM     20  C   UNL     1       2.047   8.313  17.843  0.00  0.00    +0.000 A 
BRANCH  15  21
ATOM     21  C   UNL     1       1.064  10.336  19.010  0.00  0.00    +0.000 C 
BRANCH  21  23
ATOM     22  C   UNL     1      -1.258  10.256  18.045  0.00  0.00    +0.000 C 
ATOM     23  C   UNL     1      -0.435  10.374  19.314  0.00  0.00    +0.000 C 
ENDBRANCH  21  23
ENDBRANCH  15  21
ENDBRANCH   1  18
TORSDOF 3
ENDMDL
MODEL 5
REMARK VINA RESULT:      -7.1      2.518      3.723
REMARK  Name = 
REMARK  6 active torsions:
REMARK  status: ('A' for Active; 'I' for Inactive)
REMARK    1  A    between atoms: C_1  and  C_2
REMARK    2  A    between atoms: C_2  and  C_3
REMARK    3  A    between atoms: C_3  and  C_4
REMARK    4  A    between atoms: C_7  and  N_8
REMARK    5  A    between atoms: C_15  and  C_16
REMARK    6  A    between atoms: C_15  and  C_17
REMARK                            x       y       z     vdW  Elec       q    Type
REMARK                         _______ _______ _______ _____ _____    ______ ____
ROOT
ATOM      1  N   UNL     1       3.658   4.598  19.520  0.00  0.00    +0.000 N 
ATOM      2  C   UNL     1       2.583   5.169  20.152  0.00  0.00    +0.000 C 
ATOM      3  N   UNL     1       2.589   6.505  20.387  0.00  0.00    +0.000 N 
ATOM      4  N   UNL     1       1.562   4.544  20.629  0.00  0.00    +0.000 NA
ATOM      5  C   UNL     1       1.521   3.207  20.497  0.00  0.00    +0.000 C 
ATOM      6  N   UNL     1       0.587   2.581  21.258  0.00  0.00    +0.000 N 
ATOM      7  N   UNL     1       2.315   2.501  19.784  0.00  0.00    +0.000 NA
ATOM      8  C   UNL     1       3.492   3.154  19.194  0.00  0.00    +0.000 C 
ATOM      9  C   UNL     1       4.613   2.262  19.778  0.00  0.00    +0.000 C 
ATOM     10  C   UNL     1       3.424   2.931  17.675  0.00  0.00    +0.000 C 
ATOM     11  H   UNL     1       3.488   6.864  20.666  0.00  0.00    +0.000 HD
ATOM     12  H   UNL     1       1.851   6.771  21.030  0.00  0.00    +0.000 HD
ATOM     13  H   UNL     1       0.240   3.224  21.961  0.00  0.00    +0.000 HD
ATOM     14  H   UNL     1       0.984   1.747  21.675  0.00  0.00    +0.000 HD
ENDROOT
BRANCH   1  18
ATOM     15  C   UNL     1       6.823   6.866  17.753  0.00  0.00    +0.000 A 
ATOM     16  C   UNL     1       7.061   6.010  18.828  0.00  0.00    +0.000 A 
ATOM     17  C   UNL     1       6.016   5.289  19.410  0.00  0.00    +0.000 A 
ATOM     18  C   UNL     1       4.708   5.333  18.910  0.00  0.00    +0.000 A 
ATOM     19  C   UNL     1       4.488   6.197  17.822  0.00  0.00    +0.000 A 
ATOM     20  C   UNL     1       5.520   6.973  17.267  0.00  0.00    +0.000 A 
BRANCH  15  21
ATOM     21  C   UNL     1       7.958   7.649  17.150  0.00  0.00    +0.000 C 
BRANCH  21  23
ATOM     22  C   UNL     1       8.865   9.325  18.792  0.00  0.00    +0.000 C 
ATOM     23  C   UNL     1       7.947   9.110  17.604  0.00  0.00    +0.000 C 
ENDBRANCH  21  23
ENDBRANCH  15  21
ENDBRANCH   1  18
TORSDOF 3
ENDMDL
MODEL 6
REMARK VINA RESULT:      -7.1      2.619      3.754
REMARK  Name = 
REMARK  6 active torsions:
REMARK  status: ('A' for Active; 'I' for Inactive)
REMARK    1  A    between atoms: C_1  and  C_2
REMARK    2  A    between atoms: C_2  and  C_3
REMARK    3  A    between atoms: C_3  and  C_4
REMARK    4  A    between atoms: C_7  and  N_8
REMARK    5  A    between atoms: C_15  and  C_16
REMARK    6  A    between atoms: C_15  and  C_17
REMARK                            x       y       z     vdW  Elec       q    Type
REMARK                         _______ _______ _______ _____ _____    ______ ____
ROOT
ATOM      1  N   UNL     1       3.597   4.751  19.168  0.00  0.00    +0.000 N 
ATOM      2  C   UNL     1       2.508   5.282  19.809  0.00  0.00    +0.000 C 
ATOM      3  N   UNL     1       2.565   6.562  20.255  0.00  0.00    +0.000 N 
ATOM      4  N   UNL     1       1.422   4.658  20.109  0.00  0.00    +0.000 NA
ATOM      5  C   UNL     1       1.322   3.363  19.762  0.00  0.00    +0.000 C 
ATOM      6  N   UNL     1       0.301   2.686  20.348  0.00  0.00    +0.000 N 
ATOM      7  N   UNL     1       2.131   2.728  19.001  0.00  0.00    +0.000 NA
ATOM      8  C   UNL     1       3.382   3.389  18.604  0.00  0.00    +0.000 C 
ATOM      9  C   UNL     1       4.407   2.347  19.112  0.00  0.00    +0.000 C 
ATOM     10  C   UNL     1       3.420   3.410  17.068  0.00  0.00    +0.000 C 
ATOM     11  H   UNL     1       3.458   6.816  20.649  0.00  0.00    +0.000 HD
ATOM     12  H   UNL     1       1.795   6.771  20.881  0.00  0.00    +0.000 HD
ATOM     13  H   UNL     1      -0.066   3.232  21.119  0.00  0.00    +0.000 HD
ATOM     14  H   UNL     1       0.621   1.773  20.651  0.00  0.00    +0.000 HD
ENDROOT
BRANCH   1  18
ATOM     15  C   UNL     1       7.007   6.971  17.854  0.00  0.00    +0.000 A 
ATOM     16  C   UNL     1       5.748   7.183  17.294  0.00  0.00    +0.000 A 
ATOM     17  C   UNL     1       4.645   6.438  17.717  0.00  0.00    +0.000 A 
ATOM     18  C   UNL     1       4.728   5.503  18.757  0.00  0.00    +0.000 A 
ATOM     19  C   UNL     1       6.005   5.307  19.314  0.00  0.00    +0.000 A 
ATOM     20  C   UNL     1       7.133   6.007  18.854  0.00  0.00    +0.000 A 
BRANCH  15  21
ATOM     21  C   UNL     1       8.188   7.770  17.373  0.00  0.00    +0.000 C 
BRANCH  21  23
ATOM     22  C   UNL     1       9.008   9.619  18.869  0.00  0.00    +0.000 C 
ATOM     23  C   UNL     1       8.062   9.249  17.741  0.00  0.00    +0.000 C 
ENDBRANCH  21  23
ENDBRANCH  15  21
ENDBRANCH   1  18
TORSDOF 3
ENDMDL
MODEL 7
REMARK VINA RESULT:      -7.0      3.344      5.518
REMARK  Name = 
REMARK  6 active torsions:
REMARK  status: ('A' for Active; 'I' for Inactive)
REMARK    1  A    between atoms: C_1  and  C_2
REMARK    2  A    between atoms: C_2  and  C_3
REMARK    3  A    between atoms: C_3  and  C_4
REMARK    4  A    between atoms: C_7  and  N_8
REMARK    5  A    between atoms: C_15  and  C_16
REMARK    6  A    between atoms: C_15  and  C_17
REMARK                            x       y       z     vdW  Elec       q    Type
REMARK                         _______ _______ _______ _____ _____    ______ ____
ROOT
ATOM      1  N   UNL     1       3.105   4.892  19.135  0.00  0.00    +0.000 N 
ATOM      2  C   UNL     1       4.403   4.525  19.385  0.00  0.00    +0.000 C 
ATOM      3  N   UNL     1       5.357   5.487  19.458  0.00  0.00    +0.000 N 
ATOM      4  N   UNL     1       4.845   3.321  19.492  0.00  0.00    +0.000 NA
ATOM      5  C   UNL     1       3.968   2.311  19.358  0.00  0.00    +0.000 C 
ATOM      6  N   UNL     1       4.522   1.083  19.191  0.00  0.00    +0.000 N 
ATOM      7  N   UNL     1       2.694   2.429  19.311  0.00  0.00    +0.000 NA
ATOM      8  C   UNL     1       2.120   3.777  19.207  0.00  0.00    +0.000 C 
ATOM      9  C   UNL     1       1.286   3.613  17.915  0.00  0.00    +0.000 C 
ATOM     10  C   UNL     1       1.161   3.958  20.394  0.00  0.00    +0.000 C 
ATOM     11  H   UNL     1       5.245   6.223  18.779  0.00  0.00    +0.000 HD
ATOM     12  H   UNL     1       6.289   5.086  19.441  0.00  0.00    +0.000 HD
ATOM     13  H   UNL     1       5.506   1.186  18.970  0.00  0.00    +0.000 HD
ATOM     14  H   UNL     1       4.025   0.576  18.467  0.00  0.00    +0.000 HD
ENDROOT
BRANCH   1  18
ATOM     15  C   UNL     1       1.619   8.901  19.144  0.00  0.00    +0.000 A 
ATOM     16  C   UNL     1       1.603   8.123  20.300  0.00  0.00    +0.000 A 
ATOM     17  C   UNL     1       2.073   6.808  20.281  0.00  0.00    +0.000 A 
ATOM     18  C   UNL     1       2.640   6.232  19.137  0.00  0.00    +0.000 A 
ATOM     19  C   UNL     1       2.653   7.035  17.981  0.00  0.00    +0.000 A 
ATOM     20  C   UNL     1       2.127   8.338  17.973  0.00  0.00    +0.000 A 
BRANCH  15  21
ATOM     21  C   UNL     1       1.092  10.311  19.179  0.00  0.00    +0.000 C 
BRANCH  21  23
ATOM     22  C   UNL     1       1.827  12.668  18.697  0.00  0.00    +0.000 C 
ATOM     23  C   UNL     1       1.856  11.228  18.221  0.00  0.00    +0.000 C 
ENDBRANCH  21  23
ENDBRANCH  15  21
ENDBRANCH   1  18
TORSDOF 3
ENDMDL
MODEL 8
REMARK VINA RESULT:      -6.9      0.997      2.092
REMARK  Name = 
REMARK  6 active torsions:
REMARK  status: ('A' for Active; 'I' for Inactive)
REMARK    1  A    between atoms: C_1  and  C_2
REMARK    2  A    between atoms: C_2  and  C_3
REMARK    3  A    between atoms: C_3  and  C_4
REMARK    4  A    between atoms: C_7  and  N_8
REMARK    5  A    between atoms: C_15  and  C_16
REMARK    6  A    between atoms: C_15  and  C_17
REMARK                            x       y       z     vdW  Elec       q    Type
REMARK                         _______ _______ _______ _____ _____    ______ ____
ROOT
ATOM      1  N   UNL     1       3.968   3.854  19.151  0.00  0.00    +0.000 N 
ATOM      2  C   UNL     1       3.249   4.783  19.859  0.00  0.00    +0.000 C 
ATOM      3  N   UNL     1       3.435   6.101  19.596  0.00  0.00    +0.000 N 
ATOM      4  N   UNL     1       2.439   4.538  20.830  0.00  0.00    +0.000 NA
ATOM      5  C   UNL     1       2.259   3.257  21.196  0.00  0.00    +0.000 C 
ATOM      6  N   UNL     1       1.636   3.079  22.389  0.00  0.00    +0.000 N 
ATOM      7  N   UNL     1       2.679   2.231  20.556  0.00  0.00    +0.000 NA
ATOM      8  C   UNL     1       3.593   2.438  19.424  0.00  0.00    +0.000 C 
ATOM      9  C   UNL     1       4.785   1.566  19.880  0.00  0.00    +0.000 C 
ATOM     10  C   UNL     1       2.947   1.787  18.191  0.00  0.00    +0.000 C 
ATOM     11  H   UNL     1       4.397   6.348  19.421  0.00  0.00    +0.000 HD
ATOM     12  H   UNL     1       3.012   6.684  20.310  0.00  0.00    +0.000 HD
ATOM     13  H   UNL     1       1.622   3.958  22.894  0.00  0.00    +0.000 HD
ATOM     14  H   UNL     1       2.101   2.349  22.915  0.00  0.00    +0.000 HD
ENDROOT
BRANCH   1  18
ATOM     15  C   UNL     1       6.359   4.679  15.704  0.00  0.00    +0.000 A 
ATOM     16  C   UNL     1       4.992   4.433  15.592  0.00  0.00    +0.000 A 
ATOM     17  C   UNL     1       4.224   4.146  16.722  0.00  0.00    +0.000 A 
ATOM     18  C   UNL     1       4.763   4.156  18.015  0.00  0.00    +0.000 A 
ATOM     19  C   UNL     1       6.144   4.411  18.109  0.00  0.00    +0.000 A 
ATOM     20  C   UNL     1       6.937   4.642  16.973  0.00  0.00    +0.000 A 
BRANCH  15  21
ATOM     21  C   UNL     1       7.175   4.969  14.472  0.00  0.00    +0.000 C 
BRANCH  21  23
ATOM     22  C   UNL     1       7.336   4.640  11.984  0.00  0.00    +0.000 C 
ATOM     23  C   UNL     1       6.709   4.143  13.273  0.00  0.00    +0.000 C 
ENDBRANCH  21  23
ENDBRANCH  15  21
ENDBRANCH   1  18
TORSDOF 3
ENDMDL
MODEL 9
REMARK VINA RESULT:      -6.8      2.632      3.447
REMARK  Name = 
REMARK  6 active torsions:
REMARK  status: ('A' for Active; 'I' for Inactive)
REMARK    1  A    between atoms: C_1  and  C_2
REMARK    2  A    between atoms: C_2  and  C_3
REMARK    3  A    between atoms: C_3  and  C_4
REMARK    4  A    between atoms: C_7  and  N_8
REMARK    5  A    between atoms: C_15  and  C_16
REMARK    6  A    between atoms: C_15  and  C_17
REMARK                            x       y       z     vdW  Elec       q    Type
REMARK                         _______ _______ _______ _____ _____    ______ ____
ROOT
ATOM      1  N   UNL     1       3.613   4.322  18.235  0.00  0.00    +0.000 N 
ATOM      2  C   UNL     1       3.622   2.981  17.948  0.00  0.00    +0.000 C 
ATOM      3  N   UNL     1       4.720   2.440  17.362  0.00  0.00    +0.000 N 
ATOM      4  N   UNL     1       2.643   2.162  18.113  0.00  0.00    +0.000 NA
ATOM      5  C   UNL     1       1.495   2.642  18.622  0.00  0.00    +0.000 C 
ATOM      6  N   UNL     1       0.422   1.819  18.505  0.00  0.00    +0.000 N 
ATOM      7  N   UNL     1       1.332   3.806  19.129  0.00  0.00    +0.000 NA
ATOM      8  C   UNL     1       2.418   4.787  18.993  0.00  0.00    +0.000 C 
ATOM      9  C   UNL     1       1.654   5.934  18.291  0.00  0.00    +0.000 C 
ATOM     10  C   UNL     1       2.801   5.242  20.410  0.00  0.00    +0.000 C 
ATOM     11  H   UNL     1       5.138   3.030  16.660  0.00  0.00    +0.000 HD
ATOM     12  H   UNL     1       4.533   1.505  17.018  0.00  0.00    +0.000 HD
ATOM     13  H   UNL     1       0.637   1.078  17.847  0.00  0.00    +0.000 HD
ATOM     14  H   UNL     1      -0.392   2.351  18.220  0.00  0.00    +0.000 HD
ENDROOT
BRANCH   1  18
ATOM     15  C   UNL     1       7.063   6.823  17.885  0.00  0.00    +0.000 A 
ATOM     16  C   UNL     1       5.977   6.966  17.022  0.00  0.00    +0.000 A 
ATOM     17  C   UNL     1       4.864   6.131  17.133  0.00  0.00    +0.000 A 
ATOM     18  C   UNL     1       4.749   5.167  18.143  0.00  0.00    +0.000 A 
ATOM     19  C   UNL     1       5.852   5.040  19.008  0.00  0.00    +0.000 A 
ATOM     20  C   UNL     1       7.003   5.834  18.867  0.00  0.00    +0.000 A 
BRANCH  15  21
ATOM     21  C   UNL     1       8.263   7.720  17.739  0.00  0.00    +0.000 C 
BRANCH  21  23
ATOM     22  C   UNL     1       8.932   9.982  18.614  0.00  0.00    +0.000 C 
ATOM     23  C   UNL     1       7.884   9.199  17.845  0.00  0.00    +0.000 C 
ENDBRANCH  21  23
ENDBRANCH  15  21
ENDBRANCH   1  18
TORSDOF 3
ENDMDL
