MODEL 1
REMARK VINA RESULT:      -8.2      0.000      0.000
REMARK  Name = 
REMARK  9 active torsions:
REMARK  status: ('A' for Active; 'I' for Inactive)
REMARK    1  A    between atoms: C_1  and  C_2
REMARK    2  A    between atoms: C_7  and  O_8
REMARK    3  A    between atoms: O_8  and  C_9
REMARK    4  A    between atoms: C_12  and  C_13
REMARK    5  A    between atoms: N_25  and  C_26
REMARK    6  A    between atoms: C_26  and  C_27
REMARK    7  A    between atoms: N_31  and  C_32
REMARK    8  A    between atoms: C_32  and  C_33
REMARK    9  A    between atoms: C_32  and  C_34
REMARK                            x       y       z     vdW  Elec       q    Type
REMARK                         _______ _______ _______ _____ _____    ______ ____
ROOT
ATOM      1  C   UNL     1       2.506  17.421  19.131  0.00  0.00    +0.000 C 
ATOM      2  C   UNL     1       2.280  15.990  19.548  0.00  0.00    +0.000 A 
ATOM      3  N   UNL     1       1.142  15.450  19.235  0.00  0.00    +0.000 NA
ATOM      4  C   UNL     1       0.934  14.116  19.584  0.00  0.00    +0.000 A 
ATOM      5  N   UNL     1      -0.209  13.544  19.134  0.00  0.00    +0.000 NA
ATOM      6  C   UNL     1      -0.390  12.237  19.482  0.00  0.00    +0.000 A 
ATOM      7  C   UNL     1       0.538  11.522  20.229  0.00  0.00    +0.000 A 
ATOM      8  N   UNL     1       1.691  12.084  20.653  0.00  0.00    +0.000 NA
ATOM      9  C   UNL     1       1.833  13.393  20.349  0.00  0.00    +0.000 A 
ATOM     10  C   UNL     1       2.983  14.126  20.882  0.00  0.00    +0.000 A 
ATOM     11  O   UNL     1       3.603  13.688  21.853  0.00  0.00    +0.000 OA
ATOM     12  N   UNL     1       3.278  15.338  20.255  0.00  0.00    +0.000 N 
ENDROOT
BRANCH   7  13
ATOM     13  O   UNL     1       0.255  10.208  20.572  0.00  0.00    +0.000 OA
BRANCH  13  14
ATOM     14  C   UNL     1       1.000   9.229  19.945  0.00  0.00    +0.000 A 
ATOM     15  C   UNL     1       1.435   8.074  20.592  0.00  0.00    +0.000 A 
ATOM     16  C   UNL     1       2.227   7.141  19.923  0.00  0.00    +0.000 A 
ATOM     17  C   UNL     1       2.544   7.285  18.564  0.00  0.00    +0.000 A 
ATOM     18  C   UNL     1       2.041   8.430  17.911  0.00  0.00    +0.000 A 
ATOM     19  C   UNL     1       1.285   9.398  18.592  0.00  0.00    +0.000 A 
BRANCH  17  20
ATOM     20  C   UNL     1       3.354   6.262  17.856  0.00  0.00    +0.000 A 
ATOM     21  C   UNL     1       3.105   4.885  18.025  0.00  0.00    +0.000 A 
ATOM     22  C   UNL     1       3.848   3.913  17.349  0.00  0.00    +0.000 A 
ATOM     23  C   UNL     1       4.856   4.295  16.474  0.00  0.00    +0.000 A 
ATOM     24  C   UNL     1       5.135   5.646  16.292  0.00  0.00    +0.000 A 
ATOM     25  C   UNL     1       4.399   6.616  16.983  0.00  0.00    +0.000 A 
ENDBRANCH  17  20
ENDBRANCH  13  14
ENDBRANCH   7  13
BRANCH  12  26
ATOM     26  C   UNL     1       4.604  15.920  20.551  0.00  0.00    +0.000 C 
BRANCH  26  27
ATOM     27  C   UNL     1       5.754  15.162  19.845  0.00  0.00    +0.000 C 
ATOM     28  C   UNL     1       6.140  15.816  18.517  0.00  0.00    +0.000 C 
ATOM     29  C   UNL     1       7.193  14.953  17.842  0.00  0.00    +0.000 C 
ATOM     30  C   UNL     1       8.395  14.722  18.759  0.00  0.00    +0.000 C 
ATOM     31  N   UNL     1       8.017  14.164  20.074  0.00  0.00    +0.000 NA
ATOM     32  C   UNL     1       7.005  15.019  20.734  0.00  0.00    +0.000 C 
BRANCH  31  33
ATOM     33  C   UNL     1       9.207  13.883  20.919  0.00  0.00    +0.000 C 
ATOM     34  C   UNL     1      10.322  14.930  20.760  0.00  0.00    +0.000 C 
ATOM     35  C   UNL     1       8.843  13.849  22.417  0.00  0.00    +0.000 C 
ENDBRANCH  31  33
ENDBRANCH  26  27
ENDBRANCH  12  26
TORSDOF 6
ENDMDL
MODEL 2
REMARK VINA RESULT:      -8.1      5.426      9.703
REMARK  Name = 
REMARK  9 active torsions:
REMARK  status: ('A' for Active; 'I' for Inactive)
REMARK    1  A    between atoms: C_1  and  C_2
REMARK    2  A    between atoms: C_7  and  O_8
REMARK    3  A    between atoms: O_8  and  C_9
REMARK    4  A    between atoms: C_12  and  C_13
REMARK    5  A    between atoms: N_25  and  C_26
REMARK    6  A    between atoms: C_26  and  C_27
REMARK    7  A    between atoms: N_31  and  C_32
REMARK    8  A    between atoms: C_32  and  C_33
REMARK    9  A    between atoms: C_32  and  C_34
REMARK                            x       y       z     vdW  Elec       q    Type
REMARK                         _______ _______ _______ _____ _____    ______ ____
ROOT
ATOM      1  C   UNL     1       2.650   3.543  21.106  0.00  0.00    +0.000 C 
ATOM      2  C   UNL     1       2.372   4.895  20.499  0.00  0.00    +0.000 A 
ATOM      3  N   UNL     1       1.820   5.788  21.261  0.00  0.00    +0.000 NA
ATOM      4  C   UNL     1       1.589   7.054  20.722  0.00  0.00    +0.000 A 
ATOM      5  N   UNL     1       1.128   8.001  21.576  0.00  0.00    +0.000 NA
ATOM      6  C   UNL     1       0.916   9.232  21.030  0.00  0.00    +0.000 A 
ATOM      7  C   UNL     1       1.169   9.517  19.693  0.00  0.00    +0.000 A 
ATOM      8  N   UNL     1       1.655   8.582  18.849  0.00  0.00    +0.000 NA
ATOM      9  C   UNL     1       1.810   7.352  19.389  0.00  0.00    +0.000 A 
ATOM     10  C   UNL     1       2.201   6.239  18.521  0.00  0.00    +0.000 A 
ATOM     11  O   UNL     1       2.046   6.319  17.302  0.00  0.00    +0.000 OA
ATOM     12  N   UNL     1       2.696   5.106  19.169  0.00  0.00    +0.000 N 
ENDROOT
BRANCH   7  13
ATOM     13  O   UNL     1       0.886  10.787  19.212  0.00  0.00    +0.000 OA
BRANCH  13  14
ATOM     14  C   UNL     1      -0.447  11.121  19.090  0.00  0.00    +0.000 A 
ATOM     15  C   UNL     1      -1.040  12.157  19.810  0.00  0.00    +0.000 A 
ATOM     16  C   UNL     1      -2.404  12.420  19.685  0.00  0.00    +0.000 A 
ATOM     17  C   UNL     1      -3.208  11.714  18.776  0.00  0.00    +0.000 A 
ATOM     18  C   UNL     1      -2.575  10.712  18.012  0.00  0.00    +0.000 A 
ATOM     19  C   UNL     1      -1.213  10.410  18.170  0.00  0.00    +0.000 A 
BRANCH  17  20
ATOM     20  C   UNL     1      -4.650  12.034  18.625  0.00  0.00    +0.000 A 
ATOM     21  C   UNL     1      -5.463  12.300  19.745  0.00  0.00    +0.000 A 
ATOM     22  C   UNL     1      -6.817  12.622  19.613  0.00  0.00    +0.000 A 
ATOM     23  C   UNL     1      -7.392  12.698  18.351  0.00  0.00    +0.000 A 
ATOM     24  C   UNL     1      -6.620  12.431  17.226  0.00  0.00    +0.000 A 
ATOM     25  C   UNL     1      -5.268  12.093  17.363  0.00  0.00    +0.000 A 
ENDBRANCH  17  20
ENDBRANCH  13  14
ENDBRANCH   7  13
BRANCH  12  26
ATOM     26  C   UNL     1       3.392   4.119  18.316  0.00  0.00    +0.000 C 
BRANCH  26  27
ATOM     27  C   UNL     1       4.733   4.658  17.760  0.00  0.00    +0.000 C 
ATOM     28  C   UNL     1       5.876   4.490  18.763  0.00  0.00    +0.000 C 
ATOM     29  C   UNL     1       7.123   5.139  18.186  0.00  0.00    +0.000 C 
ATOM     30  C   UNL     1       7.458   4.573  16.805  0.00  0.00    +0.000 C 
ATOM     31  N   UNL     1       6.328   4.662  15.857  0.00  0.00    +0.000 NA
ATOM     32  C   UNL     1       5.122   4.011  16.417  0.00  0.00    +0.000 C 
BRANCH  31  33
ATOM     33  C   UNL     1       6.700   4.170  14.504  0.00  0.00    +0.000 C 
ATOM     34  C   UNL     1       5.482   3.877  13.611  0.00  0.00    +0.000 C 
ATOM     35  C   UNL     1       7.566   5.197  13.746  0.00  0.00    +0.000 C 
ENDBRANCH  31  33
ENDBRANCH  26  27
ENDBRANCH  12  26
TORSDOF 6
ENDMDL
MODEL 3
REMARK VINA RESULT:      -7.9      5.385      9.492
REMARK  Name = 
REMARK  9 active torsions:
REMARK  status: ('A' for Active; 'I' for Inactive)
REMARK    1  A    between atoms: C_1  and  C_2
REMARK    2  A    between atoms: C_7  and  O_8
REMARK    3  A    between atoms: O_8  and  C_9
REMARK    4  A    between atoms: C_12  and  C_13
REMARK    5  A    between atoms: N_25  and  C_26
REMARK    6  A    between atoms: C_26  and  C_27
REMARK    7  A    between atoms: N_31  and  C_32
REMARK    8  A    between atoms: C_32  and  C_33
REMARK    9  A    between atoms: C_32  and  C_34
REMARK                            x       y       z     vdW  Elec       q    Type
REMARK                         _______ _______ _______ _____ _____    ______ ____
ROOT
ATOM      1  C   UNL     1       2.964   2.746  21.095  0.00  0.00    +0.000 C 
ATOM      2  C   UNL     1       2.704   4.036  20.358  0.00  0.00    +0.000 A 
ATOM      3  N   UNL     1       2.288   5.048  21.055  0.00  0.00    +0.000 NA
ATOM      4  C   UNL     1       2.078   6.257  20.392  0.00  0.00    +0.000 A 
ATOM      5  N   UNL     1       1.766   7.325  21.165  0.00  0.00    +0.000 NA
ATOM      6  C   UNL     1       1.571   8.498  20.496  0.00  0.00    +0.000 A 
ATOM      7  C   UNL     1       1.701   8.609  19.117  0.00  0.00    +0.000 A 
ATOM      8  N   UNL     1       2.039   7.551  18.350  0.00  0.00    +0.000 NA
ATOM      9  C   UNL     1       2.177   6.383  19.017  0.00  0.00    +0.000 A 
ATOM     10  C   UNL     1       2.408   5.153  18.258  0.00  0.00    +0.000 A 
ATOM     11  O   UNL     1       2.133   5.103  17.058  0.00  0.00    +0.000 OA
ATOM     12  N   UNL     1       2.900   4.069  18.987  0.00  0.00    +0.000 N 
ENDROOT
BRANCH   7  13
ATOM     13  O   UNL     1       1.445   9.832  18.515  0.00  0.00    +0.000 OA
BRANCH  13  14
ATOM     14  C   UNL     1       0.144  10.291  18.571  0.00  0.00    +0.000 A 
ATOM     15  C   UNL     1      -0.292  11.224  19.510  0.00  0.00    +0.000 A 
ATOM     16  C   UNL     1      -1.630  11.616  19.553  0.00  0.00    +0.000 A 
ATOM     17  C   UNL     1      -2.562  11.156  18.609  0.00  0.00    +0.000 A 
ATOM     18  C   UNL     1      -2.085  10.261  17.629  0.00  0.00    +0.000 A 
ATOM     19  C   UNL     1      -0.750   9.825  17.612  0.00  0.00    +0.000 A 
BRANCH  17  20
ATOM     20  C   UNL     1      -3.973  11.616  18.644  0.00  0.00    +0.000 A 
ATOM     21  C   UNL     1      -4.910  11.176  17.687  0.00  0.00    +0.000 A 
ATOM     22  C   UNL     1      -6.246  11.587  17.721  0.00  0.00    +0.000 A 
ATOM     23  C   UNL     1      -6.683  12.442  18.725  0.00  0.00    +0.000 A 
ATOM     24  C   UNL     1      -5.781  12.902  19.678  0.00  0.00    +0.000 A 
ATOM     25  C   UNL     1      -4.441  12.502  19.631  0.00  0.00    +0.000 A 
ENDBRANCH  17  20
ENDBRANCH  13  14
ENDBRANCH   7  13
BRANCH  12  26
ATOM     26  C   UNL     1       3.444   2.944  18.197  0.00  0.00    +0.000 C 
BRANCH  26  27
ATOM     27  C   UNL     1       4.795   3.291  17.525  0.00  0.00    +0.000 C 
ATOM     28  C   UNL     1       4.623   3.659  16.051  0.00  0.00    +0.000 C 
ATOM     29  C   UNL     1       5.999   3.877  15.444  0.00  0.00    +0.000 C 
ATOM     30  C   UNL     1       6.794   4.924  16.227  0.00  0.00    +0.000 C 
ATOM     31  N   UNL     1       6.893   4.612  17.667  0.00  0.00    +0.000 NA
ATOM     32  C   UNL     1       5.549   4.420  18.256  0.00  0.00    +0.000 C 
BRANCH  31  33
ATOM     33  C   UNL     1       7.727   5.606  18.392  0.00  0.00    +0.000 C 
ATOM     34  C   UNL     1       7.549   7.042  17.869  0.00  0.00    +0.000 C 
ATOM     35  C   UNL     1       7.391   5.640  19.896  0.00  0.00    +0.000 C 
ENDBRANCH  31  33
ENDBRANCH  26  27
ENDBRANCH  12  26
TORSDOF 6
ENDMDL
MODEL 4
REMARK VINA RESULT:      -7.8      1.270      1.950
REMARK  Name = 
REMARK  9 active torsions:
REMARK  status: ('A' for Active; 'I' for Inactive)
REMARK    1  A    between atoms: C_1  and  C_2
REMARK    2  A    between atoms: C_7  and  O_8
REMARK    3  A    between atoms: O_8  and  C_9
REMARK    4  A    between atoms: C_12  and  C_13
REMARK    5  A    between atoms: N_25  and  C_26
REMARK    6  A    between atoms: C_26  and  C_27
REMARK    7  A    between atoms: N_31  and  C_32
REMARK    8  A    between atoms: C_32  and  C_33
REMARK    9  A    between atoms: C_32  and  C_34
REMARK                            x       y       z     vdW  Elec       q    Type
REMARK                         _______ _______ _______ _____ _____    ______ ____
ROOT
ATOM      1  C   UNL     1       0.121  16.550  18.548  0.00  0.00    +0.000 C 
ATOM      2  C   UNL     1       0.424  15.179  19.096  0.00  0.00    +0.000 A 
ATOM      3  N   UNL     1      -0.452  14.245  18.882  0.00  0.00    +0.000 NA
ATOM      4  C   UNL     1      -0.168  12.962  19.352  0.00  0.00    +0.000 A 
ATOM      5  N   UNL     1      -1.038  11.983  19.005  0.00  0.00    +0.000 NA
ATOM      6  C   UNL     1      -0.738  10.737  19.470  0.00  0.00    +0.000 A 
ATOM      7  C   UNL     1       0.392  10.470  20.233  0.00  0.00    +0.000 A 
ATOM      8  N   UNL     1       1.274  11.440  20.555  0.00  0.00    +0.000 NA
ATOM      9  C   UNL     1       0.938  12.680  20.135  0.00  0.00    +0.000 A 
ATOM     10  C   UNL     1       1.759  13.819  20.550  0.00  0.00    +0.000 A 
ATOM     11  O   UNL     1       2.505  13.723  21.526  0.00  0.00    +0.000 OA
ATOM     12  N   UNL     1       1.596  14.991  19.810  0.00  0.00    +0.000 N 
ENDROOT
BRANCH   7  13
ATOM     13  O   UNL     1       0.598   9.180  20.699  0.00  0.00    +0.000 OA
BRANCH  13  14
ATOM     14  C   UNL     1       1.403   8.364  19.929  0.00  0.00    +0.000 A 
ATOM     15  C   UNL     1       1.850   7.115  20.357  0.00  0.00    +0.000 A 
ATOM     16  C   UNL     1       2.702   6.354  19.558  0.00  0.00    +0.000 A 
ATOM     17  C   UNL     1       3.073   6.772  18.270  0.00  0.00    +0.000 A 
ATOM     18  C   UNL     1       2.559   8.011  17.832  0.00  0.00    +0.000 A 
ATOM     19  C   UNL     1       1.740   8.804  18.652  0.00  0.00    +0.000 A 
BRANCH  17  20
ATOM     20  C   UNL     1       3.947   5.931  17.416  0.00  0.00    +0.000 A 
ATOM     21  C   UNL     1       4.858   6.507  16.507  0.00  0.00    +0.000 A 
ATOM     22  C   UNL     1       5.701   5.724  15.712  0.00  0.00    +0.000 A 
ATOM     23  C   UNL     1       5.662   4.339  15.815  0.00  0.00    +0.000 A 
ATOM     24  C   UNL     1       4.767   3.739  16.695  0.00  0.00    +0.000 A 
ATOM     25  C   UNL     1       3.914   4.525  17.477  0.00  0.00    +0.000 A 
ENDBRANCH  17  20
ENDBRANCH  13  14
ENDBRANCH   7  13
BRANCH  12  26
ATOM     26  C   UNL     1       2.632  16.029  19.995  0.00  0.00    +0.000 C 
BRANCH  26  27
ATOM     27  C   UNL     1       4.044  15.534  19.598  0.00  0.00    +0.000 C 
ATOM     28  C   UNL     1       4.190  15.382  18.083  0.00  0.00    +0.000 C 
ATOM     29  C   UNL     1       5.559  14.792  17.788  0.00  0.00    +0.000 C 
ATOM     30  C   UNL     1       6.675  15.634  18.408  0.00  0.00    +0.000 C 
ATOM     31  N   UNL     1       6.493  15.850  19.859  0.00  0.00    +0.000 NA
ATOM     32  C   UNL     1       5.166  16.442  20.138  0.00  0.00    +0.000 C 
BRANCH  31  33
ATOM     33  C   UNL     1       7.625  16.611  20.451  0.00  0.00    +0.000 C 
ATOM     34  C   UNL     1       8.918  15.784  20.560  0.00  0.00    +0.000 C 
ATOM     35  C   UNL     1       7.968  17.859  19.615  0.00  0.00    +0.000 C 
ENDBRANCH  31  33
ENDBRANCH  26  27
ENDBRANCH  12  26
TORSDOF 6
ENDMDL
MODEL 5
REMARK VINA RESULT:      -7.8      5.429      9.697
REMARK  Name = 
REMARK  9 active torsions:
REMARK  status: ('A' for Active; 'I' for Inactive)
REMARK    1  A    between atoms: C_1  and  C_2
REMARK    2  A    between atoms: C_7  and  O_8
REMARK    3  A    between atoms: O_8  and  C_9
REMARK    4  A    between atoms: C_12  and  C_13
REMARK    5  A    between atoms: N_25  and  C_26
REMARK    6  A    between atoms: C_26  and  C_27
REMARK    7  A    between atoms: N_31  and  C_32
REMARK    8  A    between atoms: C_32  and  C_33
REMARK    9  A    between atoms: C_32  and  C_34
REMARK                            x       y       z     vdW  Elec       q    Type
REMARK                         _______ _______ _______ _____ _____    ______ ____
ROOT
ATOM      1  C   UNL     1       3.032   3.440  20.941  0.00  0.00    +0.000 C 
ATOM      2  C   UNL     1       2.709   4.778  20.326  0.00  0.00    +0.000 A 
ATOM      3  N   UNL     1       2.049   5.626  21.055  0.00  0.00    +0.000 NA
ATOM      4  C   UNL     1       1.776   6.881  20.511  0.00  0.00    +0.000 A 
ATOM      5  N   UNL     1       1.197   7.786  21.337  0.00  0.00    +0.000 NA
ATOM      6  C   UNL     1       0.944   9.008  20.787  0.00  0.00    +0.000 A 
ATOM      7  C   UNL     1       1.271   9.324  19.473  0.00  0.00    +0.000 A 
ATOM      8  N   UNL     1       1.872   8.432  18.658  0.00  0.00    +0.000 NA
ATOM      9  C   UNL     1       2.069   7.208  19.198  0.00  0.00    +0.000 A 
ATOM     10  C   UNL     1       2.589   6.133  18.352  0.00  0.00    +0.000 A 
ATOM     11  O   UNL     1       2.514   6.217  17.125  0.00  0.00    +0.000 OA
ATOM     12  N   UNL     1       3.110   5.026  19.023  0.00  0.00    +0.000 N 
ENDROOT
BRANCH   7  13
ATOM     13  O   UNL     1       0.940  10.579  18.983  0.00  0.00    +0.000 OA
BRANCH  13  14
ATOM     14  C   UNL     1      -0.404  10.855  18.839  0.00  0.00    +0.000 A 
ATOM     15  C   UNL     1      -1.256  10.088  18.045  0.00  0.00    +0.000 A 
ATOM     16  C   UNL     1      -2.597  10.441  17.897  0.00  0.00    +0.000 A 
ATOM     17  C   UNL     1      -3.156  11.521  18.598  0.00  0.00    +0.000 A 
ATOM     18  C   UNL     1      -2.290  12.245  19.444  0.00  0.00    +0.000 A 
ATOM     19  C   UNL     1      -0.928  11.925  19.560  0.00  0.00    +0.000 A 
BRANCH  17  20
ATOM     20  C   UNL     1      -4.595  11.858  18.460  0.00  0.00    +0.000 A 
ATOM     21  C   UNL     1      -5.156  12.177  17.207  0.00  0.00    +0.000 A 
ATOM     22  C   UNL     1      -6.514  12.477  17.062  0.00  0.00    +0.000 A 
ATOM     23  C   UNL     1      -7.351  12.453  18.170  0.00  0.00    +0.000 A 
ATOM     24  C   UNL     1      -6.827  12.153  19.423  0.00  0.00    +0.000 A 
ATOM     25  C   UNL     1      -5.464  11.869  19.567  0.00  0.00    +0.000 A 
ENDBRANCH  17  20
ENDBRANCH  13  14
ENDBRANCH   7  13
BRANCH  12  26
ATOM     26  C   UNL     1       3.926   4.096  18.213  0.00  0.00    +0.000 C 
BRANCH  26  27
ATOM     27  C   UNL     1       4.987   4.830  17.358  0.00  0.00    +0.000 C 
ATOM     28  C   UNL     1       6.233   5.181  18.172  0.00  0.00    +0.000 C 
ATOM     29  C   UNL     1       7.171   5.990  17.291  0.00  0.00    +0.000 C 
ATOM     30  C   UNL     1       7.500   5.246  15.996  0.00  0.00    +0.000 C 
ATOM     31  N   UNL     1       6.295   4.834  15.247  0.00  0.00    +0.000 NA
ATOM     32  C   UNL     1       5.395   4.031  16.104  0.00  0.00    +0.000 C 
BRANCH  31  33
ATOM     33  C   UNL     1       6.641   4.176  13.960  0.00  0.00    +0.000 C 
ATOM     34  C   UNL     1       5.410   3.852  13.096  0.00  0.00    +0.000 C 
ATOM     35  C   UNL     1       7.562   5.063  13.099  0.00  0.00    +0.000 C 
ENDBRANCH  31  33
ENDBRANCH  26  27
ENDBRANCH  12  26
TORSDOF 6
ENDMDL
MODEL 6
REMARK VINA RESULT:      -7.5      3.652      8.629
REMARK  Name = 
REMARK  9 active torsions:
REMARK  status: ('A' for Active; 'I' for Inactive)
REMARK    1  A    between atoms: C_1  and  C_2
REMARK    2  A    between atoms: C_7  and  O_8
REMARK    3  A    between atoms: O_8  and  C_9
REMARK    4  A    between atoms: C_12  and  C_13
REMARK    5  A    between atoms: N_25  and  C_26
REMARK    6  A    between atoms: C_26  and  C_27
REMARK    7  A    between atoms: N_31  and  C_32
REMARK    8  A    between atoms: C_32  and  C_33
REMARK    9  A    between atoms: C_32  and  C_34
REMARK                            x       y       z     vdW  Elec       q    Type
REMARK                         _______ _______ _______ _____ _____    ______ ____
ROOT
ATOM      1  C   UNL     1      -1.072  13.605  23.017  0.00  0.00    +0.000 C 
ATOM      2  C   UNL     1      -0.057  14.080  22.007  0.00  0.00    +0.000 A 
ATOM      3  N   UNL     1       1.042  14.596  22.464  0.00  0.00    +0.000 NA
ATOM      4  C   UNL     1       2.005  15.006  21.541  0.00  0.00    +0.000 A 
ATOM      5  N   UNL     1       3.190  15.424  22.048  0.00  0.00    +0.000 NA
ATOM      6  C   UNL     1       4.118  15.814  21.128  0.00  0.00    +0.000 A 
ATOM      7  C   UNL     1       3.884  15.773  19.759  0.00  0.00    +0.000 A 
ATOM      8  N   UNL     1       2.713  15.331  19.253  0.00  0.00    +0.000 NA
ATOM      9  C   UNL     1       1.783  14.998  20.175  0.00  0.00    +0.000 A 
ATOM     10  C   UNL     1       0.436  14.637  19.728  0.00  0.00    +0.000 A 
ATOM     11  O   UNL     1       0.045  14.964  18.607  0.00  0.00    +0.000 OA
ATOM     12  N   UNL     1      -0.355  13.961  20.659  0.00  0.00    +0.000 N 
ENDROOT
BRANCH   7  13
ATOM     13  O   UNL     1       4.871  16.228  18.895  0.00  0.00    +0.000 OA
BRANCH  13  14
ATOM     14  C   UNL     1       6.025  15.475  18.821  0.00  0.00    +0.000 A 
ATOM     15  C   UNL     1       6.250  14.526  17.825  0.00  0.00    +0.000 A 
ATOM     16  C   UNL     1       7.414  13.757  17.826  0.00  0.00    +0.000 A 
ATOM     17  C   UNL     1       8.431  13.965  18.771  0.00  0.00    +0.000 A 
ATOM     18  C   UNL     1       8.210  14.973  19.732  0.00  0.00    +0.000 A 
ATOM     19  C   UNL     1       7.019  15.716  19.765  0.00  0.00    +0.000 A 
BRANCH  17  20
ATOM     20  C   UNL     1       9.682  13.167  18.733  0.00  0.00    +0.000 A 
ATOM     21  C   UNL     1      10.371  12.940  17.523  0.00  0.00    +0.000 A 
ATOM     22  C   UNL     1      11.560  12.206  17.479  0.00  0.00    +0.000 A 
ATOM     23  C   UNL     1      12.100  11.688  18.649  0.00  0.00    +0.000 A 
ATOM     24  C   UNL     1      11.439  11.885  19.858  0.00  0.00    +0.000 A 
ATOM     25  C   UNL     1      10.240  12.606  19.896  0.00  0.00    +0.000 A 
ENDBRANCH  17  20
ENDBRANCH  13  14
ENDBRANCH   7  13
BRANCH  12  26
ATOM     26  C   UNL     1      -1.571  13.308  20.130  0.00  0.00    +0.000 C 
BRANCH  26  27
ATOM     27  C   UNL     1      -1.253  12.275  19.022  0.00  0.00    +0.000 C 
ATOM     28  C   UNL     1      -0.801  10.934  19.603  0.00  0.00    +0.000 C 
ATOM     29  C   UNL     1      -0.408  10.019  18.456  0.00  0.00    +0.000 C 
ATOM     30  C   UNL     1      -1.546   9.873  17.444  0.00  0.00    +0.000 C 
ATOM     31  N   UNL     1      -2.038  11.171  16.940  0.00  0.00    +0.000 NA
ATOM     32  C   UNL     1      -2.438  12.050  18.062  0.00  0.00    +0.000 C 
BRANCH  31  33
ATOM     33  C   UNL     1      -3.094  11.000  15.908  0.00  0.00    +0.000 C 
ATOM     34  C   UNL     1      -3.041   9.631  15.209  0.00  0.00    +0.000 C 
ATOM     35  C   UNL     1      -4.506  11.132  16.514  0.00  0.00    +0.000 C 
ENDBRANCH  31  33
ENDBRANCH  26  27
ENDBRANCH  12  26
TORSDOF 6
ENDMDL
MODEL 7
REMARK VINA RESULT:      -7.4      3.215      5.961
REMARK  Name = 
REMARK  9 active torsions:
REMARK  status: ('A' for Active; 'I' for Inactive)
REMARK    1  A    between atoms: C_1  and  C_2
REMARK    2  A    between atoms: C_7  and  O_8
REMARK    3  A    between atoms: O_8  and  C_9
REMARK    4  A    between atoms: C_12  and  C_13
REMARK    5  A    between atoms: N_25  and  C_26
REMARK    6  A    between atoms: C_26  and  C_27
REMARK    7  A    between atoms: N_31  and  C_32
REMARK    8  A    between atoms: C_32  and  C_33
REMARK    9  A    between atoms: C_32  and  C_34
REMARK                            x       y       z     vdW  Elec       q    Type
REMARK                         _______ _______ _______ _____ _____    ______ ____
ROOT
ATOM      1  C   UNL     1      -1.890  12.208  19.401  0.00  0.00    +0.000 C 
ATOM      2  C   UNL     1      -0.883  11.108  19.626  0.00  0.00    +0.000 A 
ATOM      3  N   UNL     1      -0.421  10.499  18.577  0.00  0.00    +0.000 NA
ATOM      4  C   UNL     1       0.537   9.504  18.769  0.00  0.00    +0.000 A 
ATOM      5  N   UNL     1       1.092   8.974  17.652  0.00  0.00    +0.000 NA
ATOM      6  C   UNL     1       2.030   8.007  17.863  0.00  0.00    +0.000 A 
ATOM      7  C   UNL     1       2.416   7.597  19.133  0.00  0.00    +0.000 A 
ATOM      8  N   UNL     1       1.884   8.144  20.246  0.00  0.00    +0.000 NA
ATOM      9  C   UNL     1       0.917   9.062  20.025  0.00  0.00    +0.000 A 
ATOM     10  C   UNL     1       0.184   9.613  21.166  0.00  0.00    +0.000 A 
ATOM     11  O   UNL     1       0.180   9.020  22.246  0.00  0.00    +0.000 OA
ATOM     12  N   UNL     1      -0.522  10.793  20.926  0.00  0.00    +0.000 N 
ENDROOT
BRANCH   7  13
ATOM     13  O   UNL     1       3.350   6.578  19.255  0.00  0.00    +0.000 OA
BRANCH  13  14
ATOM     14  C   UNL     1       3.969   6.162  18.093  0.00  0.00    +0.000 A 
ATOM     15  C   UNL     1       4.719   7.015  17.285  0.00  0.00    +0.000 A 
ATOM     16  C   UNL     1       5.282   6.553  16.096  0.00  0.00    +0.000 A 
ATOM     17  C   UNL     1       5.188   5.206  15.712  0.00  0.00    +0.000 A 
ATOM     18  C   UNL     1       4.478   4.347  16.575  0.00  0.00    +0.000 A 
ATOM     19  C   UNL     1       3.867   4.817  17.749  0.00  0.00    +0.000 A 
BRANCH  17  20
ATOM     20  C   UNL     1       5.829   4.722  14.463  0.00  0.00    +0.000 A 
ATOM     21  C   UNL     1       5.178   3.804  13.614  0.00  0.00    +0.000 A 
ATOM     22  C   UNL     1       5.764   3.356  12.426  0.00  0.00    +0.000 A 
ATOM     23  C   UNL     1       7.015   3.827  12.049  0.00  0.00    +0.000 A 
ATOM     24  C   UNL     1       7.689   4.726  12.870  0.00  0.00    +0.000 A 
ATOM     25  C   UNL     1       7.106   5.159  14.067  0.00  0.00    +0.000 A 
ENDBRANCH  17  20
ENDBRANCH  13  14
ENDBRANCH   7  13
BRANCH  12  26
ATOM     26  C   UNL     1      -0.987  11.530  22.120  0.00  0.00    +0.000 C 
BRANCH  26  27
ATOM     27  C   UNL     1      -0.738  13.053  22.009  0.00  0.00    +0.000 C 
ATOM     28  C   UNL     1      -1.069  13.783  23.312  0.00  0.00    +0.000 C 
ATOM     29  C   UNL     1      -0.902  15.276  23.084  0.00  0.00    +0.000 C 
ATOM     30  C   UNL     1       0.496  15.607  22.560  0.00  0.00    +0.000 C 
ATOM     31  N   UNL     1       0.851  14.844  21.346  0.00  0.00    +0.000 NA
ATOM     32  C   UNL     1       0.704  13.390  21.580  0.00  0.00    +0.000 C 
BRANCH  31  33
ATOM     33  C   UNL     1       2.184  15.233  20.817  0.00  0.00    +0.000 C 
ATOM     34  C   UNL     1       3.266  14.166  21.057  0.00  0.00    +0.000 C 
ATOM     35  C   UNL     1       2.140  15.482  19.296  0.00  0.00    +0.000 C 
ENDBRANCH  31  33
ENDBRANCH  26  27
ENDBRANCH  12  26
TORSDOF 6
ENDMDL
MODEL 8
REMARK VINA RESULT:      -7.4      2.008      7.754
REMARK  Name = 
REMARK  9 active torsions:
REMARK  status: ('A' for Active; 'I' for Inactive)
REMARK    1  A    between atoms: C_1  and  C_2
REMARK    2  A    between atoms: C_7  and  O_8
REMARK    3  A    between atoms: O_8  and  C_9
REMARK    4  A    between atoms: C_12  and  C_13
REMARK    5  A    between atoms: N_25  and  C_26
REMARK    6  A    between atoms: C_26  and  C_27
REMARK    7  A    between atoms: N_31  and  C_32
REMARK    8  A    between atoms: C_32  and  C_33
REMARK    9  A    between atoms: C_32  and  C_34
REMARK                            x       y       z     vdW  Elec       q    Type
REMARK                         _______ _______ _______ _____ _____    ______ ____
ROOT
ATOM      1  C   UNL     1      -1.700  11.929  19.071  0.00  0.00    +0.000 C 
ATOM      2  C   UNL     1      -0.342  12.578  19.156  0.00  0.00    +0.000 A 
ATOM      3  N   UNL     1      -0.281  13.767  19.672  0.00  0.00    +0.000 NA
ATOM      4  C   UNL     1       0.974  14.365  19.790  0.00  0.00    +0.000 A 
ATOM      5  N   UNL     1       1.021  15.550  20.445  0.00  0.00    +0.000 NA
ATOM      6  C   UNL     1       2.258  16.114  20.554  0.00  0.00    +0.000 A 
ATOM      7  C   UNL     1       3.405  15.514  20.049  0.00  0.00    +0.000 A 
ATOM      8  N   UNL     1       3.362  14.320  19.420  0.00  0.00    +0.000 NA
ATOM      9  C   UNL     1       2.125  13.798  19.271  0.00  0.00    +0.000 A 
ATOM     10  C   UNL     1       1.959  12.574  18.484  0.00  0.00    +0.000 A 
ATOM     11  O   UNL     1       2.833  12.225  17.689  0.00  0.00    +0.000 OA
ATOM     12  N   UNL     1       0.756  11.890  18.666  0.00  0.00    +0.000 N 
ENDROOT
BRANCH   7  13
ATOM     13  O   UNL     1       4.618  16.178  20.169  0.00  0.00    +0.000 OA
BRANCH  13  14
ATOM     14  C   UNL     1       5.745  15.484  19.778  0.00  0.00    +0.000 A 
ATOM     15  C   UNL     1       6.082  15.273  18.441  0.00  0.00    +0.000 A 
ATOM     16  C   UNL     1       7.207  14.522  18.103  0.00  0.00    +0.000 A 
ATOM     17  C   UNL     1       8.082  14.026  19.082  0.00  0.00    +0.000 A 
ATOM     18  C   UNL     1       7.756  14.304  20.426  0.00  0.00    +0.000 A 
ATOM     19  C   UNL     1       6.598  15.017  20.774  0.00  0.00    +0.000 A 
BRANCH  17  20
ATOM     20  C   UNL     1       9.299  13.264  18.703  0.00  0.00    +0.000 A 
ATOM     21  C   UNL     1       9.734  12.156  19.459  0.00  0.00    +0.000 A 
ATOM     22  C   UNL     1      10.867  11.419  19.100  0.00  0.00    +0.000 A 
ATOM     23  C   UNL     1      11.589  11.765  17.965  0.00  0.00    +0.000 A 
ATOM     24  C   UNL     1      11.192  12.859  17.204  0.00  0.00    +0.000 A 
ATOM     25  C   UNL     1      10.067  13.604  17.575  0.00  0.00    +0.000 A 
ENDBRANCH  17  20
ENDBRANCH  13  14
ENDBRANCH   7  13
BRANCH  12  26
ATOM     26  C   UNL     1       0.706  10.508  18.145  0.00  0.00    +0.000 C 
BRANCH  26  27
ATOM     27  C   UNL     1       1.420   9.498  19.076  0.00  0.00    +0.000 C 
ATOM     28  C   UNL     1       0.564   9.137  20.291  0.00  0.00    +0.000 C 
ATOM     29  C   UNL     1       1.377   8.233  21.203  0.00  0.00    +0.000 C 
ATOM     30  C   UNL     1       1.891   7.002  20.454  0.00  0.00    +0.000 C 
ATOM     31  N   UNL     1       2.651   7.347  19.234  0.00  0.00    +0.000 NA
ATOM     32  C   UNL     1       1.847   8.211  18.343  0.00  0.00    +0.000 C 
BRANCH  31  33
ATOM     33  C   UNL     1       3.198   6.139  18.563  0.00  0.00    +0.000 C 
ATOM     34  C   UNL     1       4.211   6.469  17.453  0.00  0.00    +0.000 C 
ATOM     35  C   UNL     1       3.924   5.215  19.562  0.00  0.00    +0.000 C 
ENDBRANCH  31  33
ENDBRANCH  26  27
ENDBRANCH  12  26
TORSDOF 6
ENDMDL
MODEL 9
REMARK VINA RESULT:      -7.3      3.532      6.762
REMARK  Name = 
REMARK  9 active torsions:
REMARK  status: ('A' for Active; 'I' for Inactive)
REMARK    1  A    between atoms: C_1  and  C_2
REMARK    2  A    between atoms: C_7  and  O_8
REMARK    3  A    between atoms: O_8  and  C_9
REMARK    4  A    between atoms: C_12  and  C_13
REMARK    5  A    between atoms: N_25  and  C_26
REMARK    6  A    between atoms: C_26  and  C_27
REMARK    7  A    between atoms: N_31  and  C_32
REMARK    8  A    between atoms: C_32  and  C_33
REMARK    9  A    between atoms: C_32  and  C_34
REMARK                            x       y       z     vdW  Elec       q    Type
REMARK                         _______ _______ _______ _____ _____    ______ ____
ROOT
ATOM      1  C   UNL     1      -0.556  10.302  20.657  0.00  0.00    +0.000 C 
ATOM      2  C   UNL     1       0.417   9.229  20.237  0.00  0.00    +0.000 A 
ATOM      3  N   UNL     1       0.571   8.218  21.036  0.00  0.00    +0.000 NA
ATOM      4  C   UNL     1       1.440   7.201  20.643  0.00  0.00    +0.000 A 
ATOM      5  N   UNL     1       1.485   6.102  21.435  0.00  0.00    +0.000 NA
ATOM      6  C   UNL     1       2.338   5.118  21.029  0.00  0.00    +0.000 A 
ATOM      7  C   UNL     1       3.100   5.213  19.871  0.00  0.00    +0.000 A 
ATOM      8  N   UNL     1       3.035   6.296  19.066  0.00  0.00    +0.000 NA
ATOM      9  C   UNL     1       2.228   7.287  19.508  0.00  0.00    +0.000 A 
ATOM     10  C   UNL     1       2.194   8.555  18.777  0.00  0.00    +0.000 A 
ATOM     11  O   UNL     1       3.113   8.856  18.013  0.00  0.00    +0.000 OA
ATOM     12  N   UNL     1       1.104   9.384  19.044  0.00  0.00    +0.000 N 
ENDROOT
BRANCH   7  13
ATOM     13  O   UNL     1       3.972   4.181  19.554  0.00  0.00    +0.000 OA
BRANCH  13  14
ATOM     14  C   UNL     1       4.567   4.233  18.310  0.00  0.00    +0.000 A 
ATOM     15  C   UNL     1       5.831   4.780  18.095  0.00  0.00    +0.000 A 
ATOM     16  C   UNL     1       6.364   4.851  16.808  0.00  0.00    +0.000 A 
ATOM     17  C   UNL     1       5.694   4.304  15.703  0.00  0.00    +0.000 A 
ATOM     18  C   UNL     1       4.445   3.699  15.952  0.00  0.00    +0.000 A 
ATOM     19  C   UNL     1       3.881   3.669  17.238  0.00  0.00    +0.000 A 
BRANCH  17  20
ATOM     20  C   UNL     1       6.295   4.350  14.346  0.00  0.00    +0.000 A 
ATOM     21  C   UNL     1       5.805   3.542  13.299  0.00  0.00    +0.000 A 
ATOM     22  C   UNL     1       6.350   3.592  12.013  0.00  0.00    +0.000 A 
ATOM     23  C   UNL     1       7.395   4.464  11.736  0.00  0.00    +0.000 A 
ATOM     24  C   UNL     1       7.909   5.268  12.749  0.00  0.00    +0.000 A 
ATOM     25  C   UNL     1       7.371   5.203  14.040  0.00  0.00    +0.000 A 
ENDBRANCH  17  20
ENDBRANCH  13  14
ENDBRANCH   7  13
BRANCH  12  26
ATOM     26  C   UNL     1       0.880  10.494  18.094  0.00  0.00    +0.000 C 
BRANCH  26  27
ATOM     27  C   UNL     1       1.317  11.863  18.670  0.00  0.00    +0.000 C 
ATOM     28  C   UNL     1       2.601  12.375  18.015  0.00  0.00    +0.000 C 
ATOM     29  C   UNL     1       3.017  13.661  18.709  0.00  0.00    +0.000 C 
ATOM     30  C   UNL     1       1.890  14.695  18.690  0.00  0.00    +0.000 C 
ATOM     31  N   UNL     1       0.624  14.177  19.249  0.00  0.00    +0.000 NA
ATOM     32  C   UNL     1       0.215  12.935  18.556  0.00  0.00    +0.000 C 
BRANCH  31  33
ATOM     33  C   UNL     1      -0.434  15.220  19.283  0.00  0.00    +0.000 C 
ATOM     34  C   UNL     1      -0.818  15.645  20.711  0.00  0.00    +0.000 C 
ATOM     35  C   UNL     1       0.008  16.500  18.545  0.00  0.00    +0.000 C 
ENDBRANCH  31  33
ENDBRANCH  26  27
ENDBRANCH  12  26
TORSDOF 6
ENDMDL
