MODEL 1
REMARK VINA RESULT:      -7.1      0.000      0.000
REMARK  Name = 
REMARK  6 active torsions:
REMARK  status: ('A' for Active; 'I' for Inactive)
REMARK    1  A    between atoms: C_1  and  C_2
REMARK    2  A    between atoms: C_2  and  C_3
REMARK    3  A    between atoms: C_3  and  O_4
REMARK    4  A    between atoms: O_4  and  N_5
REMARK    5  A    between atoms: C_6  and  C_7
REMARK    6  A    between atoms: C_6  and  C_9
REMARK                            x       y       z     vdW  Elec       q    Type
REMARK                         _______ _______ _______ _____ _____    ______ ____
ROOT
ATOM      1  C   UNL     1       4.783   4.540  17.610  0.00  0.00    +0.000 A 
ATOM      2  N   UNL     1       3.803   3.750  17.224  0.00  0.00    +0.000 NA
ATOM      3  C   UNL     1       2.840   3.678  18.221  0.00  0.00    +0.000 A 
ATOM      4  C   UNL     1       1.681   2.876  18.198  0.00  0.00    +0.000 A 
ATOM      5  C   UNL     1       0.794   2.903  19.279  0.00  0.00    +0.000 A 
ATOM      6  C   UNL     1       1.038   3.728  20.372  0.00  0.00    +0.000 A 
ATOM      7  C   UNL     1       2.180   4.533  20.420  0.00  0.00    +0.000 A 
ATOM      8  C   UNL     1       3.077   4.480  19.339  0.00  0.00    +0.000 A 
ATOM      9  S   UNL     1       4.575   5.300  19.133  0.00  0.00    +0.000 S 
ENDROOT
BRANCH   1  11
ATOM     10  N   UNL     1       5.910   5.241  15.607  0.00  0.00    +0.000 NA
ATOM     11  C   UNL     1       5.973   4.764  16.822  0.00  0.00    +0.000 C 
BRANCH  11  12
ATOM     12  C   UNL     1       7.282   4.459  17.374  0.00  0.00    +0.000 C 
ATOM     13  N   UNL     1       8.322   4.236  17.844  0.00  0.00    +0.000 NA
ENDBRANCH  11  12
BRANCH  10  14
ATOM     14  O   UNL     1       7.170   5.426  15.012  0.00  0.00    +0.000 OA
BRANCH  14  15
ATOM     15  C   UNL     1       7.143   4.856  13.700  0.00  0.00    +0.000 C 
BRANCH  15  17
ATOM     16  C   UNL     1       5.835   3.257  12.250  0.00  0.00    +0.000 C 
ATOM     17  C   UNL     1       6.011   3.838  13.641  0.00  0.00    +0.000 C 
ENDBRANCH  15  17
ENDBRANCH  14  15
ENDBRANCH  10  14
ENDBRANCH   1  11
TORSDOF 5
ENDMDL
MODEL 2
REMARK VINA RESULT:      -7.0      1.377      1.621
REMARK  Name = 
REMARK  6 active torsions:
REMARK  status: ('A' for Active; 'I' for Inactive)
REMARK    1  A    between atoms: C_1  and  C_2
REMARK    2  A    between atoms: C_2  and  C_3
REMARK    3  A    between atoms: C_3  and  O_4
REMARK    4  A    between atoms: O_4  and  N_5
REMARK    5  A    between atoms: C_6  and  C_7
REMARK    6  A    between atoms: C_6  and  C_9
REMARK                            x       y       z     vdW  Elec       q    Type
REMARK                         _______ _______ _______ _____ _____    ______ ____
ROOT
ATOM      1  C   UNL     1       4.830   4.119  18.302  0.00  0.00    +0.000 A 
ATOM      2  N   UNL     1       4.846   3.454  19.438  0.00  0.00    +0.000 NA
ATOM      3  C   UNL     1       3.552   3.312  19.916  0.00  0.00    +0.000 A 
ATOM      4  C   UNL     1       3.178   2.718  21.138  0.00  0.00    +0.000 A 
ATOM      5  C   UNL     1       1.828   2.643  21.493  0.00  0.00    +0.000 A 
ATOM      6  C   UNL     1       0.845   3.137  20.641  0.00  0.00    +0.000 A 
ATOM      7  C   UNL     1       1.188   3.731  19.422  0.00  0.00    +0.000 A 
ATOM      8  C   UNL     1       2.550   3.822  19.087  0.00  0.00    +0.000 A 
ATOM      9  S   UNL     1       3.280   4.537  17.702  0.00  0.00    +0.000 S 
ENDROOT
BRANCH   1  11
ATOM     10  N   UNL     1       6.192   4.210  16.325  0.00  0.00    +0.000 NA
ATOM     11  C   UNL     1       6.030   4.494  17.590  0.00  0.00    +0.000 C 
BRANCH  11  12
ATOM     12  C   UNL     1       7.096   5.204  18.276  0.00  0.00    +0.000 C 
ATOM     13  N   UNL     1       7.932   5.766  18.858  0.00  0.00    +0.000 NA
ENDBRANCH  11  12
BRANCH  10  14
ATOM     14  O   UNL     1       7.403   4.685  15.794  0.00  0.00    +0.000 OA
BRANCH  14  15
ATOM     15  C   UNL     1       7.254   4.834  14.378  0.00  0.00    +0.000 C 
BRANCH  15  17
ATOM     16  C   UNL     1       6.204   3.518  12.499  0.00  0.00    +0.000 C 
ATOM     17  C   UNL     1       6.060   4.001  13.930  0.00  0.00    +0.000 C 
ENDBRANCH  15  17
ENDBRANCH  14  15
ENDBRANCH  10  14
ENDBRANCH   1  11
TORSDOF 5
ENDMDL
MODEL 3
REMARK VINA RESULT:      -6.9      0.925      1.070
REMARK  Name = 
REMARK  6 active torsions:
REMARK  status: ('A' for Active; 'I' for Inactive)
REMARK    1  A    between atoms: C_1  and  C_2
REMARK    2  A    between atoms: C_2  and  C_3
REMARK    3  A    between atoms: C_3  and  O_4
REMARK    4  A    between atoms: O_4  and  N_5
REMARK    5  A    between atoms: C_6  and  C_7
REMARK    6  A    between atoms: C_6  and  C_9
REMARK                            x       y       z     vdW  Elec       q    Type
REMARK                         _______ _______ _______ _____ _____    ______ ____
ROOT
ATOM      1  C   UNL     1       4.728   4.874  17.692  0.00  0.00    +0.000 A 
ATOM      2  N   UNL     1       3.708   4.161  17.264  0.00  0.00    +0.000 NA
ATOM      3  C   UNL     1       2.811   3.957  18.302  0.00  0.00    +0.000 A 
ATOM      4  C   UNL     1       1.635   3.182  18.242  0.00  0.00    +0.000 A 
ATOM      5  C   UNL     1       0.820   3.064  19.373  0.00  0.00    +0.000 A 
ATOM      6  C   UNL     1       1.152   3.719  20.555  0.00  0.00    +0.000 A 
ATOM      7  C   UNL     1       2.313   4.495  20.641  0.00  0.00    +0.000 A 
ATOM      8  C   UNL     1       3.137   4.587  19.505  0.00  0.00    +0.000 A 
ATOM      9  S   UNL     1       4.637   5.408  19.318  0.00  0.00    +0.000 S 
ENDROOT
BRANCH   1  11
ATOM     10  N   UNL     1       6.302   4.372  15.947  0.00  0.00    +0.000 NA
ATOM     11  C   UNL     1       5.870   5.194  16.866  0.00  0.00    +0.000 C 
BRANCH  11  12
ATOM     12  C   UNL     1       6.570   6.455  17.045  0.00  0.00    +0.000 C 
ATOM     13  N   UNL     1       7.104   7.481  17.169  0.00  0.00    +0.000 NA
ENDBRANCH  11  12
BRANCH  10  14
ATOM     14  O   UNL     1       7.397   4.870  15.220  0.00  0.00    +0.000 OA
BRANCH  14  15
ATOM     15  C   UNL     1       7.083   4.814  13.825  0.00  0.00    +0.000 C 
BRANCH  15  17
ATOM     16  C   UNL     1       5.917   3.278  12.198  0.00  0.00    +0.000 C 
ATOM     17  C   UNL     1       5.969   3.795  13.624  0.00  0.00    +0.000 C 
ENDBRANCH  15  17
ENDBRANCH  14  15
ENDBRANCH  10  14
ENDBRANCH   1  11
TORSDOF 5
ENDMDL
MODEL 4
REMARK VINA RESULT:      -6.8      2.560      3.797
REMARK  Name = 
REMARK  6 active torsions:
REMARK  status: ('A' for Active; 'I' for Inactive)
REMARK    1  A    between atoms: C_1  and  C_2
REMARK    2  A    between atoms: C_2  and  C_3
REMARK    3  A    between atoms: C_3  and  O_4
REMARK    4  A    between atoms: O_4  and  N_5
REMARK    5  A    between atoms: C_6  and  C_7
REMARK    6  A    between atoms: C_6  and  C_9
REMARK                            x       y       z     vdW  Elec       q    Type
REMARK                         _______ _______ _______ _____ _____    ______ ____
ROOT
ATOM      1  C   UNL     1       4.718   5.088  17.956  0.00  0.00    +0.000 A 
ATOM      2  N   UNL     1       4.156   5.417  19.100  0.00  0.00    +0.000 NA
ATOM      3  C   UNL     1       3.020   4.647  19.302  0.00  0.00    +0.000 A 
ATOM      4  C   UNL     1       2.120   4.763  20.381  0.00  0.00    +0.000 A 
ATOM      5  C   UNL     1       1.010   3.915  20.456  0.00  0.00    +0.000 A 
ATOM      6  C   UNL     1       0.794   2.945  19.482  0.00  0.00    +0.000 A 
ATOM      7  C   UNL     1       1.672   2.809  18.401  0.00  0.00    +0.000 A 
ATOM      8  C   UNL     1       2.770   3.682  18.323  0.00  0.00    +0.000 A 
ATOM      9  S   UNL     1       3.979   3.797  17.104  0.00  0.00    +0.000 S 
ENDROOT
BRANCH   1  11
ATOM     10  N   UNL     1       6.025   7.057  17.520  0.00  0.00    +0.000 NA
ATOM     11  C   UNL     1       5.881   5.762  17.425  0.00  0.00    +0.000 C 
BRANCH  11  12
ATOM     12  C   UNL     1       6.928   5.000  16.766  0.00  0.00    +0.000 C 
ATOM     13  N   UNL     1       7.763   4.365  16.263  0.00  0.00    +0.000 NA
ENDBRANCH  11  12
BRANCH  10  14
ATOM     14  O   UNL     1       7.235   7.527  16.981  0.00  0.00    +0.000 OA
BRANCH  14  15
ATOM     15  C   UNL     1       8.068   7.978  18.054  0.00  0.00    +0.000 C 
BRANCH  15  17
ATOM     16  C   UNL     1       9.102  10.061  19.034  0.00  0.00    +0.000 C 
ATOM     17  C   UNL     1       8.289   9.477  17.893  0.00  0.00    +0.000 C 
ENDBRANCH  15  17
ENDBRANCH  14  15
ENDBRANCH  10  14
ENDBRANCH   1  11
TORSDOF 5
ENDMDL
MODEL 5
REMARK VINA RESULT:      -6.8      1.362      1.594
REMARK  Name = 
REMARK  6 active torsions:
REMARK  status: ('A' for Active; 'I' for Inactive)
REMARK    1  A    between atoms: C_1  and  C_2
REMARK    2  A    between atoms: C_2  and  C_3
REMARK    3  A    between atoms: C_3  and  O_4
REMARK    4  A    between atoms: O_4  and  N_5
REMARK    5  A    between atoms: C_6  and  C_7
REMARK    6  A    between atoms: C_6  and  C_9
REMARK                            x       y       z     vdW  Elec       q    Type
REMARK                         _______ _______ _______ _____ _____    ______ ____
ROOT
ATOM      1  C   UNL     1       4.960   4.760  17.986  0.00  0.00    +0.000 A 
ATOM      2  N   UNL     1       4.938   3.659  18.707  0.00  0.00    +0.000 NA
ATOM      3  C   UNL     1       3.806   3.647  19.509  0.00  0.00    +0.000 A 
ATOM      4  C   UNL     1       3.477   2.664  20.465  0.00  0.00    +0.000 A 
ATOM      5  C   UNL     1       2.297   2.782  21.207  0.00  0.00    +0.000 A 
ATOM      6  C   UNL     1       1.436   3.854  20.999  0.00  0.00    +0.000 A 
ATOM      7  C   UNL     1       1.738   4.843  20.057  0.00  0.00    +0.000 A 
ATOM      8  C   UNL     1       2.938   4.727  19.334  0.00  0.00    +0.000 A 
ATOM      9  S   UNL     1       3.605   5.796  18.162  0.00  0.00    +0.000 S 
ENDROOT
BRANCH   1  11
ATOM     10  N   UNL     1       6.502   4.259  16.212  0.00  0.00    +0.000 NA
ATOM     11  C   UNL     1       6.050   5.104  17.102  0.00  0.00    +0.000 C 
BRANCH  11  12
ATOM     12  C   UNL     1       6.673   6.413  17.185  0.00  0.00    +0.000 C 
ATOM     13  N   UNL     1       7.142   7.475  17.268  0.00  0.00    +0.000 NA
ENDBRANCH  11  12
BRANCH  10  14
ATOM     14  O   UNL     1       7.537   4.782  15.419  0.00  0.00    +0.000 OA
BRANCH  14  15
ATOM     15  C   UNL     1       7.059   4.918  14.077  0.00  0.00    +0.000 C 
BRANCH  15  17
ATOM     16  C   UNL     1       6.047   3.361  12.368  0.00  0.00    +0.000 C 
ATOM     17  C   UNL     1       6.039   3.817  13.816  0.00  0.00    +0.000 C 
ENDBRANCH  15  17
ENDBRANCH  14  15
ENDBRANCH  10  14
ENDBRANCH   1  11
TORSDOF 5
ENDMDL
MODEL 6
REMARK VINA RESULT:      -6.8      1.341      1.827
REMARK  Name = 
REMARK  6 active torsions:
REMARK  status: ('A' for Active; 'I' for Inactive)
REMARK    1  A    between atoms: C_1  and  C_2
REMARK    2  A    between atoms: C_2  and  C_3
REMARK    3  A    between atoms: C_3  and  O_4
REMARK    4  A    between atoms: O_4  and  N_5
REMARK    5  A    between atoms: C_6  and  C_7
REMARK    6  A    between atoms: C_6  and  C_9
REMARK                            x       y       z     vdW  Elec       q    Type
REMARK                         _______ _______ _______ _____ _____    ______ ____
ROOT
ATOM      1  C   UNL     1       4.836   4.783  17.698  0.00  0.00    +0.000 A 
ATOM      2  N   UNL     1       4.335   5.571  18.626  0.00  0.00    +0.000 NA
ATOM      3  C   UNL     1       3.212   4.979  19.186  0.00  0.00    +0.000 A 
ATOM      4  C   UNL     1       2.370   5.553  20.160  0.00  0.00    +0.000 A 
ATOM      5  C   UNL     1       1.266   4.838  20.636  0.00  0.00    +0.000 A 
ATOM      6  C   UNL     1       1.000   3.555  20.166  0.00  0.00    +0.000 A 
ATOM      7  C   UNL     1       1.820   2.962  19.200  0.00  0.00    +0.000 A 
ATOM      8  C   UNL     1       2.912   3.700  18.712  0.00  0.00    +0.000 A 
ATOM      9  S   UNL     1       4.055   3.271  17.499  0.00  0.00    +0.000 S 
ENDROOT
BRANCH   1  11
ATOM     10  N   UNL     1       6.441   4.345  15.963  0.00  0.00    +0.000 NA
ATOM     11  C   UNL     1       5.969   5.149  16.879  0.00  0.00    +0.000 C 
BRANCH  11  12
ATOM     12  C   UNL     1       6.616   6.437  17.061  0.00  0.00    +0.000 C 
ATOM     13  N   UNL     1       7.117   7.481  17.177  0.00  0.00    +0.000 NA
ENDBRANCH  11  12
BRANCH  10  14
ATOM     14  O   UNL     1       7.519   4.887  15.243  0.00  0.00    +0.000 OA
BRANCH  14  15
ATOM     15  C   UNL     1       7.203   4.846  13.848  0.00  0.00    +0.000 C 
BRANCH  15  17
ATOM     16  C   UNL     1       6.047   3.312  12.211  0.00  0.00    +0.000 C 
ATOM     17  C   UNL     1       6.088   3.829  13.637  0.00  0.00    +0.000 C 
ENDBRANCH  15  17
ENDBRANCH  14  15
ENDBRANCH  10  14
ENDBRANCH   1  11
TORSDOF 5
ENDMDL
MODEL 7
REMARK VINA RESULT:      -6.7      2.326      3.445
REMARK  Name = 
REMARK  6 active torsions:
REMARK  status: ('A' for Active; 'I' for Inactive)
REMARK    1  A    between atoms: C_1  and  C_2
REMARK    2  A    between atoms: C_2  and  C_3
REMARK    3  A    between atoms: C_3  and  O_4
REMARK    4  A    between atoms: O_4  and  N_5
REMARK    5  A    between atoms: C_6  and  C_7
REMARK    6  A    between atoms: C_6  and  C_9
REMARK                            x       y       z     vdW  Elec       q    Type
REMARK                         _______ _______ _______ _____ _____    ______ ____
ROOT
ATOM      1  C   UNL     1       4.766   5.014  18.122  0.00  0.00    +0.000 A 
ATOM      2  N   UNL     1       4.230   3.969  17.528  0.00  0.00    +0.000 NA
ATOM      3  C   UNL     1       3.087   3.578  18.209  0.00  0.00    +0.000 A 
ATOM      4  C   UNL     1       2.285   2.457  17.910  0.00  0.00    +0.000 A 
ATOM      5  C   UNL     1       1.155   2.182  18.687  0.00  0.00    +0.000 A 
ATOM      6  C   UNL     1       0.806   3.015  19.745  0.00  0.00    +0.000 A 
ATOM      7  C   UNL     1       1.584   4.133  20.063  0.00  0.00    +0.000 A 
ATOM      8  C   UNL     1       2.730   4.386  19.291  0.00  0.00    +0.000 A 
ATOM      9  S   UNL     1       3.901   5.635  19.466  0.00  0.00    +0.000 S 
ENDROOT
BRANCH   1  11
ATOM     10  N   UNL     1       6.070   6.863  17.313  0.00  0.00    +0.000 NA
ATOM     11  C   UNL     1       6.009   5.615  17.695  0.00  0.00    +0.000 C 
BRANCH  11  12
ATOM     12  C   UNL     1       7.232   4.831  17.680  0.00  0.00    +0.000 C 
ATOM     13  N   UNL     1       8.206   4.195  17.704  0.00  0.00    +0.000 NA
ENDBRANCH  11  12
BRANCH  10  14
ATOM     14  O   UNL     1       7.367   7.281  16.969  0.00  0.00    +0.000 OA
BRANCH  14  15
ATOM     15  C   UNL     1       7.564   8.610  17.462  0.00  0.00    +0.000 C 
BRANCH  15  17
ATOM     16  C   UNL     1       9.096   9.946  18.958  0.00  0.00    +0.000 C 
ATOM     17  C   UNL     1       8.605   8.562  18.573  0.00  0.00    +0.000 C 
ENDBRANCH  15  17
ENDBRANCH  14  15
ENDBRANCH  10  14
ENDBRANCH   1  11
TORSDOF 5
ENDMDL
MODEL 8
REMARK VINA RESULT:      -6.6      2.633      3.826
REMARK  Name = 
REMARK  6 active torsions:
REMARK  status: ('A' for Active; 'I' for Inactive)
REMARK    1  A    between atoms: C_1  and  C_2
REMARK    2  A    between atoms: C_2  and  C_3
REMARK    3  A    between atoms: C_3  and  O_4
REMARK    4  A    between atoms: O_4  and  N_5
REMARK    5  A    between atoms: C_6  and  C_7
REMARK    6  A    between atoms: C_6  and  C_9
REMARK                            x       y       z     vdW  Elec       q    Type
REMARK                         _______ _______ _______ _____ _____    ______ ____
ROOT
ATOM      1  C   UNL     1       4.811   5.173  17.301  0.00  0.00    +0.000 A 
ATOM      2  N   UNL     1       4.776   3.859  17.239  0.00  0.00    +0.000 NA
ATOM      3  C   UNL     1       3.579   3.396  17.764  0.00  0.00    +0.000 A 
ATOM      4  C   UNL     1       3.211   2.046  17.930  0.00  0.00    +0.000 A 
ATOM      5  C   UNL     1       1.965   1.724  18.477  0.00  0.00    +0.000 A 
ATOM      6  C   UNL     1       1.075   2.729  18.846  0.00  0.00    +0.000 A 
ATOM      7  C   UNL     1       1.415   4.077  18.692  0.00  0.00    +0.000 A 
ATOM      8  C   UNL     1       2.679   4.388  18.163  0.00  0.00    +0.000 A 
ATOM      9  S   UNL     1       3.398   5.930  17.907  0.00  0.00    +0.000 S 
ENDROOT
BRANCH   1  11
ATOM     10  N   UNL     1       6.284   7.061  17.509  0.00  0.00    +0.000 NA
ATOM     11  C   UNL     1       5.959   5.953  16.898  0.00  0.00    +0.000 C 
BRANCH  11  12
ATOM     12  C   UNL     1       6.787   5.512  15.788  0.00  0.00    +0.000 C 
ATOM     13  N   UNL     1       7.435   5.127  14.901  0.00  0.00    +0.000 NA
ENDBRANCH  11  12
BRANCH  10  14
ATOM     14  O   UNL     1       7.449   7.660  17.003  0.00  0.00    +0.000 OA
BRANCH  14  15
ATOM     15  C   UNL     1       8.249   8.104  18.103  0.00  0.00    +0.000 C 
BRANCH  15  17
ATOM     16  C   UNL     1       9.240  10.185  19.130  0.00  0.00    +0.000 C 
ATOM     17  C   UNL     1       8.309   9.626  18.070  0.00  0.00    +0.000 C 
ENDBRANCH  15  17
ENDBRANCH  14  15
ENDBRANCH  10  14
ENDBRANCH   1  11
TORSDOF 5
ENDMDL
MODEL 9
REMARK VINA RESULT:      -6.6      1.093      1.387
REMARK  Name = 
REMARK  6 active torsions:
REMARK  status: ('A' for Active; 'I' for Inactive)
REMARK    1  A    between atoms: C_1  and  C_2
REMARK    2  A    between atoms: C_2  and  C_3
REMARK    3  A    between atoms: C_3  and  O_4
REMARK    4  A    between atoms: O_4  and  N_5
REMARK    5  A    between atoms: C_6  and  C_7
REMARK    6  A    between atoms: C_6  and  C_9
REMARK                            x       y       z     vdW  Elec       q    Type
REMARK                         _______ _______ _______ _____ _____    ______ ____
ROOT
ATOM      1  C   UNL     1       4.492   4.462  17.381  0.00  0.00    +0.000 A 
ATOM      2  N   UNL     1       3.344   3.849  17.185  0.00  0.00    +0.000 NA
ATOM      3  C   UNL     1       2.624   3.814  18.370  0.00  0.00    +0.000 A 
ATOM      4  C   UNL     1       1.381   3.179  18.567  0.00  0.00    +0.000 A 
ATOM      5  C   UNL     1       0.766   3.224  19.823  0.00  0.00    +0.000 A 
ATOM      6  C   UNL     1       1.366   3.905  20.878  0.00  0.00    +0.000 A 
ATOM      7  C   UNL     1       2.599   4.543  20.709  0.00  0.00    +0.000 A 
ATOM      8  C   UNL     1       3.218   4.471  19.450  0.00  0.00    +0.000 A 
ATOM      9  S   UNL     1       4.741   5.099  18.953  0.00  0.00    +0.000 S 
ENDROOT
BRANCH   1  11
ATOM     10  N   UNL     1       5.498   3.843  15.288  0.00  0.00    +0.000 NA
ATOM     11  C   UNL     1       5.500   4.598  16.354  0.00  0.00    +0.000 C 
BRANCH  11  12
ATOM     12  C   UNL     1       6.552   5.591  16.490  0.00  0.00    +0.000 C 
ATOM     13  N   UNL     1       7.386   6.399  16.567  0.00  0.00    +0.000 NA
ENDBRANCH  11  12
BRANCH  10  14
ATOM     14  O   UNL     1       6.532   4.144  14.385  0.00  0.00    +0.000 OA
BRANCH  14  15
ATOM     15  C   UNL     1       6.158   3.668  13.088  0.00  0.00    +0.000 C 
BRANCH  15  17
ATOM     16  C   UNL     1       7.972   5.363  12.637  0.00  0.00    +0.000 C 
ATOM     17  C   UNL     1       7.145   4.224  12.069  0.00  0.00    +0.000 C 
ENDBRANCH  15  17
ENDBRANCH  14  15
ENDBRANCH  10  14
ENDBRANCH   1  11
TORSDOF 5
ENDMDL
