MODEL 1
REMARK VINA RESULT:      -3.3      0.000      0.000
REMARK  Name = 
REMARK  0 active torsions:
REMARK  status: ('A' for Active; 'I' for Inactive)
REMARK                            x       y       z     vdW  Elec       q    Type
REMARK                         _______ _______ _______ _____ _____    ______ ____
ROOT
ATOM      1  O   UNL     1       5.737   5.977  15.160  0.00  0.00    +0.000 OA
ATOM      2  S   UNL     1       6.831   4.883  15.215  0.00  0.00    +0.000 S 
ATOM      3  O   UNL     1       6.166   3.709  14.481  0.00  0.00    +0.000 OA
ATOM      4  O   UNL     1       7.965   5.560  14.102  0.00  0.00    +0.000 OA
ATOM      5  O   UNL     1       7.946   4.413  18.239  0.00  0.00    +0.000 OA
ENDROOT
TORSDOF 0
ENDMDL
MODEL 2
REMARK VINA RESULT:      -3.3      2.226      3.081
REMARK  Name = 
REMARK  0 active torsions:
REMARK  status: ('A' for Active; 'I' for Inactive)
REMARK                            x       y       z     vdW  Elec       q    Type
REMARK                         _______ _______ _______ _____ _____    ______ ____
ROOT
ATOM      1  O   UNL     1       7.851   4.422  16.429  0.00  0.00    +0.000 OA
ATOM      2  S   UNL     1       7.147   5.550  17.222  0.00  0.00    +0.000 S 
ATOM      3  O   UNL     1       7.593   6.814  16.472  0.00  0.00    +0.000 OA
ATOM      4  O   UNL     1       5.514   5.260  16.740  0.00  0.00    +0.000 OA
ATOM      5  O   UNL     1       7.719   5.342  20.422  0.00  0.00    +0.000 OA
ENDROOT
TORSDOF 0
ENDMDL
MODEL 3
REMARK VINA RESULT:      -3.3      1.950      3.090
REMARK  Name = 
REMARK  0 active torsions:
REMARK  status: ('A' for Active; 'I' for Inactive)
REMARK                            x       y       z     vdW  Elec       q    Type
REMARK                         _______ _______ _______ _____ _____    ______ ____
ROOT
ATOM      1  O   UNL     1       7.998   4.403  16.995  0.00  0.00    +0.000 OA
ATOM      2  S   UNL     1       7.026   5.417  16.344  0.00  0.00    +0.000 S 
ATOM      3  O   UNL     1       7.616   6.768  16.772  0.00  0.00    +0.000 OA
ATOM      4  O   UNL     1       7.465   5.208  14.686  0.00  0.00    +0.000 OA
ATOM      5  O   UNL     1       3.915   4.767  17.061  0.00  0.00    +0.000 OA
ENDROOT
TORSDOF 0
ENDMDL
MODEL 4
REMARK VINA RESULT:      -3.2      2.643      3.591
REMARK  Name = 
REMARK  0 active torsions:
REMARK  status: ('A' for Active; 'I' for Inactive)
REMARK                            x       y       z     vdW  Elec       q    Type
REMARK                         _______ _______ _______ _____ _____    ______ ____
ROOT
ATOM      1  O   UNL     1       7.506   5.974  16.208  0.00  0.00    +0.000 OA
ATOM      2  S   UNL     1       7.030   6.807  17.423  0.00  0.00    +0.000 S 
ATOM      3  O   UNL     1       7.662   8.181  17.154  0.00  0.00    +0.000 OA
ATOM      4  O   UNL     1       5.357   6.964  17.023  0.00  0.00    +0.000 OA
ATOM      5  O   UNL     1       7.658   5.318  20.252  0.00  0.00    +0.000 OA
ENDROOT
TORSDOF 0
ENDMDL
MODEL 5
REMARK VINA RESULT:      -3.2      0.166      1.943
REMARK  Name = 
REMARK  0 active torsions:
REMARK  status: ('A' for Active; 'I' for Inactive)
REMARK                            x       y       z     vdW  Elec       q    Type
REMARK                         _______ _______ _______ _____ _____    ______ ____
ROOT
ATOM      1  O   UNL     1       6.203   3.721  14.612  0.00  0.00    +0.000 OA
ATOM      2  S   UNL     1       6.838   4.978  15.256  0.00  0.00    +0.000 S 
ATOM      3  O   UNL     1       7.849   5.424  14.190  0.00  0.00    +0.000 OA
ATOM      4  O   UNL     1       5.502   6.066  15.131  0.00  0.00    +0.000 OA
ATOM      5  O   UNL     1       7.898   4.403  18.282  0.00  0.00    +0.000 OA
ENDROOT
TORSDOF 0
ENDMDL
MODEL 6
REMARK VINA RESULT:      -3.2      2.213      3.682
REMARK  Name = 
REMARK  0 active torsions:
REMARK  status: ('A' for Active; 'I' for Inactive)
REMARK                            x       y       z     vdW  Elec       q    Type
REMARK                         _______ _______ _______ _____ _____    ______ ____
ROOT
ATOM      1  O   UNL     1       8.424   4.072  17.750  0.00  0.00    +0.000 OA
ATOM      2  S   UNL     1       7.110   4.842  17.468  0.00  0.00    +0.000 S 
ATOM      3  O   UNL     1       6.521   4.072  16.277  0.00  0.00    +0.000 OA
ATOM      4  O   UNL     1       6.194   4.356  18.850  0.00  0.00    +0.000 OA
ATOM      5  O   UNL     1       7.606   8.047  17.173  0.00  0.00    +0.000 OA
ENDROOT
TORSDOF 0
ENDMDL
MODEL 7
REMARK VINA RESULT:      -3.2      2.347      4.046
REMARK  Name = 
REMARK  0 active torsions:
REMARK  status: ('A' for Active; 'I' for Inactive)
REMARK                            x       y       z     vdW  Elec       q    Type
REMARK                         _______ _______ _______ _____ _____    ______ ____
ROOT
ATOM      1  O   UNL     1       8.156   4.220  17.333  0.00  0.00    +0.000 OA
ATOM      2  S   UNL     1       7.050   5.172  17.850  0.00  0.00    +0.000 S 
ATOM      3  O   UNL     1       6.279   4.283  18.837  0.00  0.00    +0.000 OA
ATOM      4  O   UNL     1       8.015   6.232  18.815  0.00  0.00    +0.000 OA
ATOM      5  O   UNL     1       5.418   6.592  15.415  0.00  0.00    +0.000 OA
ENDROOT
TORSDOF 0
ENDMDL
MODEL 8
REMARK VINA RESULT:      -3.2      1.878      2.763
REMARK  Name = 
REMARK  0 active torsions:
REMARK  status: ('A' for Active; 'I' for Inactive)
REMARK                            x       y       z     vdW  Elec       q    Type
REMARK                         _______ _______ _______ _____ _____    ______ ____
ROOT
ATOM      1  O   UNL     1       7.594   4.800  15.512  0.00  0.00    +0.000 OA
ATOM      2  S   UNL     1       6.789   5.701  16.480  0.00  0.00    +0.000 S 
ATOM      3  O   UNL     1       7.715   6.915  16.654  0.00  0.00    +0.000 OA
ATOM      4  O   UNL     1       5.529   6.211  15.414  0.00  0.00    +0.000 OA
ATOM      5  O   UNL     1       5.809   4.083  19.132  0.00  0.00    +0.000 OA
ENDROOT
TORSDOF 0
ENDMDL
MODEL 9
REMARK VINA RESULT:      -3.2      1.090      3.269
REMARK  Name = 
REMARK  0 active torsions:
REMARK  status: ('A' for Active; 'I' for Inactive)
REMARK                            x       y       z     vdW  Elec       q    Type
REMARK                         _______ _______ _______ _____ _____    ______ ____
ROOT
ATOM      1  O   UNL     1       6.176   3.622  15.463  0.00  0.00    +0.000 OA
ATOM      2  S   UNL     1       7.025   4.878  15.780  0.00  0.00    +0.000 S 
ATOM      3  O   UNL     1       6.001   5.816  16.435  0.00  0.00    +0.000 OA
ATOM      4  O   UNL     1       7.990   4.251  17.068  0.00  0.00    +0.000 OA
ATOM      5  O   UNL     1       8.676   5.930  13.178  0.00  0.00    +0.000 OA
ENDROOT
TORSDOF 0
ENDMDL
