MODEL 1
REMARK VINA RESULT:      -9.2      0.000      0.000
REMARK  Name = 
REMARK  7 active torsions:
REMARK  status: ('A' for Active; 'I' for Inactive)
REMARK    1  A    between atoms: C_1  and  C_2
REMARK    2  A    between atoms: C_2  and  C_3
REMARK    3  A    between atoms: C_3  and  C_4
REMARK    4  A    between atoms: N_12  and  C_13
REMARK    5  A    between atoms: C_13  and  C_14
REMARK    6  A    between atoms: C_30  and  C_31
REMARK    7  A    between atoms: C_30  and  C_32
REMARK                            x       y       z     vdW  Elec       q    Type
REMARK                         _______ _______ _______ _____ _____    ______ ____
ROOT
ATOM      1  C   UNL     1       1.916   8.444  18.758  0.00  0.00    +0.000 A 
ATOM      2  C   UNL     1       1.197   8.984  17.692  0.00  0.00    +0.000 A 
ATOM      3  C   UNL     1       0.324  10.050  17.899  0.00  0.00    +0.000 A 
ATOM      4  C   UNL     1      -0.070  10.450  19.190  0.00  0.00    +0.000 A 
ATOM      5  C   UNL     1       0.535   9.790  20.272  0.00  0.00    +0.000 A 
ATOM      6  C   UNL     1       1.608   8.896  20.041  0.00  0.00    +0.000 A 
ATOM      7  C   UNL     1       0.107   9.976  21.719  0.00  0.00    +0.000 C 
ATOM      8  O   UNL     1      -1.294  10.304  21.937  0.00  0.00    +0.000 OA
ATOM      9  C   UNL     1      -1.409  11.679  21.922  0.00  0.00    +0.000 A 
ATOM     10  C   UNL     1      -1.559  12.306  23.171  0.00  0.00    +0.000 A 
ATOM     11  C   UNL     1      -1.014  13.565  23.330  0.00  0.00    +0.000 A 
ATOM     12  F   UNL     1      -1.018  14.145  24.537  0.00  0.00    +0.000 F 
ATOM     13  C   UNL     1      -0.332  14.141  22.267  0.00  0.00    +0.000 A 
ATOM     14  C   UNL     1      -0.355  13.559  20.976  0.00  0.00    +0.000 A 
ATOM     15  C   UNL     1      -1.014  12.345  20.741  0.00  0.00    +0.000 A 
ATOM     16  C   UNL     1      -1.086  11.544  19.432  0.00  0.00    +0.000 C 
ATOM     17  C   UNL     1      -2.162  11.667  18.587  0.00  0.00    +0.000 C 
ATOM     18  C   UNL     1      -3.255  12.700  18.671  0.00  0.00    +0.000 C 
ENDROOT
BRANCH  17  19
ATOM     19  C   UNL     1      -2.466  10.690  17.470  0.00  0.00    +0.000 A 
ATOM     20  N   UNL     1      -2.941   9.491  17.548  0.00  0.00    +0.000 NA
ATOM     21  O   UNL     1      -3.058   9.017  16.195  0.00  0.00    +0.000 OA
ATOM     22  C   UNL     1      -2.676  10.060  15.403  0.00  0.00    +0.000 A 
ATOM     23  O   UNL     1      -2.687  10.077  14.175  0.00  0.00    +0.000 OA
ATOM     24  N   UNL     1      -2.319  11.094  16.200  0.00  0.00    +0.000 N 
ATOM     25  H   UNL     1      -2.037  11.983  15.821  0.00  0.00    +0.000 HD
ENDBRANCH  17  19
BRANCH   1  26
ATOM     26  C   UNL     1       3.135   7.636  18.421  0.00  0.00    +0.000 C 
BRANCH  26  35
ATOM     27  C   UNL     1       3.938   5.521  17.426  0.00  0.00    +0.000 A 
ATOM     28  N   UNL     1       3.903   4.220  17.617  0.00  0.00    +0.000 NA
ATOM     29  C   UNL     1       2.996   4.018  18.619  0.00  0.00    +0.000 A 
ATOM     30  C   UNL     1       2.598   2.804  19.201  0.00  0.00    +0.000 A 
ATOM     31  C   UNL     1       1.624   2.821  20.203  0.00  0.00    +0.000 A 
ATOM     32  C   UNL     1       1.037   4.024  20.595  0.00  0.00    +0.000 A 
ATOM     33  C   UNL     1       1.419   5.247  20.020  0.00  0.00    +0.000 A 
ATOM     34  C   UNL     1       2.436   5.222  19.056  0.00  0.00    +0.000 A 
ATOM     35  N   UNL     1       3.131   6.178  18.352  0.00  0.00    +0.000 N 
BRANCH  27  36
ATOM     36  C   UNL     1       4.760   6.214  16.380  0.00  0.00    +0.000 C 
BRANCH  36  38
ATOM     37  C   UNL     1       6.936   6.938  17.405  0.00  0.00    +0.000 C 
ATOM     38  C   UNL     1       6.248   5.900  16.529  0.00  0.00    +0.000 C 
ENDBRANCH  36  38
ENDBRANCH  27  36
ENDBRANCH  26  35
ENDBRANCH   1  26
TORSDOF 5
ENDMDL
MODEL 2
REMARK VINA RESULT:      -8.8      3.561      8.481
REMARK  Name = 
REMARK  7 active torsions:
REMARK  status: ('A' for Active; 'I' for Inactive)
REMARK    1  A    between atoms: C_1  and  C_2
REMARK    2  A    between atoms: C_2  and  C_3
REMARK    3  A    between atoms: C_3  and  C_4
REMARK    4  A    between atoms: N_12  and  C_13
REMARK    5  A    between atoms: C_13  and  C_14
REMARK    6  A    between atoms: C_30  and  C_31
REMARK    7  A    between atoms: C_30  and  C_32
REMARK                            x       y       z     vdW  Elec       q    Type
REMARK                         _______ _______ _______ _____ _____    ______ ____
ROOT
ATOM      1  C   UNL     1       1.665   9.526  18.711  0.00  0.00    +0.000 A 
ATOM      2  C   UNL     1       2.326   9.023  17.591  0.00  0.00    +0.000 A 
ATOM      3  C   UNL     1       2.618   7.664  17.497  0.00  0.00    +0.000 A 
ATOM      4  C   UNL     1       2.508   6.800  18.603  0.00  0.00    +0.000 A 
ATOM      5  C   UNL     1       1.993   7.348  19.789  0.00  0.00    +0.000 A 
ATOM      6  C   UNL     1       1.460   8.660  19.785  0.00  0.00    +0.000 A 
ATOM      7  C   UNL     1       1.964   6.609  21.116  0.00  0.00    +0.000 C 
ATOM      8  O   UNL     1       3.021   5.630  21.329  0.00  0.00    +0.000 OA
ATOM      9  C   UNL     1       2.567   4.416  20.856  0.00  0.00    +0.000 A 
ATOM     10  C   UNL     1       2.159   3.482  21.825  0.00  0.00    +0.000 A 
ATOM     11  C   UNL     1       1.129   2.623  21.498  0.00  0.00    +0.000 A 
ATOM     12  F   UNL     1       0.620   1.807  22.430  0.00  0.00    +0.000 F 
ATOM     13  C   UNL     1       0.534   2.730  20.248  0.00  0.00    +0.000 A 
ATOM     14  C   UNL     1       1.088   3.557  19.239  0.00  0.00    +0.000 A 
ATOM     15  C   UNL     1       2.217   4.347  19.490  0.00  0.00    +0.000 A 
ATOM     16  C   UNL     1       2.906   5.342  18.543  0.00  0.00    +0.000 C 
ATOM     17  C   UNL     1       4.002   4.969  17.803  0.00  0.00    +0.000 C 
ATOM     18  C   UNL     1       4.530   3.570  17.624  0.00  0.00    +0.000 C 
ENDROOT
BRANCH  17  19
ATOM     19  C   UNL     1       4.923   5.956  17.116  0.00  0.00    +0.000 A 
ATOM     20  N   UNL     1       4.853   6.432  15.917  0.00  0.00    +0.000 NA
ATOM     21  O   UNL     1       5.956   7.345  15.782  0.00  0.00    +0.000 OA
ATOM     22  C   UNL     1       6.569   7.366  17.000  0.00  0.00    +0.000 A 
ATOM     23  O   UNL     1       7.527   8.068  17.314  0.00  0.00    +0.000 OA
ATOM     24  N   UNL     1       5.919   6.511  17.822  0.00  0.00    +0.000 N 
ATOM     25  H   UNL     1       6.185   6.397  18.786  0.00  0.00    +0.000 HD
ENDBRANCH  17  19
BRANCH   1  26
ATOM     26  C   UNL     1       0.993  10.860  18.566  0.00  0.00    +0.000 C 
BRANCH  26  35
ATOM     27  C   UNL     1      -0.907  11.656  19.932  0.00  0.00    +0.000 A 
ATOM     28  N   UNL     1      -2.203  11.872  19.860  0.00  0.00    +0.000 NA
ATOM     29  C   UNL     1      -2.602  11.328  18.672  0.00  0.00    +0.000 A 
ATOM     30  C   UNL     1      -3.892  11.299  18.118  0.00  0.00    +0.000 A 
ATOM     31  C   UNL     1      -4.086  10.658  16.891  0.00  0.00    +0.000 A 
ATOM     32  C   UNL     1      -3.021  10.033  16.245  0.00  0.00    +0.000 A 
ATOM     33  C   UNL     1      -1.725  10.047  16.788  0.00  0.00    +0.000 A 
ATOM     34  C   UNL     1      -1.532  10.741  17.990  0.00  0.00    +0.000 A 
ATOM     35  N   UNL     1      -0.440  11.056  18.765  0.00  0.00    +0.000 N 
BRANCH  27  36
ATOM     36  C   UNL     1      -0.037  12.034  21.095  0.00  0.00    +0.000 C 
BRANCH  36  38
ATOM     37  C   UNL     1      -0.333  10.171  22.753  0.00  0.00    +0.000 C 
ATOM     38  C   UNL     1      -0.660  11.622  22.427  0.00  0.00    +0.000 C 
ENDBRANCH  36  38
ENDBRANCH  27  36
ENDBRANCH  26  35
ENDBRANCH   1  26
TORSDOF 5
ENDMDL
MODEL 3
REMARK VINA RESULT:      -8.4      3.604      8.481
REMARK  Name = 
REMARK  7 active torsions:
REMARK  status: ('A' for Active; 'I' for Inactive)
REMARK    1  A    between atoms: C_1  and  C_2
REMARK    2  A    between atoms: C_2  and  C_3
REMARK    3  A    between atoms: C_3  and  C_4
REMARK    4  A    between atoms: N_12  and  C_13
REMARK    5  A    between atoms: C_13  and  C_14
REMARK    6  A    between atoms: C_30  and  C_31
REMARK    7  A    between atoms: C_30  and  C_32
REMARK                            x       y       z     vdW  Elec       q    Type
REMARK                         _______ _______ _______ _____ _____    ______ ____
ROOT
ATOM      1  C   UNL     1       1.793   9.493  18.567  0.00  0.00    +0.000 A 
ATOM      2  C   UNL     1       2.448   8.956  17.460  0.00  0.00    +0.000 A 
ATOM      3  C   UNL     1       2.713   7.590  17.392  0.00  0.00    +0.000 A 
ATOM      4  C   UNL     1       2.580   6.749  18.514  0.00  0.00    +0.000 A 
ATOM      5  C   UNL     1       2.072   7.330  19.687  0.00  0.00    +0.000 A 
ATOM      6  C   UNL     1       1.566   8.652  19.656  0.00  0.00    +0.000 A 
ATOM      7  C   UNL     1       2.022   6.616  21.028  0.00  0.00    +0.000 C 
ATOM      8  O   UNL     1       3.057   5.620  21.264  0.00  0.00    +0.000 OA
ATOM      9  C   UNL     1       2.581   4.407  20.812  0.00  0.00    +0.000 A 
ATOM     10  C   UNL     1       2.150   3.500  21.796  0.00  0.00    +0.000 A 
ATOM     11  C   UNL     1       1.104   2.656  21.480  0.00  0.00    +0.000 A 
ATOM     12  F   UNL     1       0.574   1.868  22.425  0.00  0.00    +0.000 F 
ATOM     13  C   UNL     1       0.517   2.752  20.226  0.00  0.00    +0.000 A 
ATOM     14  C   UNL     1       1.092   3.548  19.204  0.00  0.00    +0.000 A 
ATOM     15  C   UNL     1       2.236   4.320  19.446  0.00  0.00    +0.000 A 
ATOM     16  C   UNL     1       2.949   5.282  18.484  0.00  0.00    +0.000 C 
ATOM     17  C   UNL     1       4.040   4.874  17.756  0.00  0.00    +0.000 C 
ATOM     18  C   UNL     1       4.540   3.461  17.605  0.00  0.00    +0.000 C 
ENDROOT
BRANCH  17  19
ATOM     19  C   UNL     1       4.985   5.829  17.055  0.00  0.00    +0.000 A 
ATOM     20  N   UNL     1       4.953   6.251  15.834  0.00  0.00    +0.000 NA
ATOM     21  O   UNL     1       6.061   7.157  15.693  0.00  0.00    +0.000 OA
ATOM     22  C   UNL     1       6.637   7.231  16.928  0.00  0.00    +0.000 A 
ATOM     23  O   UNL     1       7.585   7.946  17.241  0.00  0.00    +0.000 OA
ATOM     24  N   UNL     1       5.959   6.414  17.766  0.00  0.00    +0.000 N 
ATOM     25  H   UNL     1       6.194   6.342  18.742  0.00  0.00    +0.000 HD
ENDBRANCH  17  19
BRANCH   1  26
ATOM     26  C   UNL     1       1.148  10.837  18.394  0.00  0.00    +0.000 C 
BRANCH  26  35
ATOM     27  C   UNL     1      -0.571  11.821  19.873  0.00  0.00    +0.000 A 
ATOM     28  N   UNL     1      -1.861  12.074  19.919  0.00  0.00    +0.000 NA
ATOM     29  C   UNL     1      -2.401  11.436  18.838  0.00  0.00    +0.000 A 
ATOM     30  C   UNL     1      -3.744  11.400  18.430  0.00  0.00    +0.000 A 
ATOM     31  C   UNL     1      -4.087  10.654  17.298  0.00  0.00    +0.000 A 
ATOM     32  C   UNL     1      -3.114   9.936  16.605  0.00  0.00    +0.000 A 
ATOM     33  C   UNL     1      -1.766   9.957  17.002  0.00  0.00    +0.000 A 
ATOM     34  C   UNL     1      -1.426  10.752  18.105  0.00  0.00    +0.000 A 
ATOM     35  N   UNL     1      -0.249  11.100  18.725  0.00  0.00    +0.000 N 
BRANCH  27  36
ATOM     36  C   UNL     1       0.430  12.275  20.894  0.00  0.00    +0.000 C 
BRANCH  36  38
ATOM     37  C   UNL     1       1.389  14.319  19.793  0.00  0.00    +0.000 C 
ATOM     38  C   UNL     1       0.539  13.798  20.943  0.00  0.00    +0.000 C 
ENDBRANCH  36  38
ENDBRANCH  27  36
ENDBRANCH  26  35
ENDBRANCH   1  26
TORSDOF 5
ENDMDL
MODEL 4
REMARK VINA RESULT:      -8.4      4.028      8.781
REMARK  Name = 
REMARK  7 active torsions:
REMARK  status: ('A' for Active; 'I' for Inactive)
REMARK    1  A    between atoms: C_1  and  C_2
REMARK    2  A    between atoms: C_2  and  C_3
REMARK    3  A    between atoms: C_3  and  C_4
REMARK    4  A    between atoms: N_12  and  C_13
REMARK    5  A    between atoms: C_13  and  C_14
REMARK    6  A    between atoms: C_30  and  C_31
REMARK    7  A    between atoms: C_30  and  C_32
REMARK                            x       y       z     vdW  Elec       q    Type
REMARK                         _______ _______ _______ _____ _____    ______ ____
ROOT
ATOM      1  C   UNL     1       1.662   9.418  18.707  0.00  0.00    +0.000 A 
ATOM      2  C   UNL     1       2.322   8.920  17.585  0.00  0.00    +0.000 A 
ATOM      3  C   UNL     1       2.624   7.563  17.491  0.00  0.00    +0.000 A 
ATOM      4  C   UNL     1       2.528   6.700  18.599  0.00  0.00    +0.000 A 
ATOM      5  C   UNL     1       2.015   7.245  19.787  0.00  0.00    +0.000 A 
ATOM      6  C   UNL     1       1.470   8.553  19.783  0.00  0.00    +0.000 A 
ATOM      7  C   UNL     1       1.999   6.508  21.116  0.00  0.00    +0.000 C 
ATOM      8  O   UNL     1       3.065   5.539  21.325  0.00  0.00    +0.000 OA
ATOM      9  C   UNL     1       2.619   4.320  20.856  0.00  0.00    +0.000 A 
ATOM     10  C   UNL     1       2.224   3.384  21.829  0.00  0.00    +0.000 A 
ATOM     11  C   UNL     1       1.200   2.515  21.508  0.00  0.00    +0.000 A 
ATOM     12  F   UNL     1       0.703   1.697  22.445  0.00  0.00    +0.000 F 
ATOM     13  C   UNL     1       0.598   2.616  20.262  0.00  0.00    +0.000 A 
ATOM     14  C   UNL     1       1.139   3.446  19.249  0.00  0.00    +0.000 A 
ATOM     15  C   UNL     1       2.263   4.246  19.492  0.00  0.00    +0.000 A 
ATOM     16  C   UNL     1       2.938   5.245  18.540  0.00  0.00    +0.000 C 
ATOM     17  C   UNL     1       4.033   4.881  17.795  0.00  0.00    +0.000 C 
ATOM     18  C   UNL     1       4.572   3.486  17.615  0.00  0.00    +0.000 C 
ENDROOT
BRANCH  17  19
ATOM     19  C   UNL     1       4.943   5.875  17.102  0.00  0.00    +0.000 A 
ATOM     20  N   UNL     1       4.883   6.321  15.890  0.00  0.00    +0.000 NA
ATOM     21  O   UNL     1       5.965   7.258  15.753  0.00  0.00    +0.000 OA
ATOM     22  C   UNL     1       6.555   7.322  16.982  0.00  0.00    +0.000 A 
ATOM     23  O   UNL     1       7.489   8.055  17.297  0.00  0.00    +0.000 OA
ATOM     24  N   UNL     1       5.912   6.470  17.812  0.00  0.00    +0.000 N 
ATOM     25  H   UNL     1       6.162   6.385  18.783  0.00  0.00    +0.000 HD
ENDBRANCH  17  19
BRANCH   1  26
ATOM     26  C   UNL     1       0.977  10.746  18.564  0.00  0.00    +0.000 C 
BRANCH  26  35
ATOM     27  C   UNL     1       0.544  12.031  20.631  0.00  0.00    +0.000 A 
ATOM     28  N   UNL     1       1.030  13.026  21.341  0.00  0.00    +0.000 NA
ATOM     29  C   UNL     1       2.005  13.590  20.566  0.00  0.00    +0.000 A 
ATOM     30  C   UNL     1       2.832  14.683  20.868  0.00  0.00    +0.000 A 
ATOM     31  C   UNL     1       3.752  15.119  19.911  0.00  0.00    +0.000 A 
ATOM     32  C   UNL     1       3.824  14.496  18.666  0.00  0.00    +0.000 A 
ATOM     33  C   UNL     1       3.000  13.405  18.345  0.00  0.00    +0.000 A 
ATOM     34  C   UNL     1       2.121  12.942  19.333  0.00  0.00    +0.000 A 
ATOM     35  N   UNL     1       1.249  11.882  19.439  0.00  0.00    +0.000 N 
BRANCH  27  36
ATOM     36  C   UNL     1      -0.592  11.148  21.055  0.00  0.00    +0.000 C 
BRANCH  36  38
ATOM     37  C   UNL     1      -0.081   9.661  23.015  0.00  0.00    +0.000 C 
ATOM     38  C   UNL     1      -0.658  10.999  22.575  0.00  0.00    +0.000 C 
ENDBRANCH  36  38
ENDBRANCH  27  36
ENDBRANCH  26  35
ENDBRANCH   1  26
TORSDOF 5
ENDMDL
MODEL 5
REMARK VINA RESULT:      -8.1      4.331      9.289
REMARK  Name = 
REMARK  7 active torsions:
REMARK  status: ('A' for Active; 'I' for Inactive)
REMARK    1  A    between atoms: C_1  and  C_2
REMARK    2  A    between atoms: C_2  and  C_3
REMARK    3  A    between atoms: C_3  and  C_4
REMARK    4  A    between atoms: N_12  and  C_13
REMARK    5  A    between atoms: C_13  and  C_14
REMARK    6  A    between atoms: C_30  and  C_31
REMARK    7  A    between atoms: C_30  and  C_32
REMARK                            x       y       z     vdW  Elec       q    Type
REMARK                         _______ _______ _______ _____ _____    ______ ____
ROOT
ATOM      1  C   UNL     1       2.129   9.159  18.404  0.00  0.00    +0.000 A 
ATOM      2  C   UNL     1       3.190   9.021  17.510  0.00  0.00    +0.000 A 
ATOM      3  C   UNL     1       3.728   7.763  17.245  0.00  0.00    +0.000 A 
ATOM      4  C   UNL     1       3.422   6.640  18.037  0.00  0.00    +0.000 A 
ATOM      5  C   UNL     1       2.469   6.819  19.052  0.00  0.00    +0.000 A 
ATOM      6  C   UNL     1       1.745   8.034  19.133  0.00  0.00    +0.000 A 
ATOM      7  C   UNL     1       2.146   5.767  20.101  0.00  0.00    +0.000 C 
ATOM      8  O   UNL     1       3.232   4.868  20.464  0.00  0.00    +0.000 OA
ATOM      9  C   UNL     1       3.171   3.777  19.620  0.00  0.00    +0.000 A 
ATOM     10  C   UNL     1       2.644   2.595  20.168  0.00  0.00    +0.000 A 
ATOM     11  C   UNL     1       1.939   1.755  19.329  0.00  0.00    +0.000 A 
ATOM     12  F   UNL     1       1.309   0.686  19.833  0.00  0.00    +0.000 F 
ATOM     13  C   UNL     1       1.765   2.121  18.002  0.00  0.00    +0.000 A 
ATOM     14  C   UNL     1       2.459   3.225  17.447  0.00  0.00    +0.000 A 
ATOM     15  C   UNL     1       3.294   4.026  18.237  0.00  0.00    +0.000 A 
ATOM     16  C   UNL     1       4.066   5.288  17.821  0.00  0.00    +0.000 C 
ATOM     17  C   UNL     1       5.387   5.219  17.453  0.00  0.00    +0.000 C 
ATOM     18  C   UNL     1       6.179   3.966  17.185  0.00  0.00    +0.000 C 
ENDROOT
BRANCH  17  19
ATOM     19  C   UNL     1       6.294   6.429  17.355  0.00  0.00    +0.000 A 
ATOM     20  N   UNL     1       6.320   7.351  16.450  0.00  0.00    +0.000 NA
ATOM     21  O   UNL     1       7.349   8.274  16.846  0.00  0.00    +0.000 OA
ATOM     22  C   UNL     1       7.817   7.814  18.043  0.00  0.00    +0.000 A 
ATOM     23  O   UNL     1       8.669   8.356  18.742  0.00  0.00    +0.000 OA
ATOM     24  N   UNL     1       7.152   6.678  18.354  0.00  0.00    +0.000 N 
ATOM     25  H   UNL     1       7.315   6.188  19.218  0.00  0.00    +0.000 HD
ENDBRANCH  17  19
BRANCH   1  26
ATOM     26  C   UNL     1       1.317  10.417  18.312  0.00  0.00    +0.000 C 
BRANCH  26  35
ATOM     27  C   UNL     1       0.768  11.518  20.456  0.00  0.00    +0.000 A 
ATOM     28  N   UNL     1       1.137  12.527  21.214  0.00  0.00    +0.000 NA
ATOM     29  C   UNL     1       2.013  13.256  20.459  0.00  0.00    +0.000 A 
ATOM     30  C   UNL     1       2.699  14.429  20.811  0.00  0.00    +0.000 A 
ATOM     31  C   UNL     1       3.533  15.034  19.866  0.00  0.00    +0.000 A 
ATOM     32  C   UNL     1       3.656  14.495  18.587  0.00  0.00    +0.000 A 
ATOM     33  C   UNL     1       2.972  13.325  18.215  0.00  0.00    +0.000 A 
ATOM     34  C   UNL     1       2.184  12.697  19.189  0.00  0.00    +0.000 A 
ATOM     35  N   UNL     1       1.460  11.529  19.246  0.00  0.00    +0.000 N 
BRANCH  27  36
ATOM     36  C   UNL     1      -0.234  10.472  20.846  0.00  0.00    +0.000 C 
BRANCH  36  38
ATOM     37  C   UNL     1      -0.597   9.925  23.271  0.00  0.00    +0.000 C 
ATOM     38  C   UNL     1       0.247   9.642  22.036  0.00  0.00    +0.000 C 
ENDBRANCH  36  38
ENDBRANCH  27  36
ENDBRANCH  26  35
ENDBRANCH   1  26
TORSDOF 5
ENDMDL
MODEL 6
REMARK VINA RESULT:      -8.1      3.583      8.613
REMARK  Name = 
REMARK  7 active torsions:
REMARK  status: ('A' for Active; 'I' for Inactive)
REMARK    1  A    between atoms: C_1  and  C_2
REMARK    2  A    between atoms: C_2  and  C_3
REMARK    3  A    between atoms: C_3  and  C_4
REMARK    4  A    between atoms: N_12  and  C_13
REMARK    5  A    between atoms: C_13  and  C_14
REMARK    6  A    between atoms: C_30  and  C_31
REMARK    7  A    between atoms: C_30  and  C_32
REMARK                            x       y       z     vdW  Elec       q    Type
REMARK                         _______ _______ _______ _____ _____    ______ ____
ROOT
ATOM      1  C   UNL     1       1.808   9.533  18.426  0.00  0.00    +0.000 A 
ATOM      2  C   UNL     1       2.580   9.017  17.386  0.00  0.00    +0.000 A 
ATOM      3  C   UNL     1       2.899   7.661  17.353  0.00  0.00    +0.000 A 
ATOM      4  C   UNL     1       2.696   6.820  18.464  0.00  0.00    +0.000 A 
ATOM      5  C   UNL     1       2.063   7.386  19.582  0.00  0.00    +0.000 A 
ATOM      6  C   UNL     1       1.514   8.689  19.496  0.00  0.00    +0.000 A 
ATOM      7  C   UNL     1       1.918   6.677  20.918  0.00  0.00    +0.000 C 
ATOM      8  O   UNL     1       2.963   5.721  21.254  0.00  0.00    +0.000 OA
ATOM      9  C   UNL     1       2.574   4.488  20.769  0.00  0.00    +0.000 A 
ATOM     10  C   UNL     1       2.089   3.570  21.717  0.00  0.00    +0.000 A 
ATOM     11  C   UNL     1       1.107   2.687  21.314  0.00  0.00    +0.000 A 
ATOM     12  F   UNL     1       0.524   1.884  22.213  0.00  0.00    +0.000 F 
ATOM     13  C   UNL     1       0.633   2.756  20.012  0.00  0.00    +0.000 A 
ATOM     14  C   UNL     1       1.268   3.569  19.040  0.00  0.00    +0.000 A 
ATOM     15  C   UNL     1       2.358   4.383  19.378  0.00  0.00    +0.000 A 
ATOM     16  C   UNL     1       3.119   5.368  18.478  0.00  0.00    +0.000 C 
ATOM     17  C   UNL     1       4.286   4.997  17.854  0.00  0.00    +0.000 C 
ATOM     18  C   UNL     1       4.848   3.603  17.760  0.00  0.00    +0.000 C 
ENDROOT
BRANCH  17  19
ATOM     19  C   UNL     1       5.254   5.983  17.235  0.00  0.00    +0.000 A 
ATOM     20  N   UNL     1       5.268   6.461  16.034  0.00  0.00    +0.000 NA
ATOM     21  O   UNL     1       6.379   7.373  15.977  0.00  0.00    +0.000 OA
ATOM     22  C   UNL     1       6.907   7.390  17.235  0.00  0.00    +0.000 A 
ATOM     23  O   UNL     1       7.842   8.090  17.616  0.00  0.00    +0.000 OA
ATOM     24  N   UNL     1       6.200   6.535  18.008  0.00  0.00    +0.000 N 
ATOM     25  H   UNL     1       6.398   6.418  18.989  0.00  0.00    +0.000 HD
ENDBRANCH  17  19
BRANCH   1  26
ATOM     26  C   UNL     1       1.133  10.852  18.186  0.00  0.00    +0.000 C 
BRANCH  26  35
ATOM     27  C   UNL     1      -1.326  10.833  18.433  0.00  0.00    +0.000 A 
ATOM     28  N   UNL     1      -2.276  11.190  19.270  0.00  0.00    +0.000 NA
ATOM     29  C   UNL     1      -1.657  11.938  20.232  0.00  0.00    +0.000 A 
ATOM     30  C   UNL     1      -2.228  12.550  21.360  0.00  0.00    +0.000 A 
ATOM     31  C   UNL     1      -1.410  13.303  22.207  0.00  0.00    +0.000 A 
ATOM     32  C   UNL     1      -0.056  13.465  21.919  0.00  0.00    +0.000 A 
ATOM     33  C   UNL     1       0.531  12.865  20.792  0.00  0.00    +0.000 A 
ATOM     34  C   UNL     1      -0.288  12.068  19.981  0.00  0.00    +0.000 A 
ATOM     35  N   UNL     1      -0.081  11.265  18.883  0.00  0.00    +0.000 N 
BRANCH  27  36
ATOM     36  C   UNL     1      -1.542  10.038  17.179  0.00  0.00    +0.000 C 
BRANCH  36  38
ATOM     37  C   UNL     1      -3.025  10.047  15.151  0.00  0.00    +0.000 C 
ATOM     38  C   UNL     1      -2.977  10.161  16.669  0.00  0.00    +0.000 C 
ENDBRANCH  36  38
ENDBRANCH  27  36
ENDBRANCH  26  35
ENDBRANCH   1  26
TORSDOF 5
ENDMDL
MODEL 7
REMARK VINA RESULT:      -8.1      3.950      8.470
REMARK  Name = 
REMARK  7 active torsions:
REMARK  status: ('A' for Active; 'I' for Inactive)
REMARK    1  A    between atoms: C_1  and  C_2
REMARK    2  A    between atoms: C_2  and  C_3
REMARK    3  A    between atoms: C_3  and  C_4
REMARK    4  A    between atoms: N_12  and  C_13
REMARK    5  A    between atoms: C_13  and  C_14
REMARK    6  A    between atoms: C_30  and  C_31
REMARK    7  A    between atoms: C_30  and  C_32
REMARK                            x       y       z     vdW  Elec       q    Type
REMARK                         _______ _______ _______ _____ _____    ______ ____
ROOT
ATOM      1  C   UNL     1       1.659   9.483  18.576  0.00  0.00    +0.000 A 
ATOM      2  C   UNL     1       2.357   8.972  17.483  0.00  0.00    +0.000 A 
ATOM      3  C   UNL     1       2.676   7.617  17.422  0.00  0.00    +0.000 A 
ATOM      4  C   UNL     1       2.554   6.771  18.541  0.00  0.00    +0.000 A 
ATOM      5  C   UNL     1       1.999   7.332  19.703  0.00  0.00    +0.000 A 
ATOM      6  C   UNL     1       1.442   8.633  19.661  0.00  0.00    +0.000 A 
ATOM      7  C   UNL     1       1.949   6.616  21.043  0.00  0.00    +0.000 C 
ATOM      8  O   UNL     1       3.018   5.661  21.301  0.00  0.00    +0.000 OA
ATOM      9  C   UNL     1       2.598   4.430  20.839  0.00  0.00    +0.000 A 
ATOM     10  C   UNL     1       2.183   3.507  21.815  0.00  0.00    +0.000 A 
ATOM     11  C   UNL     1       1.177   2.623  21.478  0.00  0.00    +0.000 A 
ATOM     12  F   UNL     1       0.660   1.815  22.412  0.00  0.00    +0.000 F 
ATOM     13  C   UNL     1       0.613   2.696  20.212  0.00  0.00    +0.000 A 
ATOM     14  C   UNL     1       1.177   3.515  19.202  0.00  0.00    +0.000 A 
ATOM     15  C   UNL     1       2.286   4.330  19.466  0.00  0.00    +0.000 A 
ATOM     16  C   UNL     1       2.980   5.320  18.519  0.00  0.00    +0.000 C 
ATOM     17  C   UNL     1       4.101   4.955  17.814  0.00  0.00    +0.000 C 
ATOM     18  C   UNL     1       4.659   3.563  17.674  0.00  0.00    +0.000 C 
ENDROOT
BRANCH  17  19
ATOM     19  C   UNL     1       5.021   5.946  17.132  0.00  0.00    +0.000 A 
ATOM     20  N   UNL     1       4.979   6.391  15.919  0.00  0.00    +0.000 NA
ATOM     21  O   UNL     1       6.065   7.326  15.796  0.00  0.00    +0.000 OA
ATOM     22  C   UNL     1       6.638   7.391  17.033  0.00  0.00    +0.000 A 
ATOM     23  O   UNL     1       7.569   8.123  17.360  0.00  0.00    +0.000 OA
ATOM     24  N   UNL     1       5.981   6.541  17.855  0.00  0.00    +0.000 N 
ATOM     25  H   UNL     1       6.218   6.457  18.829  0.00  0.00    +0.000 HD
ENDBRANCH  17  19
BRANCH   1  26
ATOM     26  C   UNL     1       0.966  10.801  18.390  0.00  0.00    +0.000 C 
BRANCH  26  35
ATOM     27  C   UNL     1       1.668  12.985  19.310  0.00  0.00    +0.000 A 
ATOM     28  N   UNL     1       1.369  13.839  20.264  0.00  0.00    +0.000 NA
ATOM     29  C   UNL     1       0.469  13.196  21.067  0.00  0.00    +0.000 A 
ATOM     30  C   UNL     1      -0.165  13.677  22.223  0.00  0.00    +0.000 A 
ATOM     31  C   UNL     1      -1.037  12.834  22.917  0.00  0.00    +0.000 A 
ATOM     32  C   UNL     1      -1.249  11.527  22.482  0.00  0.00    +0.000 A 
ATOM     33  C   UNL     1      -0.619  11.027  21.330  0.00  0.00    +0.000 A 
ATOM     34  C   UNL     1       0.210  11.900  20.612  0.00  0.00    +0.000 A 
ATOM     35  N   UNL     1       0.906  11.824  19.428  0.00  0.00    +0.000 N 
BRANCH  27  36
ATOM     36  C   UNL     1       2.664  13.233  18.216  0.00  0.00    +0.000 C 
BRANCH  36  38
ATOM     37  C   UNL     1       3.608  15.453  17.516  0.00  0.00    +0.000 C 
ATOM     38  C   UNL     1       3.631  14.360  18.575  0.00  0.00    +0.000 C 
ENDBRANCH  36  38
ENDBRANCH  27  36
ENDBRANCH  26  35
ENDBRANCH   1  26
TORSDOF 5
ENDMDL
MODEL 8
REMARK VINA RESULT:      -7.9      4.214      8.892
REMARK  Name = 
REMARK  7 active torsions:
REMARK  status: ('A' for Active; 'I' for Inactive)
REMARK    1  A    between atoms: C_1  and  C_2
REMARK    2  A    between atoms: C_2  and  C_3
REMARK    3  A    between atoms: C_3  and  C_4
REMARK    4  A    between atoms: N_12  and  C_13
REMARK    5  A    between atoms: C_13  and  C_14
REMARK    6  A    between atoms: C_30  and  C_31
REMARK    7  A    between atoms: C_30  and  C_32
REMARK                            x       y       z     vdW  Elec       q    Type
REMARK                         _______ _______ _______ _____ _____    ______ ____
ROOT
ATOM      1  C   UNL     1       2.171   9.132  18.429  0.00  0.00    +0.000 A 
ATOM      2  C   UNL     1       3.233   9.006  17.534  0.00  0.00    +0.000 A 
ATOM      3  C   UNL     1       3.773   7.752  17.255  0.00  0.00    +0.000 A 
ATOM      4  C   UNL     1       3.469   6.619  18.034  0.00  0.00    +0.000 A 
ATOM      5  C   UNL     1       2.515   6.785  19.051  0.00  0.00    +0.000 A 
ATOM      6  C   UNL     1       1.789   7.998  19.144  0.00  0.00    +0.000 A 
ATOM      7  C   UNL     1       2.193   5.721  20.087  0.00  0.00    +0.000 C 
ATOM      8  O   UNL     1       3.281   4.820  20.440  0.00  0.00    +0.000 OA
ATOM      9  C   UNL     1       3.223   3.738  19.584  0.00  0.00    +0.000 A 
ATOM     10  C   UNL     1       2.697   2.549  20.118  0.00  0.00    +0.000 A 
ATOM     11  C   UNL     1       1.993   1.717  19.269  0.00  0.00    +0.000 A 
ATOM     12  F   UNL     1       1.365   0.642  19.760  0.00  0.00    +0.000 F 
ATOM     13  C   UNL     1       1.820   2.099  17.946  0.00  0.00    +0.000 A 
ATOM     14  C   UNL     1       2.513   3.210  17.404  0.00  0.00    +0.000 A 
ATOM     15  C   UNL     1       3.346   4.003  18.204  0.00  0.00    +0.000 A 
ATOM     16  C   UNL     1       4.115   5.272  17.802  0.00  0.00    +0.000 C 
ATOM     17  C   UNL     1       5.437   5.209  17.435  0.00  0.00    +0.000 C 
ATOM     18  C   UNL     1       6.232   3.960  17.153  0.00  0.00    +0.000 C 
ENDROOT
BRANCH  17  19
ATOM     19  C   UNL     1       6.341   6.421  17.351  0.00  0.00    +0.000 A 
ATOM     20  N   UNL     1       6.387   7.337  16.440  0.00  0.00    +0.000 NA
ATOM     21  O   UNL     1       7.403   8.266  16.856  0.00  0.00    +0.000 OA
ATOM     22  C   UNL     1       7.841   7.817  18.067  0.00  0.00    +0.000 A 
ATOM     23  O   UNL     1       8.674   8.367  18.784  0.00  0.00    +0.000 OA
ATOM     24  N   UNL     1       7.173   6.680  18.370  0.00  0.00    +0.000 N 
ATOM     25  H   UNL     1       7.316   6.197  19.241  0.00  0.00    +0.000 HD
ENDBRANCH  17  19
BRANCH   1  26
ATOM     26  C   UNL     1       1.357  10.390  18.351  0.00  0.00    +0.000 C 
BRANCH  26  35
ATOM     27  C   UNL     1       0.894  12.490  19.569  0.00  0.00    +0.000 A 
ATOM     28  N   UNL     1       0.284  12.939  20.644  0.00  0.00    +0.000 NA
ATOM     29  C   UNL     1      -0.067  11.829  21.360  0.00  0.00    +0.000 A 
ATOM     30  C   UNL     1      -0.748  11.763  22.585  0.00  0.00    +0.000 A 
ATOM     31  C   UNL     1      -0.981  10.511  23.163  0.00  0.00    +0.000 A 
ATOM     32  C   UNL     1      -0.518   9.352  22.544  0.00  0.00    +0.000 A 
ATOM     33  C   UNL     1       0.171   9.399  21.320  0.00  0.00    +0.000 A 
ATOM     34  C   UNL     1       0.349  10.655  20.724  0.00  0.00    +0.000 A 
ATOM     35  N   UNL     1       0.868  11.098  19.529  0.00  0.00    +0.000 N 
BRANCH  27  36
ATOM     36  C   UNL     1       1.507  13.354  18.506  0.00  0.00    +0.000 C 
BRANCH  36  38
ATOM     37  C   UNL     1       3.387  14.935  17.982  0.00  0.00    +0.000 C 
ATOM     38  C   UNL     1       2.920  13.799  18.880  0.00  0.00    +0.000 C 
ENDBRANCH  36  38
ENDBRANCH  27  36
ENDBRANCH  26  35
ENDBRANCH   1  26
TORSDOF 5
ENDMDL
MODEL 9
REMARK VINA RESULT:      -7.7      3.049      4.830
REMARK  Name = 
REMARK  7 active torsions:
REMARK  status: ('A' for Active; 'I' for Inactive)
REMARK    1  A    between atoms: C_1  and  C_2
REMARK    2  A    between atoms: C_2  and  C_3
REMARK    3  A    between atoms: C_3  and  C_4
REMARK    4  A    between atoms: N_12  and  C_13
REMARK    5  A    between atoms: C_13  and  C_14
REMARK    6  A    between atoms: C_30  and  C_31
REMARK    7  A    between atoms: C_30  and  C_32
REMARK                            x       y       z     vdW  Elec       q    Type
REMARK                         _______ _______ _______ _____ _____    ______ ____
ROOT
ATOM      1  C   UNL     1       1.203   9.521  18.089  0.00  0.00    +0.000 A 
ATOM      2  C   UNL     1       2.147  10.443  18.538  0.00  0.00    +0.000 A 
ATOM      3  C   UNL     1       1.777  11.456  19.421  0.00  0.00    +0.000 A 
ATOM      4  C   UNL     1       0.428  11.756  19.688  0.00  0.00    +0.000 A 
ATOM      5  C   UNL     1      -0.537  10.922  19.099  0.00  0.00    +0.000 A 
ATOM      6  C   UNL     1      -0.132   9.746  18.422  0.00  0.00    +0.000 A 
ATOM      7  C   UNL     1      -2.031  11.199  19.143  0.00  0.00    +0.000 C 
ATOM      8  O   UNL     1      -2.422  12.600  19.206  0.00  0.00    +0.000 OA
ATOM      9  C   UNL     1      -2.508  12.950  20.539  0.00  0.00    +0.000 A 
ATOM     10  C   UNL     1      -3.804  13.056  21.073  0.00  0.00    +0.000 A 
ATOM     11  C   UNL     1      -3.982  12.720  22.401  0.00  0.00    +0.000 A 
ATOM     12  F   UNL     1      -5.217  12.680  22.917  0.00  0.00    +0.000 F 
ATOM     13  C   UNL     1      -2.890  12.278  23.135  0.00  0.00    +0.000 A 
ATOM     14  C   UNL     1      -1.574  12.355  22.615  0.00  0.00    +0.000 A 
ATOM     15  C   UNL     1      -1.336  12.819  21.315  0.00  0.00    +0.000 A 
ATOM     16  C   UNL     1       0.006  12.908  20.572  0.00  0.00    +0.000 C 
ATOM     17  C   UNL     1       0.718  14.082  20.538  0.00  0.00    +0.000 C 
ATOM     18  C   UNL     1       0.448  15.319  21.356  0.00  0.00    +0.000 C 
ENDROOT
BRANCH  17  19
ATOM     19  C   UNL     1       1.855  14.345  19.573  0.00  0.00    +0.000 A 
ATOM     20  N   UNL     1       1.802  14.621  18.312  0.00  0.00    +0.000 NA
ATOM     21  O   UNL     1       3.162  14.801  17.882  0.00  0.00    +0.000 OA
ATOM     22  C   UNL     1       3.925  14.664  19.004  0.00  0.00    +0.000 A 
ATOM     23  O   UNL     1       5.144  14.802  19.070  0.00  0.00    +0.000 OA
ATOM     24  N   UNL     1       3.109  14.391  20.047  0.00  0.00    +0.000 N 
ATOM     25  H   UNL     1       3.461  14.287  20.984  0.00  0.00    +0.000 HD
ENDBRANCH  17  19
BRANCH   1  26
ATOM     26  C   UNL     1       1.723   8.230  17.526  0.00  0.00    +0.000 C 
BRANCH  26  35
ATOM     27  C   UNL     1       2.307   6.933  19.548  0.00  0.00    +0.000 A 
ATOM     28  N   UNL     1       3.168   6.037  19.978  0.00  0.00    +0.000 NA
ATOM     29  C   UNL     1       4.112   5.930  18.995  0.00  0.00    +0.000 A 
ATOM     30  C   UNL     1       5.245   5.102  18.962  0.00  0.00    +0.000 A 
ATOM     31  C   UNL     1       6.104   5.174  17.862  0.00  0.00    +0.000 A 
ATOM     32  C   UNL     1       5.852   6.076  16.829  0.00  0.00    +0.000 A 
ATOM     33  C   UNL     1       4.726   6.916  16.848  0.00  0.00    +0.000 A 
ATOM     34  C   UNL     1       3.843   6.795  17.930  0.00  0.00    +0.000 A 
ATOM     35  N   UNL     1       2.627   7.349  18.258  0.00  0.00    +0.000 N 
BRANCH  27  36
ATOM     36  C   UNL     1       1.117   7.420  20.321  0.00  0.00    +0.000 C 
BRANCH  36  38
ATOM     37  C   UNL     1       0.322   9.013  22.092  0.00  0.00    +0.000 C 
ATOM     38  C   UNL     1       1.528   8.296  21.503  0.00  0.00    +0.000 C 
ENDBRANCH  36  38
ENDBRANCH  27  36
ENDBRANCH  26  35
ENDBRANCH   1  26
TORSDOF 5
ENDMDL
