MODEL 1
REMARK VINA RESULT:      -7.3      0.000      0.000
REMARK  Name = 
REMARK  3 active torsions:
REMARK  status: ('A' for Active; 'I' for Inactive)
REMARK    1  A    between atoms: N_11  and  C_12
REMARK    2  A    between atoms: C_12  and  C_13
REMARK    3  A    between atoms: C_13  and  C_14
REMARK                            x       y       z     vdW  Elec       q    Type
REMARK                         _______ _______ _______ _____ _____    ______ ____
ROOT
ATOM      1  O   UNL     1       4.390   3.227  16.965  0.00  0.00    +0.000 OA
ATOM      2  C   UNL     1       5.295   3.999  16.722  0.00  0.00    +0.000 C 
ATOM      3  C   UNL     1       5.939   4.177  15.413  0.00  0.00    +0.000 A 
ATOM      4  N   UNL     1       5.637   3.592  14.237  0.00  0.00    +0.000 NA
ATOM      5  C   UNL     1       6.443   4.008  13.218  0.00  0.00    +0.000 A 
ATOM      6  C   UNL     1       7.471   4.946  13.383  0.00  0.00    +0.000 A 
ATOM      7  N   UNL     1       7.757   5.519  14.577  0.00  0.00    +0.000 NA
ATOM      8  C   UNL     1       6.948   5.087  15.566  0.00  0.00    +0.000 A 
ATOM      9  C   UNL     1       6.978   5.496  16.963  0.00  0.00    +0.000 C 
ATOM     10  O   UNL     1       7.802   6.264  17.423  0.00  0.00    +0.000 OA
ATOM     11  N   UNL     1       5.936   4.859  17.591  0.00  0.00    +0.000 N 
ENDROOT
BRANCH  11  12
ATOM     12  C   UNL     1       5.636   4.943  19.027  0.00  0.00    +0.000 C 
BRANCH  12  13
ATOM     13  C   UNL     1       4.252   5.538  19.313  0.00  0.00    +0.000 C 
BRANCH  13  14
ATOM     14  C   UNL     1       3.213   4.624  19.910  0.00  0.00    +0.000 A 
ATOM     15  C   UNL     1       1.914   5.119  20.052  0.00  0.00    +0.000 A 
ATOM     16  C   UNL     1       0.912   4.272  20.510  0.00  0.00    +0.000 A 
ATOM     17  C   UNL     1       1.235   2.961  20.830  0.00  0.00    +0.000 A 
ATOM     18  C   UNL     1       2.556   2.560  20.695  0.00  0.00    +0.000 A 
ATOM     19  N   UNL     1       3.550   3.358  20.240  0.00  0.00    +0.000 NA
ENDBRANCH  13  14
ENDBRANCH  12  13
ENDBRANCH  11  12
TORSDOF 3
ENDMDL
MODEL 2
REMARK VINA RESULT:      -7.3      2.172      6.131
REMARK  Name = 
REMARK  3 active torsions:
REMARK  status: ('A' for Active; 'I' for Inactive)
REMARK    1  A    between atoms: N_11  and  C_12
REMARK    2  A    between atoms: C_12  and  C_13
REMARK    3  A    between atoms: C_13  and  C_14
REMARK                            x       y       z     vdW  Elec       q    Type
REMARK                         _______ _______ _______ _____ _____    ______ ____
ROOT
ATOM      1  O   UNL     1       3.752   6.314  17.925  0.00  0.00    +0.000 OA
ATOM      2  C   UNL     1       3.559   5.133  18.128  0.00  0.00    +0.000 C 
ATOM      3  C   UNL     1       2.881   4.566  19.302  0.00  0.00    +0.000 A 
ATOM      4  N   UNL     1       2.299   5.211  20.334  0.00  0.00    +0.000 NA
ATOM      5  C   UNL     1       1.751   4.358  21.247  0.00  0.00    +0.000 A 
ATOM      6  C   UNL     1       1.789   2.962  21.118  0.00  0.00    +0.000 A 
ATOM      7  N   UNL     1       2.383   2.339  20.072  0.00  0.00    +0.000 NA
ATOM      8  C   UNL     1       2.919   3.204  19.188  0.00  0.00    +0.000 A 
ATOM      9  C   UNL     1       3.625   2.875  17.958  0.00  0.00    +0.000 C 
ATOM     10  O   UNL     1       3.865   1.736  17.603  0.00  0.00    +0.000 OA
ATOM     11  N   UNL     1       3.932   4.062  17.340  0.00  0.00    +0.000 N 
ENDROOT
BRANCH  11  12
ATOM     12  C   UNL     1       4.701   4.193  16.095  0.00  0.00    +0.000 C 
BRANCH  12  13
ATOM     13  C   UNL     1       6.207   3.999  16.300  0.00  0.00    +0.000 C 
BRANCH  13  14
ATOM     14  C   UNL     1       6.927   5.011  17.154  0.00  0.00    +0.000 A 
ATOM     15  C   UNL     1       7.015   6.321  16.678  0.00  0.00    +0.000 A 
ATOM     16  C   UNL     1       7.589   7.298  17.483  0.00  0.00    +0.000 A 
ATOM     17  C   UNL     1       8.075   6.940  18.732  0.00  0.00    +0.000 A 
ATOM     18  C   UNL     1       7.982   5.610  19.113  0.00  0.00    +0.000 A 
ATOM     19  N   UNL     1       7.417   4.639  18.357  0.00  0.00    +0.000 NA
ENDBRANCH  13  14
ENDBRANCH  12  13
ENDBRANCH  11  12
TORSDOF 3
ENDMDL
MODEL 3
REMARK VINA RESULT:      -7.2      2.034      6.178
REMARK  Name = 
REMARK  3 active torsions:
REMARK  status: ('A' for Active; 'I' for Inactive)
REMARK    1  A    between atoms: N_11  and  C_12
REMARK    2  A    between atoms: C_12  and  C_13
REMARK    3  A    between atoms: C_13  and  C_14
REMARK                            x       y       z     vdW  Elec       q    Type
REMARK                         _______ _______ _______ _____ _____    ______ ____
ROOT
ATOM      1  O   UNL     1       3.673   6.405  17.572  0.00  0.00    +0.000 OA
ATOM      2  C   UNL     1       3.481   5.233  17.820  0.00  0.00    +0.000 C 
ATOM      3  C   UNL     1       2.715   4.714  18.963  0.00  0.00    +0.000 A 
ATOM      4  N   UNL     1       2.039   5.400  19.906  0.00  0.00    +0.000 NA
ATOM      5  C   UNL     1       1.428   4.585  20.814  0.00  0.00    +0.000 A 
ATOM      6  C   UNL     1       1.497   3.186  20.763  0.00  0.00    +0.000 A 
ATOM      7  N   UNL     1       2.186   2.520  19.805  0.00  0.00    +0.000 NA
ATOM      8  C   UNL     1       2.782   3.349  18.924  0.00  0.00    +0.000 A 
ATOM      9  C   UNL     1       3.594   2.970  17.777  0.00  0.00    +0.000 C 
ATOM     10  O   UNL     1       3.880   1.819  17.504  0.00  0.00    +0.000 OA
ATOM     11  N   UNL     1       3.935   4.130  17.125  0.00  0.00    +0.000 N 
ENDROOT
BRANCH  11  12
ATOM     12  C   UNL     1       4.804   4.211  15.942  0.00  0.00    +0.000 C 
BRANCH  12  13
ATOM     13  C   UNL     1       6.294   4.141  16.291  0.00  0.00    +0.000 C 
BRANCH  13  14
ATOM     14  C   UNL     1       6.875   5.280  17.088  0.00  0.00    +0.000 A 
ATOM     15  C   UNL     1       7.378   4.997  18.360  0.00  0.00    +0.000 A 
ATOM     16  C   UNL     1       8.006   6.004  19.082  0.00  0.00    +0.000 A 
ATOM     17  C   UNL     1       8.099   7.271  18.525  0.00  0.00    +0.000 A 
ATOM     18  C   UNL     1       7.542   7.478  17.273  0.00  0.00    +0.000 A 
ATOM     19  N   UNL     1       6.936   6.514  16.541  0.00  0.00    +0.000 NA
ENDBRANCH  13  14
ENDBRANCH  12  13
ENDBRANCH  11  12
TORSDOF 3
ENDMDL
MODEL 4
REMARK VINA RESULT:      -7.2      1.976      5.942
REMARK  Name = 
REMARK  3 active torsions:
REMARK  status: ('A' for Active; 'I' for Inactive)
REMARK    1  A    between atoms: N_11  and  C_12
REMARK    2  A    between atoms: C_12  and  C_13
REMARK    3  A    between atoms: C_13  and  C_14
REMARK                            x       y       z     vdW  Elec       q    Type
REMARK                         _______ _______ _______ _____ _____    ______ ____
ROOT
ATOM      1  O   UNL     1       3.901   2.127  17.684  0.00  0.00    +0.000 OA
ATOM      2  C   UNL     1       3.726   3.303  17.928  0.00  0.00    +0.000 C 
ATOM      3  C   UNL     1       2.960   3.837  19.063  0.00  0.00    +0.000 A 
ATOM      4  N   UNL     1       2.363   3.165  20.068  0.00  0.00    +0.000 NA
ATOM      5  C   UNL     1       1.747   3.991  20.962  0.00  0.00    +0.000 A 
ATOM      6  C   UNL     1       1.743   5.389  20.844  0.00  0.00    +0.000 A 
ATOM      7  N   UNL     1       2.349   6.040  19.822  0.00  0.00    +0.000 NA
ATOM      8  C   UNL     1       2.945   5.200  18.952  0.00  0.00    +0.000 A 
ATOM      9  C   UNL     1       3.684   5.561  17.751  0.00  0.00    +0.000 C 
ATOM     10  O   UNL     1       3.805   6.705  17.354  0.00  0.00    +0.000 OA
ATOM     11  N   UNL     1       4.173   4.397  17.213  0.00  0.00    +0.000 N 
ENDROOT
BRANCH  11  12
ATOM     12  C   UNL     1       4.929   4.298  15.957  0.00  0.00    +0.000 C 
BRANCH  12  13
ATOM     13  C   UNL     1       6.447   4.332  16.170  0.00  0.00    +0.000 C 
BRANCH  13  14
ATOM     14  C   UNL     1       7.000   5.425  17.048  0.00  0.00    +0.000 A 
ATOM     15  C   UNL     1       7.436   5.075  18.329  0.00  0.00    +0.000 A 
ATOM     16  C   UNL     1       8.038   6.039  19.128  0.00  0.00    +0.000 A 
ATOM     17  C   UNL     1       8.174   7.329  18.637  0.00  0.00    +0.000 A 
ATOM     18  C   UNL     1       7.681   7.603  17.370  0.00  0.00    +0.000 A 
ATOM     19  N   UNL     1       7.102   6.682  16.564  0.00  0.00    +0.000 NA
ENDBRANCH  13  14
ENDBRANCH  12  13
ENDBRANCH  11  12
TORSDOF 3
ENDMDL
MODEL 5
REMARK VINA RESULT:      -7.2      0.398      2.044
REMARK  Name = 
REMARK  3 active torsions:
REMARK  status: ('A' for Active; 'I' for Inactive)
REMARK    1  A    between atoms: N_11  and  C_12
REMARK    2  A    between atoms: C_12  and  C_13
REMARK    3  A    between atoms: C_13  and  C_14
REMARK                            x       y       z     vdW  Elec       q    Type
REMARK                         _______ _______ _______ _____ _____    ______ ____
ROOT
ATOM      1  O   UNL     1       7.681   6.549  16.919  0.00  0.00    +0.000 OA
ATOM      2  C   UNL     1       6.986   5.635  16.526  0.00  0.00    +0.000 C 
ATOM      3  C   UNL     1       6.946   5.121  15.150  0.00  0.00    +0.000 A 
ATOM      4  N   UNL     1       7.685   5.496  14.087  0.00  0.00    +0.000 NA
ATOM      5  C   UNL     1       7.387   4.788  12.960  0.00  0.00    +0.000 A 
ATOM      6  C   UNL     1       6.416   3.777  12.919  0.00  0.00    +0.000 A 
ATOM      7  N   UNL     1       5.684   3.420  14.002  0.00  0.00    +0.000 NA
ATOM      8  C   UNL     1       5.997   4.138  15.100  0.00  0.00    +0.000 A 
ATOM      9  C   UNL     1       5.408   4.012  16.425  0.00  0.00    +0.000 C 
ATOM     10  O   UNL     1       4.495   3.251  16.688  0.00  0.00    +0.000 OA
ATOM     11  N   UNL     1       6.074   4.888  17.246  0.00  0.00    +0.000 N 
ENDROOT
BRANCH  11  12
ATOM     12  C   UNL     1       5.758   5.128  18.661  0.00  0.00    +0.000 C 
BRANCH  12  13
ATOM     13  C   UNL     1       4.337   5.662  18.873  0.00  0.00    +0.000 C 
BRANCH  13  14
ATOM     14  C   UNL     1       3.374   4.790  19.637  0.00  0.00    +0.000 A 
ATOM     15  C   UNL     1       2.122   5.324  19.954  0.00  0.00    +0.000 A 
ATOM     16  C   UNL     1       1.178   4.515  20.575  0.00  0.00    +0.000 A 
ATOM     17  C   UNL     1       1.512   3.204  20.878  0.00  0.00    +0.000 A 
ATOM     18  C   UNL     1       2.788   2.763  20.563  0.00  0.00    +0.000 A 
ATOM     19  N   UNL     1       3.724   3.523  19.947  0.00  0.00    +0.000 NA
ENDBRANCH  13  14
ENDBRANCH  12  13
ENDBRANCH  11  12
TORSDOF 3
ENDMDL
MODEL 6
REMARK VINA RESULT:      -7.1      2.134      5.828
REMARK  Name = 
REMARK  3 active torsions:
REMARK  status: ('A' for Active; 'I' for Inactive)
REMARK    1  A    between atoms: N_11  and  C_12
REMARK    2  A    between atoms: C_12  and  C_13
REMARK    3  A    between atoms: C_13  and  C_14
REMARK                            x       y       z     vdW  Elec       q    Type
REMARK                         _______ _______ _______ _____ _____    ______ ____
ROOT
ATOM      1  O   UNL     1       3.528   2.226  17.516  0.00  0.00    +0.000 OA
ATOM      2  C   UNL     1       3.473   3.405  17.802  0.00  0.00    +0.000 C 
ATOM      3  C   UNL     1       2.741   3.974  18.943  0.00  0.00    +0.000 A 
ATOM      4  N   UNL     1       2.054   3.333  19.909  0.00  0.00    +0.000 NA
ATOM      5  C   UNL     1       1.509   4.187  20.824  0.00  0.00    +0.000 A 
ATOM      6  C   UNL     1       1.654   5.580  20.759  0.00  0.00    +0.000 A 
ATOM      7  N   UNL     1       2.349   6.200  19.776  0.00  0.00    +0.000 NA
ATOM      8  C   UNL     1       2.873   5.334  18.885  0.00  0.00    +0.000 A 
ATOM      9  C   UNL     1       3.672   5.660  17.713  0.00  0.00    +0.000 C 
ATOM     10  O   UNL     1       3.922   6.798  17.362  0.00  0.00    +0.000 OA
ATOM     11  N   UNL     1       4.048   4.470  17.139  0.00  0.00    +0.000 N 
ENDROOT
BRANCH  11  12
ATOM     12  C   UNL     1       4.819   4.338  15.894  0.00  0.00    +0.000 C 
BRANCH  12  13
ATOM     13  C   UNL     1       6.316   4.118  16.140  0.00  0.00    +0.000 C 
BRANCH  13  14
ATOM     14  C   UNL     1       7.017   5.082  17.061  0.00  0.00    +0.000 A 
ATOM     15  C   UNL     1       7.119   6.416  16.655  0.00  0.00    +0.000 A 
ATOM     16  C   UNL     1       7.675   7.348  17.522  0.00  0.00    +0.000 A 
ATOM     17  C   UNL     1       8.130   6.925  18.762  0.00  0.00    +0.000 A 
ATOM     18  C   UNL     1       8.025   5.578  19.073  0.00  0.00    +0.000 A 
ATOM     19  N   UNL     1       7.476   4.649  18.255  0.00  0.00    +0.000 NA
ENDBRANCH  13  14
ENDBRANCH  12  13
ENDBRANCH  11  12
TORSDOF 3
ENDMDL
MODEL 7
REMARK VINA RESULT:      -7.1      2.334      3.277
REMARK  Name = 
REMARK  3 active torsions:
REMARK  status: ('A' for Active; 'I' for Inactive)
REMARK    1  A    between atoms: N_11  and  C_12
REMARK    2  A    between atoms: C_12  and  C_13
REMARK    3  A    between atoms: C_13  and  C_14
REMARK                            x       y       z     vdW  Elec       q    Type
REMARK                         _______ _______ _______ _____ _____    ______ ____
ROOT
ATOM      1  O   UNL     1       5.290   3.434  19.307  0.00  0.00    +0.000 OA
ATOM      2  C   UNL     1       5.464   4.298  18.471  0.00  0.00    +0.000 C 
ATOM      3  C   UNL     1       6.487   5.351  18.531  0.00  0.00    +0.000 A 
ATOM      4  N   UNL     1       7.450   5.541  19.455  0.00  0.00    +0.000 NA
ATOM      5  C   UNL     1       8.237   6.621  19.182  0.00  0.00    +0.000 A 
ATOM      6  C   UNL     1       8.060   7.440  18.058  0.00  0.00    +0.000 A 
ATOM      7  N   UNL     1       7.082   7.229  17.144  0.00  0.00    +0.000 NA
ATOM      8  C   UNL     1       6.318   6.158  17.440  0.00  0.00    +0.000 A 
ATOM      9  C   UNL     1       5.188   5.651  16.675  0.00  0.00    +0.000 C 
ATOM     10  O   UNL     1       4.757   6.188  15.672  0.00  0.00    +0.000 OA
ATOM     11  N   UNL     1       4.755   4.510  17.305  0.00  0.00    +0.000 N 
ENDROOT
BRANCH  11  12
ATOM     12  C   UNL     1       3.592   3.709  16.899  0.00  0.00    +0.000 C 
BRANCH  12  13
ATOM     13  C   UNL     1       2.275   4.227  17.487  0.00  0.00    +0.000 C 
BRANCH  13  14
ATOM     14  C   UNL     1       2.021   3.976  18.951  0.00  0.00    +0.000 A 
ATOM     15  C   UNL     1       1.599   2.699  19.330  0.00  0.00    +0.000 A 
ATOM     16  C   UNL     1       1.447   2.407  20.680  0.00  0.00    +0.000 A 
ATOM     17  C   UNL     1       1.704   3.400  21.614  0.00  0.00    +0.000 A 
ATOM     18  C   UNL     1       2.084   4.651  21.153  0.00  0.00    +0.000 A 
ATOM     19  N   UNL     1       2.252   4.961  19.846  0.00  0.00    +0.000 NA
ENDBRANCH  13  14
ENDBRANCH  12  13
ENDBRANCH  11  12
TORSDOF 3
ENDMDL
MODEL 8
REMARK VINA RESULT:      -7.1      2.366      3.423
REMARK  Name = 
REMARK  3 active torsions:
REMARK  status: ('A' for Active; 'I' for Inactive)
REMARK    1  A    between atoms: N_11  and  C_12
REMARK    2  A    between atoms: C_12  and  C_13
REMARK    3  A    between atoms: C_13  and  C_14
REMARK                            x       y       z     vdW  Elec       q    Type
REMARK                         _______ _______ _______ _____ _____    ______ ____
ROOT
ATOM      1  O   UNL     1       4.779   6.236  15.629  0.00  0.00    +0.000 OA
ATOM      2  C   UNL     1       5.183   5.768  16.673  0.00  0.00    +0.000 C 
ATOM      3  C   UNL     1       6.343   6.252  17.435  0.00  0.00    +0.000 A 
ATOM      4  N   UNL     1       7.136   7.312  17.181  0.00  0.00    +0.000 NA
ATOM      5  C   UNL     1       8.117   7.473  18.116  0.00  0.00    +0.000 A 
ATOM      6  C   UNL     1       8.275   6.624  19.221  0.00  0.00    +0.000 A 
ATOM      7  N   UNL     1       7.465   5.563  19.452  0.00  0.00    +0.000 NA
ATOM      8  C   UNL     1       6.508   5.426  18.512  0.00  0.00    +0.000 A 
ATOM      9  C   UNL     1       5.477   4.400  18.455  0.00  0.00    +0.000 C 
ATOM     10  O   UNL     1       5.391   3.485  19.253  0.00  0.00    +0.000 OA
ATOM     11  N   UNL     1       4.683   4.687  17.372  0.00  0.00    +0.000 N 
ENDROOT
BRANCH  11  12
ATOM     12  C   UNL     1       3.553   3.868  16.911  0.00  0.00    +0.000 C 
BRANCH  12  13
ATOM     13  C   UNL     1       2.218   4.291  17.533  0.00  0.00    +0.000 C 
BRANCH  13  14
ATOM     14  C   UNL     1       2.002   3.982  18.991  0.00  0.00    +0.000 A 
ATOM     15  C   UNL     1       1.574   2.696  19.329  0.00  0.00    +0.000 A 
ATOM     16  C   UNL     1       1.457   2.350  20.670  0.00  0.00    +0.000 A 
ATOM     17  C   UNL     1       1.752   3.299  21.637  0.00  0.00    +0.000 A 
ATOM     18  C   UNL     1       2.135   4.564  21.217  0.00  0.00    +0.000 A 
ATOM     19  N   UNL     1       2.270   4.926  19.920  0.00  0.00    +0.000 NA
ENDBRANCH  13  14
ENDBRANCH  12  13
ENDBRANCH  11  12
TORSDOF 3
ENDMDL
MODEL 9
REMARK VINA RESULT:      -7.0      0.647      1.101
REMARK  Name = 
REMARK  3 active torsions:
REMARK  status: ('A' for Active; 'I' for Inactive)
REMARK    1  A    between atoms: N_11  and  C_12
REMARK    2  A    between atoms: C_12  and  C_13
REMARK    3  A    between atoms: C_13  and  C_14
REMARK                            x       y       z     vdW  Elec       q    Type
REMARK                         _______ _______ _______ _____ _____    ______ ____
ROOT
ATOM      1  O   UNL     1       4.354   3.229  16.883  0.00  0.00    +0.000 OA
ATOM      2  C   UNL     1       5.274   3.991  16.666  0.00  0.00    +0.000 C 
ATOM      3  C   UNL     1       5.938   4.182  15.369  0.00  0.00    +0.000 A 
ATOM      4  N   UNL     1       5.643   3.622  14.179  0.00  0.00    +0.000 NA
ATOM      5  C   UNL     1       6.468   4.044  13.177  0.00  0.00    +0.000 A 
ATOM      6  C   UNL     1       7.509   4.963  13.373  0.00  0.00    +0.000 A 
ATOM      7  N   UNL     1       7.787   5.511  14.580  0.00  0.00    +0.000 NA
ATOM      8  C   UNL     1       6.959   5.074  15.551  0.00  0.00    +0.000 A 
ATOM      9  C   UNL     1       6.976   5.458  16.955  0.00  0.00    +0.000 C 
ATOM     10  O   UNL     1       7.806   6.205  17.440  0.00  0.00    +0.000 OA
ATOM     11  N   UNL     1       5.917   4.826  17.558  0.00  0.00    +0.000 N 
ENDROOT
BRANCH  11  12
ATOM     12  C   UNL     1       5.598   4.890  18.992  0.00  0.00    +0.000 C 
BRANCH  12  13
ATOM     13  C   UNL     1       4.244   5.550  19.273  0.00  0.00    +0.000 C 
BRANCH  13  14
ATOM     14  C   UNL     1       3.145   4.675  19.817  0.00  0.00    +0.000 A 
ATOM     15  C   UNL     1       3.480   3.379  20.217  0.00  0.00    +0.000 A 
ATOM     16  C   UNL     1       2.511   2.579  20.810  0.00  0.00    +0.000 A 
ATOM     17  C   UNL     1       1.230   3.085  20.973  0.00  0.00    +0.000 A 
ATOM     18  C   UNL     1       0.970   4.369  20.516  0.00  0.00    +0.000 A 
ATOM     19  N   UNL     1       1.897   5.175  19.947  0.00  0.00    +0.000 NA
ENDBRANCH  13  14
ENDBRANCH  12  13
ENDBRANCH  11  12
TORSDOF 3
ENDMDL
