MODEL 1
REMARK VINA RESULT:      -7.2      0.000      0.000
REMARK  Name = 
REMARK  5 active torsions:
REMARK  status: ('A' for Active; 'I' for Inactive)
REMARK    1  A    between atoms: C_1  and  O_2
REMARK    2  A    between atoms: O_2  and  C_3
REMARK    3  A    between atoms: C_6  and  C_7
REMARK    4  A    between atoms: C_9  and  C_10
REMARK    5  A    between atoms: N_17  and  C_18
REMARK                            x       y       z     vdW  Elec       q    Type
REMARK                         _______ _______ _______ _____ _____    ______ ____
ROOT
ATOM      1  C   UNL     1       8.324   8.858  18.259  0.00  0.00    +0.000 A 
ATOM      2  N   UNL     1       7.626   8.423  17.231  0.00  0.00    +0.000 NA
ATOM      3  C   UNL     1       7.490   7.062  17.460  0.00  0.00    +0.000 A 
ATOM      4  C   UNL     1       8.177   6.753  18.614  0.00  0.00    +0.000 A 
ATOM      5  O   UNL     1       8.636   7.891  19.168  0.00  0.00    +0.000 OA
ENDROOT
BRANCH   3   6
ATOM      6  C   UNL     1       6.794   6.158  16.546  0.00  0.00    +0.000 C 
ATOM      7  O   UNL     1       7.296   5.905  15.453  0.00  0.00    +0.000 OA
ATOM      8  N   UNL     1       5.561   5.613  16.944  0.00  0.00    +0.000 N 
ATOM      9  C   UNL     1       4.738   6.210  18.005  0.00  0.00    +0.000 C 
ATOM     10  C   UNL     1       4.175   5.070  18.821  0.00  0.00    +0.000 C 
ATOM     11  S   UNL     1       3.558   4.033  17.496  0.00  0.00    +0.000 S 
ATOM     12  C   UNL     1       4.902   4.491  16.404  0.00  0.00    +0.000 C 
ATOM     13  N   UNL     1       5.035   3.716  15.398  0.00  0.00    +0.000 NA
BRANCH  13  14
ATOM     14  C   UNL     1       5.943   3.837  14.436  0.00  0.00    +0.000 C 
ATOM     15  N   UNL     1       6.630   3.992  13.511  0.00  0.00    +0.000 NA
ENDBRANCH  13  14
ENDBRANCH   3   6
BRANCH   1  19
ATOM     16  C   UNL     1       9.870  12.714  19.132  0.00  0.00    +0.000 A 
ATOM     17  C   UNL     1      10.128  11.646  19.996  0.00  0.00    +0.000 A 
ATOM     18  C   UNL     1       9.640  10.370  19.707  0.00  0.00    +0.000 A 
ATOM     19  C   UNL     1       8.877  10.163  18.557  0.00  0.00    +0.000 A 
ATOM     20  C   UNL     1       8.603  11.247  17.710  0.00  0.00    +0.000 A 
ATOM     21  C   UNL     1       9.092  12.514  17.995  0.00  0.00    +0.000 A 
BRANCH  16  23
ATOM     22  C   UNL     1      10.471  14.878  18.445  0.00  0.00    +0.000 C 
ATOM     23  O   UNL     1      10.396  13.922  19.499  0.00  0.00    +0.000 OA
ENDBRANCH  16  23
ENDBRANCH   1  19
TORSDOF 4
ENDMDL
MODEL 2
REMARK VINA RESULT:      -7.2      0.311      1.051
REMARK  Name = 
REMARK  5 active torsions:
REMARK  status: ('A' for Active; 'I' for Inactive)
REMARK    1  A    between atoms: C_1  and  O_2
REMARK    2  A    between atoms: O_2  and  C_3
REMARK    3  A    between atoms: C_6  and  C_7
REMARK    4  A    between atoms: C_9  and  C_10
REMARK    5  A    between atoms: N_17  and  C_18
REMARK                            x       y       z     vdW  Elec       q    Type
REMARK                         _______ _______ _______ _____ _____    ______ ____
ROOT
ATOM      1  C   UNL     1       8.339   8.935  18.234  0.00  0.00    +0.000 A 
ATOM      2  N   UNL     1       7.639   8.462  17.225  0.00  0.00    +0.000 NA
ATOM      3  C   UNL     1       7.515   7.108  17.498  0.00  0.00    +0.000 A 
ATOM      4  C   UNL     1       8.211   6.841  18.657  0.00  0.00    +0.000 A 
ATOM      5  O   UNL     1       8.663   8.000  19.173  0.00  0.00    +0.000 OA
ENDROOT
BRANCH   3   6
ATOM      6  C   UNL     1       6.822   6.169  16.618  0.00  0.00    +0.000 C 
ATOM      7  O   UNL     1       7.272   5.956  15.493  0.00  0.00    +0.000 OA
ATOM      8  N   UNL     1       5.651   5.546  17.082  0.00  0.00    +0.000 N 
ATOM      9  C   UNL     1       4.859   6.083  18.197  0.00  0.00    +0.000 C 
ATOM     10  C   UNL     1       4.417   4.904  19.033  0.00  0.00    +0.000 C 
ATOM     11  S   UNL     1       3.785   3.841  17.735  0.00  0.00    +0.000 S 
ATOM     12  C   UNL     1       5.031   4.389  16.570  0.00  0.00    +0.000 C 
ATOM     13  N   UNL     1       5.151   3.632  15.549  0.00  0.00    +0.000 NA
BRANCH  13  14
ATOM     14  C   UNL     1       5.989   3.816  14.536  0.00  0.00    +0.000 C 
ATOM     15  N   UNL     1       6.608   4.019  13.574  0.00  0.00    +0.000 NA
ENDBRANCH  13  14
ENDBRANCH   3   6
BRANCH   1  19
ATOM     16  C   UNL     1      10.005  12.770  18.968  0.00  0.00    +0.000 A 
ATOM     17  C   UNL     1       9.104  12.590  17.914  0.00  0.00    +0.000 A 
ATOM     18  C   UNL     1       8.536  11.337  17.678  0.00  0.00    +0.000 A 
ATOM     19  C   UNL     1       8.882  10.253  18.487  0.00  0.00    +0.000 A 
ATOM     20  C   UNL     1       9.806  10.440  19.526  0.00  0.00    +0.000 A 
ATOM     21  C   UNL     1      10.367  11.687  19.763  0.00  0.00    +0.000 A 
BRANCH  16  23
ATOM     22  C   UNL     1       9.527  15.069  19.012  0.00  0.00    +0.000 C 
ATOM     23  O   UNL     1      10.502  14.035  19.121  0.00  0.00    +0.000 OA
ENDBRANCH  16  23
ENDBRANCH   1  19
TORSDOF 4
ENDMDL
MODEL 3
REMARK VINA RESULT:      -7.0      5.981      7.794
REMARK  Name = 
REMARK  5 active torsions:
REMARK  status: ('A' for Active; 'I' for Inactive)
REMARK    1  A    between atoms: C_1  and  O_2
REMARK    2  A    between atoms: O_2  and  C_3
REMARK    3  A    between atoms: C_6  and  C_7
REMARK    4  A    between atoms: C_9  and  C_10
REMARK    5  A    between atoms: N_17  and  C_18
REMARK                            x       y       z     vdW  Elec       q    Type
REMARK                         _______ _______ _______ _____ _____    ______ ____
ROOT
ATOM      1  C   UNL     1       1.245   8.826  19.993  0.00  0.00    +0.000 A 
ATOM      2  N   UNL     1       2.010   7.776  20.204  0.00  0.00    +0.000 NA
ATOM      3  C   UNL     1       2.492   7.445  18.946  0.00  0.00    +0.000 A 
ATOM      4  C   UNL     1       1.928   8.310  18.032  0.00  0.00    +0.000 A 
ATOM      5  O   UNL     1       1.207   9.235  18.693  0.00  0.00    +0.000 OA
ENDROOT
BRANCH   3   6
ATOM      6  C   UNL     1       3.375   6.308  18.696  0.00  0.00    +0.000 C 
ATOM      7  O   UNL     1       4.366   6.462  17.984  0.00  0.00    +0.000 OA
ATOM      8  N   UNL     1       3.055   5.065  19.269  0.00  0.00    +0.000 N 
ATOM      9  C   UNL     1       1.702   4.735  19.736  0.00  0.00    +0.000 C 
ATOM     10  C   UNL     1       1.855   3.974  21.033  0.00  0.00    +0.000 C 
ATOM     11  S   UNL     1       3.094   2.780  20.530  0.00  0.00    +0.000 S 
ATOM     12  C   UNL     1       3.906   3.957  19.451  0.00  0.00    +0.000 C 
ATOM     13  N   UNL     1       5.080   3.605  19.094  0.00  0.00    +0.000 NA
BRANCH  13  14
ATOM     14  C   UNL     1       5.889   4.288  18.293  0.00  0.00    +0.000 C 
ATOM     15  N   UNL     1       6.650   4.758  17.551  0.00  0.00    +0.000 NA
ENDBRANCH  13  14
ENDBRANCH   3   6
BRANCH   1  19
ATOM     16  C   UNL     1      -1.213  11.040  22.654  0.00  0.00    +0.000 A 
ATOM     17  C   UNL     1      -1.079  11.449  21.323  0.00  0.00    +0.000 A 
ATOM     18  C   UNL     1      -0.289  10.715  20.437  0.00  0.00    +0.000 A 
ATOM     19  C   UNL     1       0.386   9.578  20.884  0.00  0.00    +0.000 A 
ATOM     20  C   UNL     1       0.264   9.192  22.227  0.00  0.00    +0.000 A 
ATOM     21  C   UNL     1      -0.525   9.919  23.108  0.00  0.00    +0.000 A 
BRANCH  16  23
ATOM     22  C   UNL     1      -2.968  12.599  22.725  0.00  0.00    +0.000 C 
ATOM     23  O   UNL     1      -2.013  11.822  23.442  0.00  0.00    +0.000 OA
ENDBRANCH  16  23
ENDBRANCH   1  19
TORSDOF 4
ENDMDL
MODEL 4
REMARK VINA RESULT:      -7.0      5.634      7.496
REMARK  Name = 
REMARK  5 active torsions:
REMARK  status: ('A' for Active; 'I' for Inactive)
REMARK    1  A    between atoms: C_1  and  O_2
REMARK    2  A    between atoms: O_2  and  C_3
REMARK    3  A    between atoms: C_6  and  C_7
REMARK    4  A    between atoms: C_9  and  C_10
REMARK    5  A    between atoms: N_17  and  C_18
REMARK                            x       y       z     vdW  Elec       q    Type
REMARK                         _______ _______ _______ _____ _____    ______ ____
ROOT
ATOM      1  C   UNL     1       1.478   8.773  19.608  0.00  0.00    +0.000 A 
ATOM      2  N   UNL     1       2.235   7.696  19.645  0.00  0.00    +0.000 NA
ATOM      3  C   UNL     1       2.694   7.555  18.344  0.00  0.00    +0.000 A 
ATOM      4  C   UNL     1       2.126   8.552  17.580  0.00  0.00    +0.000 A 
ATOM      5  O   UNL     1       1.424   9.373  18.384  0.00  0.00    +0.000 OA
ENDROOT
BRANCH   3   6
ATOM      6  C   UNL     1       3.562   6.462  17.910  0.00  0.00    +0.000 C 
ATOM      7  O   UNL     1       4.717   6.710  17.571  0.00  0.00    +0.000 OA
ATOM      8  N   UNL     1       3.041   5.157  17.882  0.00  0.00    +0.000 N 
ATOM      9  C   UNL     1       1.598   4.883  17.848  0.00  0.00    +0.000 C 
ATOM     10  C   UNL     1       1.350   3.705  18.763  0.00  0.00    +0.000 C 
ATOM     11  S   UNL     1       2.627   2.595  18.169  0.00  0.00    +0.000 S 
ATOM     12  C   UNL     1       3.758   3.945  17.838  0.00  0.00    +0.000 C 
ATOM     13  N   UNL     1       4.969   3.574  17.674  0.00  0.00    +0.000 NA
BRANCH  13  14
ATOM     14  C   UNL     1       5.998   4.370  17.408  0.00  0.00    +0.000 C 
ATOM     15  N   UNL     1       6.968   4.996  17.280  0.00  0.00    +0.000 NA
ENDBRANCH  13  14
ENDBRANCH   3   6
BRANCH   1  19
ATOM     16  C   UNL     1      -0.915  10.585  22.610  0.00  0.00    +0.000 A 
ATOM     17  C   UNL     1      -0.857  11.145  21.330  0.00  0.00    +0.000 A 
ATOM     18  C   UNL     1      -0.088  10.545  20.331  0.00  0.00    +0.000 A 
ATOM     19  C   UNL     1       0.640   9.388  20.615  0.00  0.00    +0.000 A 
ATOM     20  C   UNL     1       0.595   8.849  21.910  0.00  0.00    +0.000 A 
ATOM     21  C   UNL     1      -0.173   9.444  22.901  0.00  0.00    +0.000 A 
BRANCH  16  23
ATOM     22  C   UNL     1      -2.613  12.173  22.941  0.00  0.00    +0.000 C 
ATOM     23  O   UNL     1      -1.699  11.243  23.517  0.00  0.00    +0.000 OA
ENDBRANCH  16  23
ENDBRANCH   1  19
TORSDOF 4
ENDMDL
MODEL 5
REMARK VINA RESULT:      -7.0      5.640      7.444
REMARK  Name = 
REMARK  5 active torsions:
REMARK  status: ('A' for Active; 'I' for Inactive)
REMARK    1  A    between atoms: C_1  and  O_2
REMARK    2  A    between atoms: O_2  and  C_3
REMARK    3  A    between atoms: C_6  and  C_7
REMARK    4  A    between atoms: C_9  and  C_10
REMARK    5  A    between atoms: N_17  and  C_18
REMARK                            x       y       z     vdW  Elec       q    Type
REMARK                         _______ _______ _______ _____ _____    ______ ____
ROOT
ATOM      1  C   UNL     1       1.498   8.777  19.598  0.00  0.00    +0.000 A 
ATOM      2  N   UNL     1       2.263   7.707  19.640  0.00  0.00    +0.000 NA
ATOM      3  C   UNL     1       2.693   7.541  18.332  0.00  0.00    +0.000 A 
ATOM      4  C   UNL     1       2.101   8.517  17.561  0.00  0.00    +0.000 A 
ATOM      5  O   UNL     1       1.412   9.351  18.363  0.00  0.00    +0.000 OA
ENDROOT
BRANCH   3   6
ATOM      6  C   UNL     1       3.558   6.444  17.902  0.00  0.00    +0.000 C 
ATOM      7  O   UNL     1       4.713   6.689  17.559  0.00  0.00    +0.000 OA
ATOM      8  N   UNL     1       3.035   5.139  17.882  0.00  0.00    +0.000 N 
ATOM      9  C   UNL     1       1.592   4.867  17.853  0.00  0.00    +0.000 C 
ATOM     10  C   UNL     1       1.345   3.694  18.774  0.00  0.00    +0.000 C 
ATOM     11  S   UNL     1       2.619   2.580  18.183  0.00  0.00    +0.000 S 
ATOM     12  C   UNL     1       3.751   3.926  17.843  0.00  0.00    +0.000 C 
ATOM     13  N   UNL     1       4.961   3.553  17.677  0.00  0.00    +0.000 NA
BRANCH  13  14
ATOM     14  C   UNL     1       5.990   4.346  17.405  0.00  0.00    +0.000 C 
ATOM     15  N   UNL     1       6.955   4.923  17.111  0.00  0.00    +0.000 NA
ENDBRANCH  13  14
ENDBRANCH   3   6
BRANCH   1  19
ATOM     16  C   UNL     1      -0.965  10.627  22.519  0.00  0.00    +0.000 A 
ATOM     17  C   UNL     1      -0.334   9.412  22.805  0.00  0.00    +0.000 A 
ATOM     18  C   UNL     1       0.493   8.807  21.857  0.00  0.00    +0.000 A 
ATOM     19  C   UNL     1       0.679   9.408  20.611  0.00  0.00    +0.000 A 
ATOM     20  C   UNL     1       0.021  10.614  20.327  0.00  0.00    +0.000 A 
ATOM     21  C   UNL     1      -0.797  11.218  21.270  0.00  0.00    +0.000 A 
BRANCH  16  23
ATOM     22  C   UNL     1      -2.662  12.148  23.083  0.00  0.00    +0.000 C 
ATOM     23  O   UNL     1      -1.750  11.142  23.514  0.00  0.00    +0.000 OA
ENDBRANCH  16  23
ENDBRANCH   1  19
TORSDOF 4
ENDMDL
MODEL 6
REMARK VINA RESULT:      -6.9      6.002      7.759
REMARK  Name = 
REMARK  5 active torsions:
REMARK  status: ('A' for Active; 'I' for Inactive)
REMARK    1  A    between atoms: C_1  and  O_2
REMARK    2  A    between atoms: O_2  and  C_3
REMARK    3  A    between atoms: C_6  and  C_7
REMARK    4  A    between atoms: C_9  and  C_10
REMARK    5  A    between atoms: N_17  and  C_18
REMARK                            x       y       z     vdW  Elec       q    Type
REMARK                         _______ _______ _______ _____ _____    ______ ____
ROOT
ATOM      1  C   UNL     1       1.258   8.870  19.983  0.00  0.00    +0.000 A 
ATOM      2  N   UNL     1       2.036   7.829  20.197  0.00  0.00    +0.000 NA
ATOM      3  C   UNL     1       2.475   7.463  18.934  0.00  0.00    +0.000 A 
ATOM      4  C   UNL     1       1.875   8.297  18.015  0.00  0.00    +0.000 A 
ATOM      5  O   UNL     1       1.172   9.240  18.673  0.00  0.00    +0.000 OA
ENDROOT
BRANCH   3   6
ATOM      6  C   UNL     1       3.355   6.323  18.687  0.00  0.00    +0.000 C 
ATOM      7  O   UNL     1       4.342   6.470  17.969  0.00  0.00    +0.000 OA
ATOM      8  N   UNL     1       3.035   5.084  19.269  0.00  0.00    +0.000 N 
ATOM      9  C   UNL     1       1.683   4.760  19.745  0.00  0.00    +0.000 C 
ATOM     10  C   UNL     1       1.841   4.007  21.046  0.00  0.00    +0.000 C 
ATOM     11  S   UNL     1       3.075   2.807  20.545  0.00  0.00    +0.000 S 
ATOM     12  C   UNL     1       3.885   3.975  19.454  0.00  0.00    +0.000 C 
ATOM     13  N   UNL     1       5.056   3.618  19.094  0.00  0.00    +0.000 NA
BRANCH  13  14
ATOM     14  C   UNL     1       5.863   4.295  18.285  0.00  0.00    +0.000 C 
ATOM     15  N   UNL     1       6.677   4.834  17.655  0.00  0.00    +0.000 NA
ENDBRANCH  13  14
ENDBRANCH   3   6
BRANCH   1  19
ATOM     16  C   UNL     1      -1.240  11.132  22.564  0.00  0.00    +0.000 A 
ATOM     17  C   UNL     1      -0.633   9.962  23.028  0.00  0.00    +0.000 A 
ATOM     18  C   UNL     1       0.205   9.222  22.193  0.00  0.00    +0.000 A 
ATOM     19  C   UNL     1       0.427   9.644  20.880  0.00  0.00    +0.000 A 
ATOM     20  C   UNL     1      -0.207  10.806  20.417  0.00  0.00    +0.000 A 
ATOM     21  C   UNL     1      -1.037  11.544  21.249  0.00  0.00    +0.000 A 
BRANCH  16  23
ATOM     22  C   UNL     1      -3.183  12.413  22.882  0.00  0.00    +0.000 C 
ATOM     23  O   UNL     1      -2.039  11.789  23.459  0.00  0.00    +0.000 OA
ENDBRANCH  16  23
ENDBRANCH   1  19
TORSDOF 4
ENDMDL
MODEL 7
REMARK VINA RESULT:      -6.8      5.805      7.524
REMARK  Name = 
REMARK  5 active torsions:
REMARK  status: ('A' for Active; 'I' for Inactive)
REMARK    1  A    between atoms: C_1  and  O_2
REMARK    2  A    between atoms: O_2  and  C_3
REMARK    3  A    between atoms: C_6  and  C_7
REMARK    4  A    between atoms: C_9  and  C_10
REMARK    5  A    between atoms: N_17  and  C_18
REMARK                            x       y       z     vdW  Elec       q    Type
REMARK                         _______ _______ _______ _____ _____    ______ ____
ROOT
ATOM      1  C   UNL     1       1.512   8.597  20.039  0.00  0.00    +0.000 A 
ATOM      2  N   UNL     1       1.910   7.357  20.232  0.00  0.00    +0.000 NA
ATOM      3  C   UNL     1       2.406   6.961  18.999  0.00  0.00    +0.000 A 
ATOM      4  C   UNL     1       2.221   7.999  18.111  0.00  0.00    +0.000 A 
ATOM      5  O   UNL     1       1.735   9.064  18.777  0.00  0.00    +0.000 OA
ENDROOT
BRANCH   3   6
ATOM      6  C   UNL     1       2.941   5.626  18.738  0.00  0.00    +0.000 C 
ATOM      7  O   UNL     1       2.461   4.661  19.329  0.00  0.00    +0.000 OA
ATOM      8  N   UNL     1       4.001   5.490  17.825  0.00  0.00    +0.000 N 
ATOM      9  C   UNL     1       4.869   6.613  17.449  0.00  0.00    +0.000 C 
ATOM     10  C   UNL     1       5.122   6.498  15.963  0.00  0.00    +0.000 C 
ATOM     11  S   UNL     1       5.576   4.767  15.873  0.00  0.00    +0.000 S 
ATOM     12  C   UNL     1       4.430   4.316  17.175  0.00  0.00    +0.000 C 
ATOM     13  N   UNL     1       4.191   3.063  17.240  0.00  0.00    +0.000 NA
BRANCH  13  14
ATOM     14  C   UNL     1       3.390   2.468  18.116  0.00  0.00    +0.000 C 
ATOM     15  N   UNL     1       2.724   1.823  18.817  0.00  0.00    +0.000 NA
ENDBRANCH  13  14
ENDBRANCH   3   6
BRANCH   1  19
ATOM     16  C   UNL     1      -0.568  11.339  22.525  0.00  0.00    +0.000 A 
ATOM     17  C   UNL     1      -0.499   9.988  22.880  0.00  0.00    +0.000 A 
ATOM     18  C   UNL     1       0.200   9.083  22.079  0.00  0.00    +0.000 A 
ATOM     19  C   UNL     1       0.819   9.525  20.908  0.00  0.00    +0.000 A 
ATOM     20  C   UNL     1       0.721  10.878  20.549  0.00  0.00    +0.000 A 
ATOM     21  C   UNL     1       0.030  11.778  21.348  0.00  0.00    +0.000 A 
BRANCH  16  23
ATOM     22  C   UNL     1      -2.684  11.965  23.331  0.00  0.00    +0.000 C 
ATOM     23  O   UNL     1      -1.271  12.146  23.377  0.00  0.00    +0.000 OA
ENDBRANCH  16  23
ENDBRANCH   1  19
TORSDOF 4
ENDMDL
MODEL 8
REMARK VINA RESULT:      -6.8      6.070      9.105
REMARK  Name = 
REMARK  5 active torsions:
REMARK  status: ('A' for Active; 'I' for Inactive)
REMARK    1  A    between atoms: C_1  and  O_2
REMARK    2  A    between atoms: O_2  and  C_3
REMARK    3  A    between atoms: C_6  and  C_7
REMARK    4  A    between atoms: C_9  and  C_10
REMARK    5  A    between atoms: N_17  and  C_18
REMARK                            x       y       z     vdW  Elec       q    Type
REMARK                         _______ _______ _______ _____ _____    ______ ____
ROOT
ATOM      1  C   UNL     1       2.776   7.578  17.984  0.00  0.00    +0.000 A 
ATOM      2  N   UNL     1       2.078   7.589  19.100  0.00  0.00    +0.000 NA
ATOM      3  C   UNL     1       1.529   8.862  19.149  0.00  0.00    +0.000 A 
ATOM      4  C   UNL     1       1.987   9.567  18.057  0.00  0.00    +0.000 A 
ATOM      5  O   UNL     1       2.707   8.740  17.273  0.00  0.00    +0.000 OA
ENDROOT
BRANCH   3   6
ATOM      6  C   UNL     1       0.685   9.333  20.245  0.00  0.00    +0.000 C 
ATOM      7  O   UNL     1       0.849   8.869  21.372  0.00  0.00    +0.000 OA
ATOM      8  N   UNL     1      -0.300  10.299  19.973  0.00  0.00    +0.000 N 
ATOM      9  C   UNL     1      -0.813  10.544  18.618  0.00  0.00    +0.000 C 
ATOM     10  C   UNL     1      -0.971  12.039  18.470  0.00  0.00    +0.000 C 
ATOM     11  S   UNL     1      -1.854  12.395  19.989  0.00  0.00    +0.000 S 
ATOM     12  C   UNL     1      -0.970  11.128  20.895  0.00  0.00    +0.000 C 
ATOM     13  N   UNL     1      -1.072  11.233  22.163  0.00  0.00    +0.000 NA
BRANCH  13  14
ATOM     14  C   UNL     1      -0.524  10.421  23.059  0.00  0.00    +0.000 C 
ATOM     15  N   UNL     1       0.005   9.829  23.907  0.00  0.00    +0.000 NA
ENDBRANCH  13  14
ENDBRANCH   3   6
BRANCH   1  19
ATOM     16  C   UNL     1       5.294   4.610  16.291  0.00  0.00    +0.000 A 
ATOM     17  C   UNL     1       5.454   5.951  15.929  0.00  0.00    +0.000 A 
ATOM     18  C   UNL     1       4.643   6.936  16.495  0.00  0.00    +0.000 A 
ATOM     19  C   UNL     1       3.657   6.579  17.417  0.00  0.00    +0.000 A 
ATOM     20  C   UNL     1       3.489   5.228  17.754  0.00  0.00    +0.000 A 
ATOM     21  C   UNL     1       4.298   4.250  17.194  0.00  0.00    +0.000 A 
BRANCH  16  23
ATOM     22  C   UNL     1       6.895   4.267  14.607  0.00  0.00    +0.000 C 
ATOM     23  O   UNL     1       6.140   3.721  15.686  0.00  0.00    +0.000 OA
ENDBRANCH  16  23
ENDBRANCH   1  19
TORSDOF 4
ENDMDL
MODEL 9
REMARK VINA RESULT:      -6.8      5.947      8.591
REMARK  Name = 
REMARK  5 active torsions:
REMARK  status: ('A' for Active; 'I' for Inactive)
REMARK    1  A    between atoms: C_1  and  O_2
REMARK    2  A    between atoms: O_2  and  C_3
REMARK    3  A    between atoms: C_6  and  C_7
REMARK    4  A    between atoms: C_9  and  C_10
REMARK    5  A    between atoms: N_17  and  C_18
REMARK                            x       y       z     vdW  Elec       q    Type
REMARK                         _______ _______ _______ _____ _____    ______ ____
ROOT
ATOM      1  C   UNL     1       3.495   5.973  18.428  0.00  0.00    +0.000 A 
ATOM      2  N   UNL     1       3.057   7.175  18.742  0.00  0.00    +0.000 NA
ATOM      3  C   UNL     1       2.210   6.960  19.819  0.00  0.00    +0.000 A 
ATOM      4  C   UNL     1       2.153   5.604  20.054  0.00  0.00    +0.000 A 
ATOM      5  O   UNL     1       3.024   4.981  19.237  0.00  0.00    +0.000 OA
ENDROOT
BRANCH   3   6
ATOM      6  C   UNL     1       1.470   8.030  20.486  0.00  0.00    +0.000 C 
ATOM      7  O   UNL     1       1.065   7.855  21.634  0.00  0.00    +0.000 OA
ATOM      8  N   UNL     1       1.233   9.225  19.786  0.00  0.00    +0.000 N 
ATOM      9  C   UNL     1       1.301   9.310  18.321  0.00  0.00    +0.000 C 
ATOM     10  C   UNL     1       1.977  10.620  17.986  0.00  0.00    +0.000 C 
ATOM     11  S   UNL     1       1.033  11.719  19.041  0.00  0.00    +0.000 S 
ATOM     12  C   UNL     1       0.864  10.476  20.320  0.00  0.00    +0.000 C 
ATOM     13  N   UNL     1       0.496  10.945  21.449  0.00  0.00    +0.000 NA
BRANCH  13  14
ATOM     14  C   UNL     1       0.289  10.240  22.555  0.00  0.00    +0.000 C 
ATOM     15  N   UNL     1       0.098   9.750  23.592  0.00  0.00    +0.000 NA
ENDBRANCH  13  14
ENDBRANCH   3   6
BRANCH   1  19
ATOM     16  C   UNL     1       5.883   4.578  15.208  0.00  0.00    +0.000 A 
ATOM     17  C   UNL     1       5.611   5.944  15.335  0.00  0.00    +0.000 A 
ATOM     18  C   UNL     1       4.844   6.413  16.402  0.00  0.00    +0.000 A 
ATOM     19  C   UNL     1       4.330   5.514  17.338  0.00  0.00    +0.000 A 
ATOM     20  C   UNL     1       4.588   4.144  17.186  0.00  0.00    +0.000 A 
ATOM     21  C   UNL     1       5.354   3.677  16.128  0.00  0.00    +0.000 A 
BRANCH  16  23
ATOM     22  C   UNL     1       5.916   3.650  13.051  0.00  0.00    +0.000 C 
ATOM     23  O   UNL     1       6.649   4.218  14.133  0.00  0.00    +0.000 OA
ENDBRANCH  16  23
ENDBRANCH   1  19
TORSDOF 4
ENDMDL
