MODEL 1
REMARK VINA RESULT:      -7.3      0.000      0.000
REMARK  Name = 
REMARK  5 active torsions:
REMARK  status: ('A' for Active; 'I' for Inactive)
REMARK    1  A    between atoms: C_1  and  C_2
REMARK    2  A    between atoms: C_5  and  C_6
REMARK    3  A    between atoms: C_6  and  N_7
REMARK    4  A    between atoms: N_7  and  C_8
REMARK    5  A    between atoms: C_10  and  C_11
REMARK                            x       y       z     vdW  Elec       q    Type
REMARK                         _______ _______ _______ _____ _____    ______ ____
ROOT
ATOM      1  N   UNL     1       3.007   3.515  19.066  0.00  0.00    +0.000 NA
ATOM      2  H   UNL     1       3.688   3.422  19.815  0.00  0.00    +0.000 HD
ENDROOT
BRANCH   1   3
ATOM      3  C   UNL     1       2.136   4.692  19.240  0.00  0.00    +0.000 C 
ATOM      4  C   UNL     1       1.506   4.909  20.587  0.00  0.00    +0.000 C 
ATOM      5  C   UNL     1       2.535   5.894  20.074  0.00  0.00    +0.000 C 
BRANCH   5   6
ATOM      6  C   UNL     1       2.121   7.286  19.612  0.00  0.00    +0.000 A 
ATOM      7  C   UNL     1       2.479   7.775  18.350  0.00  0.00    +0.000 A 
ATOM      8  C   UNL     1       2.078   9.043  17.904  0.00  0.00    +0.000 A 
ATOM      9  C   UNL     1       1.297   9.854  18.725  0.00  0.00    +0.000 A 
ATOM     10  C   UNL     1       0.924   9.400  19.981  0.00  0.00    +0.000 A 
ATOM     11  C   UNL     1       1.329   8.131  20.418  0.00  0.00    +0.000 A 
ENDBRANCH   5   6
ENDBRANCH   1   3
BRANCH   1  12
ATOM     12  C   UNL     1       3.691   3.506  17.769  0.00  0.00    +0.000 C 
BRANCH  12  17
ATOM     13  C   UNL     1       7.635   7.812  17.382  0.00  0.00    +0.000 C 
ATOM     14  C   UNL     1       6.634   6.697  17.484  0.00  0.00    +0.000 A 
ATOM     15  C   UNL     1       5.564   6.638  16.579  0.00  0.00    +0.000 A 
ATOM     16  C   UNL     1       4.609   5.612  16.653  0.00  0.00    +0.000 A 
ATOM     17  C   UNL     1       4.702   4.624  17.647  0.00  0.00    +0.000 A 
ATOM     18  C   UNL     1       5.779   4.679  18.536  0.00  0.00    +0.000 A 
ATOM     19  C   UNL     1       6.729   5.704  18.468  0.00  0.00    +0.000 A 
ATOM     20 CL   UNL     1       7.997   5.706  19.638  0.00  0.00    +0.000 Cl
ENDBRANCH  12  17
ENDBRANCH   1  12
TORSDOF 4
ENDMDL
MODEL 2
REMARK VINA RESULT:      -7.1      1.450      1.835
REMARK  Name = 
REMARK  5 active torsions:
REMARK  status: ('A' for Active; 'I' for Inactive)
REMARK    1  A    between atoms: C_1  and  C_2
REMARK    2  A    between atoms: C_5  and  C_6
REMARK    3  A    between atoms: C_6  and  N_7
REMARK    4  A    between atoms: N_7  and  C_8
REMARK    5  A    between atoms: C_10  and  C_11
REMARK                            x       y       z     vdW  Elec       q    Type
REMARK                         _______ _______ _______ _____ _____    ______ ____
ROOT
ATOM      1  N   UNL     1       2.832   2.723  19.559  0.00  0.00    +0.000 NA
ATOM      2  H   UNL     1       3.375   2.671  20.417  0.00  0.00    +0.000 HD
ENDROOT
BRANCH   1   3
ATOM      3  C   UNL     1       2.030   3.957  19.474  0.00  0.00    +0.000 C 
ATOM      4  C   UNL     1       1.054   4.241  20.579  0.00  0.00    +0.000 C 
ATOM      5  C   UNL     1       2.253   5.146  20.389  0.00  0.00    +0.000 C 
BRANCH   5   6
ATOM      6  C   UNL     1       2.087   6.553  19.828  0.00  0.00    +0.000 A 
ATOM      7  C   UNL     1       2.508   6.879  18.532  0.00  0.00    +0.000 A 
ATOM      8  C   UNL     1       2.333   8.163  17.996  0.00  0.00    +0.000 A 
ATOM      9  C   UNL     1       1.722   9.158  18.757  0.00  0.00    +0.000 A 
ATOM     10  C   UNL     1       1.294   8.869  20.044  0.00  0.00    +0.000 A 
ATOM     11  C   UNL     1       1.472   7.582  20.572  0.00  0.00    +0.000 A 
ENDBRANCH   5   6
ENDBRANCH   1   3
BRANCH   1  12
ATOM     12  C   UNL     1       3.713   2.539  18.401  0.00  0.00    +0.000 C 
BRANCH  12  17
ATOM     13  C   UNL     1       7.168   7.159  17.419  0.00  0.00    +0.000 C 
ATOM     14  C   UNL     1       6.271   5.981  17.663  0.00  0.00    +0.000 A 
ATOM     15  C   UNL     1       6.297   5.333  18.907  0.00  0.00    +0.000 A 
ATOM     16  C   UNL     1       5.474   4.224  19.164  0.00  0.00    +0.000 A 
ATOM     17  C   UNL     1       4.610   3.735  18.170  0.00  0.00    +0.000 A 
ATOM     18  C   UNL     1       4.576   4.395  16.938  0.00  0.00    +0.000 A 
ATOM     19  C   UNL     1       5.400   5.495  16.678  0.00  0.00    +0.000 A 
ATOM     20 CL   UNL     1       5.315   6.214  15.111  0.00  0.00    +0.000 Cl
ENDBRANCH  12  17
ENDBRANCH   1  12
TORSDOF 4
ENDMDL
MODEL 3
REMARK VINA RESULT:      -6.9      1.555      2.326
REMARK  Name = 
REMARK  5 active torsions:
REMARK  status: ('A' for Active; 'I' for Inactive)
REMARK    1  A    between atoms: C_1  and  C_2
REMARK    2  A    between atoms: C_5  and  C_6
REMARK    3  A    between atoms: C_6  and  N_7
REMARK    4  A    between atoms: N_7  and  C_8
REMARK    5  A    between atoms: C_10  and  C_11
REMARK                            x       y       z     vdW  Elec       q    Type
REMARK                         _______ _______ _______ _____ _____    ______ ____
ROOT
ATOM      1  N   UNL     1       2.553   2.242  19.217  0.00  0.00    +0.000 NA
ATOM      2  H   UNL     1       3.066   2.065  20.076  0.00  0.00    +0.000 HD
ENDROOT
BRANCH   1   3
ATOM      3  C   UNL     1       1.813   3.516  19.254  0.00  0.00    +0.000 C 
ATOM      4  C   UNL     1       0.870   3.750  20.399  0.00  0.00    +0.000 C 
ATOM      5  C   UNL     1       2.109   4.610  20.262  0.00  0.00    +0.000 C 
BRANCH   5   6
ATOM      6  C   UNL     1       2.005   6.066  19.828  0.00  0.00    +0.000 A 
ATOM      7  C   UNL     1       1.529   7.057  20.696  0.00  0.00    +0.000 A 
ATOM      8  C   UNL     1       1.456   8.404  20.315  0.00  0.00    +0.000 A 
ATOM      9  C   UNL     1       1.867   8.791  19.040  0.00  0.00    +0.000 A 
ATOM     10  C   UNL     1       2.344   7.835  18.156  0.00  0.00    +0.000 A 
ATOM     11  C   UNL     1       2.414   6.489  18.546  0.00  0.00    +0.000 A 
ENDBRANCH   5   6
ENDBRANCH   1   3
BRANCH   1  12
ATOM     12  C   UNL     1       3.461   2.149  18.068  0.00  0.00    +0.000 C 
BRANCH  12  17
ATOM     13  C   UNL     1       6.967   6.806  17.555  0.00  0.00    +0.000 C 
ATOM     14  C   UNL     1       6.057   5.618  17.678  0.00  0.00    +0.000 A 
ATOM     15  C   UNL     1       5.990   4.917  18.892  0.00  0.00    +0.000 A 
ATOM     16  C   UNL     1       5.153   3.799  19.036  0.00  0.00    +0.000 A 
ATOM     17  C   UNL     1       4.370   3.353  17.959  0.00  0.00    +0.000 A 
ATOM     18  C   UNL     1       4.429   4.065  16.758  0.00  0.00    +0.000 A 
ATOM     19  C   UNL     1       5.266   5.176  16.610  0.00  0.00    +0.000 A 
ATOM     20 CL   UNL     1       5.300   5.961  15.073  0.00  0.00    +0.000 Cl
ENDBRANCH  12  17
ENDBRANCH   1  12
TORSDOF 4
ENDMDL
MODEL 4
REMARK VINA RESULT:      -6.8      2.981      4.720
REMARK  Name = 
REMARK  5 active torsions:
REMARK  status: ('A' for Active; 'I' for Inactive)
REMARK    1  A    between atoms: C_1  and  C_2
REMARK    2  A    between atoms: C_5  and  C_6
REMARK    3  A    between atoms: C_6  and  N_7
REMARK    4  A    between atoms: N_7  and  C_8
REMARK    5  A    between atoms: C_10  and  C_11
REMARK                            x       y       z     vdW  Elec       q    Type
REMARK                         _______ _______ _______ _____ _____    ______ ____
ROOT
ATOM      1  N   UNL     1       4.804   7.006  17.330  0.00  0.00    +0.000 NA
ATOM      2  H   UNL     1       4.417   7.133  16.399  0.00  0.00    +0.000 HD
ENDROOT
BRANCH   1   3
ATOM      3  C   UNL     1       3.802   6.519  18.296  0.00  0.00    +0.000 C 
ATOM      4  C   UNL     1       2.520   7.289  18.428  0.00  0.00    +0.000 C 
ATOM      5  C   UNL     1       2.494   5.881  17.871  0.00  0.00    +0.000 C 
BRANCH   5   6
ATOM      6  C   UNL     1       1.932   4.727  18.693  0.00  0.00    +0.000 A 
ATOM      7  C   UNL     1       1.806   4.813  20.085  0.00  0.00    +0.000 A 
ATOM      8  C   UNL     1       1.263   3.768  20.847  0.00  0.00    +0.000 A 
ATOM      9  C   UNL     1       0.828   2.602  20.219  0.00  0.00    +0.000 A 
ATOM     10  C   UNL     1       0.938   2.485  18.842  0.00  0.00    +0.000 A 
ATOM     11  C   UNL     1       1.482   3.535  18.088  0.00  0.00    +0.000 A 
ENDBRANCH   5   6
ENDBRANCH   1   3
BRANCH   1  12
ATOM     12  C   UNL     1       5.989   6.143  17.262  0.00  0.00    +0.000 C 
BRANCH  12  17
ATOM     13  C   UNL     1       6.287   3.179  12.225  0.00  0.00    +0.000 C 
ATOM     14  C   UNL     1       6.226   3.940  13.518  0.00  0.00    +0.000 A 
ATOM     15  C   UNL     1       5.269   3.594  14.484  0.00  0.00    +0.000 A 
ATOM     16  C   UNL     1       5.183   4.291  15.700  0.00  0.00    +0.000 A 
ATOM     17  C   UNL     1       6.052   5.360  15.969  0.00  0.00    +0.000 A 
ATOM     18  C   UNL     1       7.014   5.690  15.010  0.00  0.00    +0.000 A 
ATOM     19  C   UNL     1       7.098   5.001  13.796  0.00  0.00    +0.000 A 
ATOM     20 CL   UNL     1       8.292   5.513  12.660  0.00  0.00    +0.000 Cl
ENDBRANCH  12  17
ENDBRANCH   1  12
TORSDOF 4
ENDMDL
MODEL 5
REMARK VINA RESULT:      -6.8      0.861      1.425
REMARK  Name = 
REMARK  5 active torsions:
REMARK  status: ('A' for Active; 'I' for Inactive)
REMARK    1  A    between atoms: C_1  and  C_2
REMARK    2  A    between atoms: C_5  and  C_6
REMARK    3  A    between atoms: C_6  and  N_7
REMARK    4  A    between atoms: N_7  and  C_8
REMARK    5  A    between atoms: C_10  and  C_11
REMARK                            x       y       z     vdW  Elec       q    Type
REMARK                         _______ _______ _______ _____ _____    ______ ____
ROOT
ATOM      1  N   UNL     1       3.764   3.149  17.908  0.00  0.00    +0.000 NA
ATOM      2  H   UNL     1       4.400   2.934  18.672  0.00  0.00    +0.000 HD
ENDROOT
BRANCH   1   3
ATOM      3  C   UNL     1       2.760   4.163  18.279  0.00  0.00    +0.000 C 
ATOM      4  C   UNL     1       2.030   3.988  19.579  0.00  0.00    +0.000 C 
ATOM      5  C   UNL     1       2.974   5.158  19.403  0.00  0.00    +0.000 C 
BRANCH   5   6
ATOM      6  C   UNL     1       2.439   6.576  19.247  0.00  0.00    +0.000 A 
ATOM      7  C   UNL     1       1.815   7.244  20.309  0.00  0.00    +0.000 A 
ATOM      8  C   UNL     1       1.345   8.559  20.185  0.00  0.00    +0.000 A 
ATOM      9  C   UNL     1       1.497   9.242  18.979  0.00  0.00    +0.000 A 
ATOM     10  C   UNL     1       2.111   8.610  17.908  0.00  0.00    +0.000 A 
ATOM     11  C   UNL     1       2.578   7.295  18.041  0.00  0.00    +0.000 A 
ENDBRANCH   5   6
ENDBRANCH   1   3
BRANCH   1  12
ATOM     12  C   UNL     1       4.529   3.521  16.713  0.00  0.00    +0.000 C 
BRANCH  12  17
ATOM     13  C   UNL     1       7.931   8.178  17.708  0.00  0.00    +0.000 C 
ATOM     14  C   UNL     1       7.070   6.974  17.457  0.00  0.00    +0.000 A 
ATOM     15  C   UNL     1       6.165   6.978  16.385  0.00  0.00    +0.000 A 
ATOM     16  C   UNL     1       5.342   5.870  16.127  0.00  0.00    +0.000 A 
ATOM     17  C   UNL     1       5.403   4.733  16.949  0.00  0.00    +0.000 A 
ATOM     18  C   UNL     1       6.318   4.728  18.006  0.00  0.00    +0.000 A 
ATOM     19  C   UNL     1       7.135   5.833  18.268  0.00  0.00    +0.000 A 
ATOM     20 CL   UNL     1       8.201   5.745  19.622  0.00  0.00    +0.000 Cl
ENDBRANCH  12  17
ENDBRANCH   1  12
TORSDOF 4
ENDMDL
MODEL 6
REMARK VINA RESULT:      -6.7      3.558      7.010
REMARK  Name = 
REMARK  5 active torsions:
REMARK  status: ('A' for Active; 'I' for Inactive)
REMARK    1  A    between atoms: C_1  and  C_2
REMARK    2  A    between atoms: C_5  and  C_6
REMARK    3  A    between atoms: C_6  and  N_7
REMARK    4  A    between atoms: N_7  and  C_8
REMARK    5  A    between atoms: C_10  and  C_11
REMARK                            x       y       z     vdW  Elec       q    Type
REMARK                         _______ _______ _______ _____ _____    ______ ____
ROOT
ATOM      1  N   UNL     1       2.589   8.907  18.043  0.00  0.00    +0.000 NA
ATOM      2  H   UNL     1       3.031   9.176  18.918  0.00  0.00    +0.000 HD
ENDROOT
BRANCH   1   3
ATOM      3  C   UNL     1       2.547   7.444  17.860  0.00  0.00    +0.000 C 
ATOM      4  C   UNL     1       3.847   6.724  17.646  0.00  0.00    +0.000 C 
ATOM      5  C   UNL     1       3.051   6.471  18.909  0.00  0.00    +0.000 C 
BRANCH   5   6
ATOM      6  C   UNL     1       2.310   5.155  19.113  0.00  0.00    +0.000 A 
ATOM      7  C   UNL     1       1.695   4.843  20.332  0.00  0.00    +0.000 A 
ATOM      8  C   UNL     1       0.986   3.648  20.521  0.00  0.00    +0.000 A 
ATOM      9  C   UNL     1       0.875   2.732  19.477  0.00  0.00    +0.000 A 
ATOM     10  C   UNL     1       1.471   3.010  18.256  0.00  0.00    +0.000 A 
ATOM     11  C   UNL     1       2.178   4.208  18.076  0.00  0.00    +0.000 A 
ENDBRANCH   5   6
ENDBRANCH   1   3
BRANCH   1  12
ATOM     12  C   UNL     1       1.264   9.527  17.944  0.00  0.00    +0.000 C 
BRANCH  12  17
ATOM     13  C   UNL     1      -1.093  10.709  23.169  0.00  0.00    +0.000 C 
ATOM     14  C   UNL     1      -0.502  10.408  21.821  0.00  0.00    +0.000 A 
ATOM     15  C   UNL     1       0.425   9.363  21.686  0.00  0.00    +0.000 A 
ATOM     16  C   UNL     1       1.000   9.062  20.441  0.00  0.00    +0.000 A 
ATOM     17  C   UNL     1       0.663   9.812  19.303  0.00  0.00    +0.000 A 
ATOM     18  C   UNL     1      -0.273  10.841  19.440  0.00  0.00    +0.000 A 
ATOM     19  C   UNL     1      -0.842  11.147  20.680  0.00  0.00    +0.000 A 
ATOM     20 CL   UNL     1      -1.955  12.464  20.754  0.00  0.00    +0.000 Cl
ENDBRANCH  12  17
ENDBRANCH   1  12
TORSDOF 4
ENDMDL
MODEL 7
REMARK VINA RESULT:      -6.7      2.951      4.598
REMARK  Name = 
REMARK  5 active torsions:
REMARK  status: ('A' for Active; 'I' for Inactive)
REMARK    1  A    between atoms: C_1  and  C_2
REMARK    2  A    between atoms: C_5  and  C_6
REMARK    3  A    between atoms: C_6  and  N_7
REMARK    4  A    between atoms: N_7  and  C_8
REMARK    5  A    between atoms: C_10  and  C_11
REMARK                            x       y       z     vdW  Elec       q    Type
REMARK                         _______ _______ _______ _____ _____    ______ ____
ROOT
ATOM      1  N   UNL     1       4.961   6.969  17.424  0.00  0.00    +0.000 NA
ATOM      2  H   UNL     1       4.605   7.144  16.488  0.00  0.00    +0.000 HD
ENDROOT
BRANCH   1   3
ATOM      3  C   UNL     1       3.895   6.590  18.369  0.00  0.00    +0.000 C 
ATOM      4  C   UNL     1       2.554   7.247  18.218  0.00  0.00    +0.000 C 
ATOM      5  C   UNL     1       2.692   5.761  17.963  0.00  0.00    +0.000 C 
BRANCH   5   6
ATOM      6  C   UNL     1       2.127   4.744  18.947  0.00  0.00    +0.000 A 
ATOM      7  C   UNL     1       1.355   3.658  18.515  0.00  0.00    +0.000 A 
ATOM      8  C   UNL     1       0.855   2.701  19.409  0.00  0.00    +0.000 A 
ATOM      9  C   UNL     1       1.126   2.814  20.772  0.00  0.00    +0.000 A 
ATOM     10  C   UNL     1       1.887   3.876  21.233  0.00  0.00    +0.000 A 
ATOM     11  C   UNL     1       2.383   4.829  20.331  0.00  0.00    +0.000 A 
ENDBRANCH   5   6
ENDBRANCH   1   3
BRANCH   1  12
ATOM     12  C   UNL     1       6.044   5.980  17.367  0.00  0.00    +0.000 C 
BRANCH  12  17
ATOM     13  C   UNL     1       6.274   3.254  12.193  0.00  0.00    +0.000 C 
ATOM     14  C   UNL     1       6.230   3.954  13.521  0.00  0.00    +0.000 A 
ATOM     15  C   UNL     1       5.276   3.573  14.477  0.00  0.00    +0.000 A 
ATOM     16  C   UNL     1       5.206   4.213  15.724  0.00  0.00    +0.000 A 
ATOM     17  C   UNL     1       6.089   5.258  16.038  0.00  0.00    +0.000 A 
ATOM     18  C   UNL     1       7.049   5.623  15.088  0.00  0.00    +0.000 A 
ATOM     19  C   UNL     1       7.116   4.991  13.842  0.00  0.00    +0.000 A 
ATOM     20 CL   UNL     1       8.308   5.543  12.723  0.00  0.00    +0.000 Cl
ENDBRANCH  12  17
ENDBRANCH   1  12
TORSDOF 4
ENDMDL
MODEL 8
REMARK VINA RESULT:      -6.7      1.344      2.182
REMARK  Name = 
REMARK  5 active torsions:
REMARK  status: ('A' for Active; 'I' for Inactive)
REMARK    1  A    between atoms: C_1  and  C_2
REMARK    2  A    between atoms: C_5  and  C_6
REMARK    3  A    between atoms: C_6  and  N_7
REMARK    4  A    between atoms: N_7  and  C_8
REMARK    5  A    between atoms: C_10  and  C_11
REMARK                            x       y       z     vdW  Elec       q    Type
REMARK                         _______ _______ _______ _____ _____    ______ ____
ROOT
ATOM      1  N   UNL     1       3.066   2.527  20.536  0.00  0.00    +0.000 NA
ATOM      2  H   UNL     1       3.022   2.510  21.551  0.00  0.00    +0.000 HD
ENDROOT
BRANCH   1   3
ATOM      3  C   UNL     1       2.302   3.648  19.958  0.00  0.00    +0.000 C 
ATOM      4  C   UNL     1       0.898   3.868  20.445  0.00  0.00    +0.000 C 
ATOM      5  C   UNL     1       1.964   4.902  20.740  0.00  0.00    +0.000 C 
BRANCH   5   6
ATOM      6  C   UNL     1       1.968   6.246  20.021  0.00  0.00    +0.000 A 
ATOM      7  C   UNL     1       1.486   7.408  20.638  0.00  0.00    +0.000 A 
ATOM      8  C   UNL     1       1.513   8.654  19.997  0.00  0.00    +0.000 A 
ATOM      9  C   UNL     1       2.032   8.762  18.708  0.00  0.00    +0.000 A 
ATOM     10  C   UNL     1       2.517   7.632  18.068  0.00  0.00    +0.000 A 
ATOM     11  C   UNL     1       2.487   6.390  18.718  0.00  0.00    +0.000 A 
ENDBRANCH   5   6
ENDBRANCH   1   3
BRANCH   1  12
ATOM     12  C   UNL     1       4.466   2.513  20.098  0.00  0.00    +0.000 C 
BRANCH  12  17
ATOM     13  C   UNL     1       5.371   5.859  15.383  0.00  0.00    +0.000 C 
ATOM     14  C   UNL     1       5.154   5.001  16.596  0.00  0.00    +0.000 A 
ATOM     15  C   UNL     1       4.232   3.944  16.544  0.00  0.00    +0.000 A 
ATOM     16  C   UNL     1       4.003   3.128  17.663  0.00  0.00    +0.000 A 
ATOM     17  C   UNL     1       4.688   3.362  18.866  0.00  0.00    +0.000 A 
ATOM     18  C   UNL     1       5.617   4.406  18.907  0.00  0.00    +0.000 A 
ATOM     19  C   UNL     1       5.843   5.224  17.795  0.00  0.00    +0.000 A 
ATOM     20 CL   UNL     1       6.978   6.513  17.961  0.00  0.00    +0.000 Cl
ENDBRANCH  12  17
ENDBRANCH   1  12
TORSDOF 4
ENDMDL
MODEL 9
REMARK VINA RESULT:      -6.6      3.351      6.884
REMARK  Name = 
REMARK  5 active torsions:
REMARK  status: ('A' for Active; 'I' for Inactive)
REMARK    1  A    between atoms: C_1  and  C_2
REMARK    2  A    between atoms: C_5  and  C_6
REMARK    3  A    between atoms: C_6  and  N_7
REMARK    4  A    between atoms: N_7  and  C_8
REMARK    5  A    between atoms: C_10  and  C_11
REMARK                            x       y       z     vdW  Elec       q    Type
REMARK                         _______ _______ _______ _____ _____    ______ ____
ROOT
ATOM      1  N   UNL     1       4.947   6.623  17.715  0.00  0.00    +0.000 NA
ATOM      2  H   UNL     1       5.272   6.161  18.560  0.00  0.00    +0.000 HD
ENDROOT
BRANCH   1   3
ATOM      3  C   UNL     1       5.864   6.425  16.578  0.00  0.00    +0.000 C 
ATOM      4  C   UNL     1       7.305   6.127  16.878  0.00  0.00    +0.000 C 
ATOM      5  C   UNL     1       6.445   5.071  16.216  0.00  0.00    +0.000 C 
BRANCH   5   6
ATOM      6  C   UNL     1       6.637   4.716  14.747  0.00  0.00    +0.000 A 
ATOM      7  C   UNL     1       5.862   3.729  14.125  0.00  0.00    +0.000 A 
ATOM      8  C   UNL     1       6.011   3.416  12.767  0.00  0.00    +0.000 A 
ATOM      9  C   UNL     1       6.950   4.097  11.994  0.00  0.00    +0.000 A 
ATOM     10  C   UNL     1       7.734   5.080  12.579  0.00  0.00    +0.000 A 
ATOM     11  C   UNL     1       7.578   5.387  13.938  0.00  0.00    +0.000 A 
ENDBRANCH   5   6
ENDBRANCH   1   3
BRANCH   1  12
ATOM     12  C   UNL     1       3.574   6.202  17.415  0.00  0.00    +0.000 C 
BRANCH  12  17
ATOM     13  C   UNL     1       1.300   2.709  21.522  0.00  0.00    +0.000 C 
ATOM     14  C   UNL     1       1.885   3.593  20.459  0.00  0.00    +0.000 A 
ATOM     15  C   UNL     1       2.751   4.636  20.821  0.00  0.00    +0.000 A 
ATOM     16  C   UNL     1       3.309   5.483  19.851  0.00  0.00    +0.000 A 
ATOM     17  C   UNL     1       3.002   5.307  18.492  0.00  0.00    +0.000 A 
ATOM     18  C   UNL     1       2.152   4.257  18.136  0.00  0.00    +0.000 A 
ATOM     19  C   UNL     1       1.590   3.415  19.101  0.00  0.00    +0.000 A 
ATOM     20 CL   UNL     1       0.519   2.174  18.563  0.00  0.00    +0.000 Cl
ENDBRANCH  12  17
ENDBRANCH   1  12
TORSDOF 4
ENDMDL
