MODEL 1
REMARK VINA RESULT:      -7.8      0.000      0.000
REMARK  Name = 
REMARK  9 active torsions:
REMARK  status: ('A' for Active; 'I' for Inactive)
REMARK    1  A    between atoms: C_1  and  O_2
REMARK    2  A    between atoms: O_2  and  C_3
REMARK    3  A    between atoms: C_9  and  C_10
REMARK    4  A    between atoms: C_12  and  O_13
REMARK    5  A    between atoms: O_13  and  C_14
REMARK    6  A    between atoms: C_15  and  O_16
REMARK    7  A    between atoms: O_16  and  C_17
REMARK    8  A    between atoms: C_19  and  O_20
REMARK    9  A    between atoms: O_20  and  C_21
REMARK                            x       y       z     vdW  Elec       q    Type
REMARK                         _______ _______ _______ _____ _____    ______ ____
ROOT
ATOM      1  C   UNL     1       0.420   9.832  21.439  0.00  0.00    +0.000 A 
ATOM      2  C   UNL     1       0.652  10.520  20.244  0.00  0.00    +0.000 A 
ATOM      3  C   UNL     1       1.298   9.882  19.185  0.00  0.00    +0.000 A 
ATOM      4  C   UNL     1       1.725   8.561  19.331  0.00  0.00    +0.000 A 
ATOM      5  C   UNL     1       2.428   7.884  18.236  0.00  0.00    +0.000 A 
ATOM      6  O   UNL     1       2.517   8.397  17.125  0.00  0.00    +0.000 OA
ATOM      7  C   UNL     1       3.042   6.575  18.564  0.00  0.00    +0.000 A 
ATOM      8  C   UNL     1       2.764   6.039  19.761  0.00  0.00    +0.000 A 
ATOM      9  O   UNL     1       1.952   6.590  20.726  0.00  0.00    +0.000 OA
ATOM     10  C   UNL     1       1.522   7.881  20.529  0.00  0.00    +0.000 A 
ATOM     11  C   UNL     1       0.871   8.516  21.583  0.00  0.00    +0.000 A 
ENDROOT
BRANCH   7  12
ATOM     12  C   UNL     1       4.051   5.979  17.680  0.00  0.00    +0.000 A 
ATOM     13  C   UNL     1       5.228   6.736  17.537  0.00  0.00    +0.000 A 
ATOM     14  C   UNL     1       6.310   6.276  16.784  0.00  0.00    +0.000 A 
ATOM     15  C   UNL     1       6.209   5.042  16.121  0.00  0.00    +0.000 A 
ATOM     16  C   UNL     1       5.032   4.293  16.249  0.00  0.00    +0.000 A 
ATOM     17  C   UNL     1       3.952   4.747  17.023  0.00  0.00    +0.000 A 
BRANCH  14  18
ATOM     18  O   UNL     1       7.484   6.976  16.642  0.00  0.00    +0.000 OA
ATOM     19  C   UNL     1       7.708   8.029  17.573  0.00  0.00    +0.000 C 
ENDBRANCH  14  18
BRANCH  15  20
ATOM     20  O   UNL     1       7.306   4.647  15.397  0.00  0.00    +0.000 OA
ATOM     21  C   UNL     1       7.228   4.754  13.983  0.00  0.00    +0.000 C 
ENDBRANCH  15  20
BRANCH  17  22
ATOM     22  O   UNL     1       2.927   3.843  17.120  0.00  0.00    +0.000 OA
ATOM     23  C   UNL     1       3.229   2.609  17.760  0.00  0.00    +0.000 C 
ENDBRANCH  17  22
ENDBRANCH   7  12
BRANCH   1  25
ATOM     24  C   UNL     1      -0.916  11.574  22.315  0.00  0.00    +0.000 C 
ATOM     25  O   UNL     1      -0.199  10.365  22.538  0.00  0.00    +0.000 OA
ENDBRANCH   1  25
TORSDOF 5
ENDMDL
MODEL 2
REMARK VINA RESULT:      -7.0      1.813      4.097
REMARK  Name = 
REMARK  9 active torsions:
REMARK  status: ('A' for Active; 'I' for Inactive)
REMARK    1  A    between atoms: C_1  and  O_2
REMARK    2  A    between atoms: O_2  and  C_3
REMARK    3  A    between atoms: C_9  and  C_10
REMARK    4  A    between atoms: C_12  and  O_13
REMARK    5  A    between atoms: O_13  and  C_14
REMARK    6  A    between atoms: C_15  and  O_16
REMARK    7  A    between atoms: O_16  and  C_17
REMARK    8  A    between atoms: C_19  and  O_20
REMARK    9  A    between atoms: O_20  and  C_21
REMARK                            x       y       z     vdW  Elec       q    Type
REMARK                         _______ _______ _______ _____ _____    ______ ____
ROOT
ATOM      1  C   UNL     1      -0.278  11.567  19.651  0.00  0.00    +0.000 A 
ATOM      2  C   UNL     1      -0.425  10.719  20.752  0.00  0.00    +0.000 A 
ATOM      3  C   UNL     1       0.272   9.512  20.804  0.00  0.00    +0.000 A 
ATOM      4  C   UNL     1       1.104   9.150  19.743  0.00  0.00    +0.000 A 
ATOM      5  C   UNL     1       1.826   7.873  19.770  0.00  0.00    +0.000 A 
ATOM      6  O   UNL     1       1.843   7.174  20.778  0.00  0.00    +0.000 OA
ATOM      7  C   UNL     1       2.496   7.474  18.508  0.00  0.00    +0.000 A 
ATOM      8  C   UNL     1       2.538   8.372  17.514  0.00  0.00    +0.000 A 
ATOM      9  O   UNL     1       2.019   9.646  17.552  0.00  0.00    +0.000 OA
ATOM     10  C   UNL     1       1.233   9.977  18.631  0.00  0.00    +0.000 A 
ATOM     11  C   UNL     1       0.541  11.185  18.584  0.00  0.00    +0.000 A 
ENDROOT
BRANCH   7  12
ATOM     12  C   UNL     1       2.937   6.089  18.301  0.00  0.00    +0.000 A 
ATOM     13  C   UNL     1       1.898   5.141  18.253  0.00  0.00    +0.000 A 
ATOM     14  C   UNL     1       2.147   3.792  17.995  0.00  0.00    +0.000 A 
ATOM     15  C   UNL     1       3.471   3.361  17.817  0.00  0.00    +0.000 A 
ATOM     16  C   UNL     1       4.509   4.299  17.880  0.00  0.00    +0.000 A 
ATOM     17  C   UNL     1       4.257   5.660  18.118  0.00  0.00    +0.000 A 
BRANCH  14  18
ATOM     18  O   UNL     1       1.156   2.843  17.917  0.00  0.00    +0.000 OA
ATOM     19  C   UNL     1       0.563   2.445  19.149  0.00  0.00    +0.000 C 
ENDBRANCH  14  18
BRANCH  15  20
ATOM     20  O   UNL     1       3.648   2.023  17.569  0.00  0.00    +0.000 OA
ATOM     21  C   UNL     1       3.972   1.190  18.673  0.00  0.00    +0.000 C 
ENDBRANCH  15  20
BRANCH  17  22
ATOM     22  O   UNL     1       5.375   6.447  18.044  0.00  0.00    +0.000 OA
ATOM     23  C   UNL     1       5.964   6.593  16.757  0.00  0.00    +0.000 C 
ENDBRANCH  17  22
ENDBRANCH   7  12
BRANCH   1  25
ATOM     24  C   UNL     1      -0.896  13.624  20.636  0.00  0.00    +0.000 C 
ATOM     25  O   UNL     1      -0.918  12.767  19.499  0.00  0.00    +0.000 OA
ENDBRANCH   1  25
TORSDOF 5
ENDMDL
MODEL 3
REMARK VINA RESULT:      -6.8      1.297      2.133
REMARK  Name = 
REMARK  9 active torsions:
REMARK  status: ('A' for Active; 'I' for Inactive)
REMARK    1  A    between atoms: C_1  and  O_2
REMARK    2  A    between atoms: O_2  and  C_3
REMARK    3  A    between atoms: C_9  and  C_10
REMARK    4  A    between atoms: C_12  and  O_13
REMARK    5  A    between atoms: O_13  and  C_14
REMARK    6  A    between atoms: C_15  and  O_16
REMARK    7  A    between atoms: O_16  and  C_17
REMARK    8  A    between atoms: C_19  and  O_20
REMARK    9  A    between atoms: O_20  and  C_21
REMARK                            x       y       z     vdW  Elec       q    Type
REMARK                         _______ _______ _______ _____ _____    ______ ____
ROOT
ATOM      1  C   UNL     1      -0.769  10.649  20.941  0.00  0.00    +0.000 A 
ATOM      2  C   UNL     1      -0.467   9.593  21.806  0.00  0.00    +0.000 A 
ATOM      3  C   UNL     1       0.498   8.651  21.450  0.00  0.00    +0.000 A 
ATOM      4  C   UNL     1       1.148   8.760  20.219  0.00  0.00    +0.000 A 
ATOM      5  C   UNL     1       2.147   7.764  19.818  0.00  0.00    +0.000 A 
ATOM      6  O   UNL     1       2.548   6.914  20.607  0.00  0.00    +0.000 OA
ATOM      7  C   UNL     1       2.610   7.832  18.411  0.00  0.00    +0.000 A 
ATOM      8  C   UNL     1       2.220   8.883  17.677  0.00  0.00    +0.000 A 
ATOM      9  O   UNL     1       1.426   9.922  18.108  0.00  0.00    +0.000 OA
ATOM     10  C   UNL     1       0.831   9.793  19.342  0.00  0.00    +0.000 A 
ATOM     11  C   UNL     1      -0.127  10.737  19.701  0.00  0.00    +0.000 A 
ENDROOT
BRANCH   7  12
ATOM     12  C   UNL     1       3.321   6.700  17.802  0.00  0.00    +0.000 A 
ATOM     13  C   UNL     1       4.630   6.989  17.376  0.00  0.00    +0.000 A 
ATOM     14  C   UNL     1       5.461   6.005  16.838  0.00  0.00    +0.000 A 
ATOM     15  C   UNL     1       4.967   4.700  16.683  0.00  0.00    +0.000 A 
ATOM     16  C   UNL     1       3.658   4.412  17.093  0.00  0.00    +0.000 A 
ATOM     17  C   UNL     1       2.830   5.398  17.653  0.00  0.00    +0.000 A 
BRANCH  14  18
ATOM     18  O   UNL     1       6.752   6.245  16.433  0.00  0.00    +0.000 OA
ATOM     19  C   UNL     1       7.595   6.909  17.369  0.00  0.00    +0.000 C 
ENDBRANCH  14  18
BRANCH  15  20
ATOM     20  O   UNL     1       5.832   3.779  16.148  0.00  0.00    +0.000 OA
ATOM     21  C   UNL     1       5.990   3.774  14.736  0.00  0.00    +0.000 C 
ENDBRANCH  15  20
BRANCH  17  22
ATOM     22  O   UNL     1       1.623   4.919  18.090  0.00  0.00    +0.000 OA
ATOM     23  C   UNL     1       1.664   3.771  18.929  0.00  0.00    +0.000 C 
ENDBRANCH  17  22
ENDBRANCH   7  12
BRANCH   1  25
ATOM     24  C   UNL     1      -1.903  11.939  22.564  0.00  0.00    +0.000 C 
ATOM     25  O   UNL     1      -1.700  11.621  21.191  0.00  0.00    +0.000 OA
ENDBRANCH   1  25
TORSDOF 5
ENDMDL
MODEL 4
REMARK VINA RESULT:      -6.7      2.022      4.239
REMARK  Name = 
REMARK  9 active torsions:
REMARK  status: ('A' for Active; 'I' for Inactive)
REMARK    1  A    between atoms: C_1  and  O_2
REMARK    2  A    between atoms: O_2  and  C_3
REMARK    3  A    between atoms: C_9  and  C_10
REMARK    4  A    between atoms: C_12  and  O_13
REMARK    5  A    between atoms: O_13  and  C_14
REMARK    6  A    between atoms: C_15  and  O_16
REMARK    7  A    between atoms: O_16  and  C_17
REMARK    8  A    between atoms: C_19  and  O_20
REMARK    9  A    between atoms: O_20  and  C_21
REMARK                            x       y       z     vdW  Elec       q    Type
REMARK                         _______ _______ _______ _____ _____    ______ ____
ROOT
ATOM      1  C   UNL     1      -0.893  11.707  19.727  0.00  0.00    +0.000 A 
ATOM      2  C   UNL     1      -0.842  11.079  20.975  0.00  0.00    +0.000 A 
ATOM      3  C   UNL     1      -0.016   9.972  21.168  0.00  0.00    +0.000 A 
ATOM      4  C   UNL     1       0.746   9.485  20.104  0.00  0.00    +0.000 A 
ATOM      5  C   UNL     1       1.601   8.307  20.283  0.00  0.00    +0.000 A 
ATOM      6  O   UNL     1       1.789   7.822  21.393  0.00  0.00    +0.000 OA
ATOM      7  C   UNL     1       2.187   7.731  19.048  0.00  0.00    +0.000 A 
ATOM      8  C   UNL     1       2.037   8.419  17.908  0.00  0.00    +0.000 A 
ATOM      9  O   UNL     1       1.389   9.625  17.769  0.00  0.00    +0.000 OA
ATOM     10  C   UNL     1       0.678  10.089  18.851  0.00  0.00    +0.000 A 
ATOM     11  C   UNL     1      -0.142  11.198  18.662  0.00  0.00    +0.000 A 
ENDROOT
BRANCH   7  12
ATOM     12  C   UNL     1       2.755   6.377  19.051  0.00  0.00    +0.000 A 
ATOM     13  C   UNL     1       1.964   5.409  19.697  0.00  0.00    +0.000 A 
ATOM     14  C   UNL     1       2.331   4.063  19.728  0.00  0.00    +0.000 A 
ATOM     15  C   UNL     1       3.539   3.667  19.130  0.00  0.00    +0.000 A 
ATOM     16  C   UNL     1       4.336   4.631  18.499  0.00  0.00    +0.000 A 
ATOM     17  C   UNL     1       3.956   5.982  18.451  0.00  0.00    +0.000 A 
BRANCH  14  18
ATOM     18  O   UNL     1       1.573   3.087  20.328  0.00  0.00    +0.000 OA
ATOM     19  C   UNL     1       1.726   2.944  21.737  0.00  0.00    +0.000 C 
ENDBRANCH  14  18
BRANCH  15  20
ATOM     20  O   UNL     1       3.842   2.331  19.196  0.00  0.00    +0.000 OA
ATOM     21  C   UNL     1       3.559   1.540  18.050  0.00  0.00    +0.000 C 
ENDBRANCH  15  20
BRANCH  17  22
ATOM     22  O   UNL     1       4.800   6.764  17.707  0.00  0.00    +0.000 OA
ATOM     23  C   UNL     1       5.089   6.310  16.390  0.00  0.00    +0.000 C 
ENDBRANCH  17  22
ENDBRANCH   7  12
BRANCH   1  25
ATOM     24  C   UNL     1      -2.621  13.159  20.426  0.00  0.00    +0.000 C 
ATOM     25  O   UNL     1      -1.671  12.793  19.431  0.00  0.00    +0.000 OA
ENDBRANCH   1  25
TORSDOF 5
ENDMDL
MODEL 5
REMARK VINA RESULT:      -6.7      1.318      1.523
REMARK  Name = 
REMARK  9 active torsions:
REMARK  status: ('A' for Active; 'I' for Inactive)
REMARK    1  A    between atoms: C_1  and  O_2
REMARK    2  A    between atoms: O_2  and  C_3
REMARK    3  A    between atoms: C_9  and  C_10
REMARK    4  A    between atoms: C_12  and  O_13
REMARK    5  A    between atoms: O_13  and  C_14
REMARK    6  A    between atoms: C_15  and  O_16
REMARK    7  A    between atoms: O_16  and  C_17
REMARK    8  A    between atoms: C_19  and  O_20
REMARK    9  A    between atoms: O_20  and  C_21
REMARK                            x       y       z     vdW  Elec       q    Type
REMARK                         _______ _______ _______ _____ _____    ______ ____
ROOT
ATOM      1  C   UNL     1      -0.185  11.467  20.940  0.00  0.00    +0.000 A 
ATOM      2  C   UNL     1       0.142  11.874  19.643  0.00  0.00    +0.000 A 
ATOM      3  C   UNL     1       0.780  10.990  18.773  0.00  0.00    +0.000 A 
ATOM      4  C   UNL     1       1.105   9.705  19.210  0.00  0.00    +0.000 A 
ATOM      5  C   UNL     1       1.799   8.771  18.316  0.00  0.00    +0.000 A 
ATOM      6  O   UNL     1       1.967   9.034  17.129  0.00  0.00    +0.000 OA
ATOM      7  C   UNL     1       2.303   7.523  18.937  0.00  0.00    +0.000 A 
ATOM      8  C   UNL     1       1.942   7.267  20.203  0.00  0.00    +0.000 A 
ATOM      9  O   UNL     1       1.134   8.057  20.989  0.00  0.00    +0.000 OA
ATOM     10  C   UNL     1       0.807   9.303  20.509  0.00  0.00    +0.000 A 
ATOM     11  C   UNL     1       0.164  10.184  21.374  0.00  0.00    +0.000 A 
ENDROOT
BRANCH   7  12
ATOM     12  C   UNL     1       3.300   6.694  18.249  0.00  0.00    +0.000 A 
ATOM     13  C   UNL     1       4.401   7.403  17.734  0.00  0.00    +0.000 A 
ATOM     14  C   UNL     1       5.467   6.752  17.111  0.00  0.00    +0.000 A 
ATOM     15  C   UNL     1       5.425   5.357  16.960  0.00  0.00    +0.000 A 
ATOM     16  C   UNL     1       4.323   4.649  17.458  0.00  0.00    +0.000 A 
ATOM     17  C   UNL     1       3.260   5.302  18.102  0.00  0.00    +0.000 A 
BRANCH  14  18
ATOM     18  O   UNL     1       6.569   7.409  16.619  0.00  0.00    +0.000 OA
ATOM     19  C   UNL     1       7.476   7.933  17.584  0.00  0.00    +0.000 C 
ENDBRANCH  14  18
BRANCH  15  20
ATOM     20  O   UNL     1       6.503   4.778  16.339  0.00  0.00    +0.000 OA
ATOM     21  C   UNL     1       7.558   4.308  17.165  0.00  0.00    +0.000 C 
ENDBRANCH  15  20
BRANCH  17  22
ATOM     22  O   UNL     1       2.320   4.448  18.614  0.00  0.00    +0.000 OA
ATOM     23  C   UNL     1       1.533   3.732  17.670  0.00  0.00    +0.000 C 
ENDBRANCH  17  22
ENDBRANCH   7  12
BRANCH   1  25
ATOM     24  C   UNL     1      -1.329  11.570  23.005  0.00  0.00    +0.000 C 
ATOM     25  O   UNL     1      -0.805  12.254  21.871  0.00  0.00    +0.000 OA
ENDBRANCH   1  25
TORSDOF 5
ENDMDL
MODEL 6
REMARK VINA RESULT:      -6.6      2.259      7.998
REMARK  Name = 
REMARK  9 active torsions:
REMARK  status: ('A' for Active; 'I' for Inactive)
REMARK    1  A    between atoms: C_1  and  O_2
REMARK    2  A    between atoms: O_2  and  C_3
REMARK    3  A    between atoms: C_9  and  C_10
REMARK    4  A    between atoms: C_12  and  O_13
REMARK    5  A    between atoms: O_13  and  C_14
REMARK    6  A    between atoms: C_15  and  O_16
REMARK    7  A    between atoms: O_16  and  C_17
REMARK    8  A    between atoms: C_19  and  O_20
REMARK    9  A    between atoms: O_20  and  C_21
REMARK                            x       y       z     vdW  Elec       q    Type
REMARK                         _______ _______ _______ _____ _____    ______ ____
ROOT
ATOM      1  C   UNL     1       3.800   4.363  18.424  0.00  0.00    +0.000 A 
ATOM      2  C   UNL     1       3.989   5.281  17.387  0.00  0.00    +0.000 A 
ATOM      3  C   UNL     1       3.486   6.576  17.500  0.00  0.00    +0.000 A 
ATOM      4  C   UNL     1       2.780   6.946  18.646  0.00  0.00    +0.000 A 
ATOM      5  C   UNL     1       2.223   8.297  18.770  0.00  0.00    +0.000 A 
ATOM      6  O   UNL     1       2.494   9.173  17.956  0.00  0.00    +0.000 OA
ATOM      7  C   UNL     1       1.300   8.522  19.909  0.00  0.00    +0.000 A 
ATOM      8  C   UNL     1       1.185   7.545  20.819  0.00  0.00    +0.000 A 
ATOM      9  O   UNL     1       1.851   6.340  20.803  0.00  0.00    +0.000 OA
ATOM     10  C   UNL     1       2.564   6.028  19.670  0.00  0.00    +0.000 A 
ATOM     11  C   UNL     1       3.073   4.736  19.559  0.00  0.00    +0.000 A 
ENDROOT
BRANCH   7  12
ATOM     12  C   UNL     1       0.420   9.696  19.938  0.00  0.00    +0.000 A 
ATOM     13  C   UNL     1      -0.251   9.958  18.730  0.00  0.00    +0.000 A 
ATOM     14  C   UNL     1      -1.175  10.999  18.614  0.00  0.00    +0.000 A 
ATOM     15  C   UNL     1      -1.414  11.830  19.720  0.00  0.00    +0.000 A 
ATOM     16  C   UNL     1      -0.736  11.581  20.921  0.00  0.00    +0.000 A 
ATOM     17  C   UNL     1       0.177  10.522  21.042  0.00  0.00    +0.000 A 
BRANCH  14  18
ATOM     18  O   UNL     1      -1.867  11.269  17.458  0.00  0.00    +0.000 OA
ATOM     19  C   UNL     1      -2.251  10.144  16.673  0.00  0.00    +0.000 C 
ENDBRANCH  14  18
BRANCH  15  20
ATOM     20  O   UNL     1      -2.333  12.834  19.541  0.00  0.00    +0.000 OA
ATOM     21  C   UNL     1      -3.574  12.713  20.221  0.00  0.00    +0.000 C 
ENDBRANCH  15  20
BRANCH  17  22
ATOM     22  O   UNL     1       0.668  10.363  22.312  0.00  0.00    +0.000 OA
ATOM     23  C   UNL     1      -0.213   9.779  23.263  0.00  0.00    +0.000 C 
ENDBRANCH  17  22
ENDBRANCH   7  12
BRANCH   1  25
ATOM     24  C   UNL     1       3.252   2.076  18.184  0.00  0.00    +0.000 C 
ATOM     25  O   UNL     1       4.247   3.069  18.413  0.00  0.00    +0.000 OA
ENDBRANCH   1  25
TORSDOF 5
ENDMDL
MODEL 7
REMARK VINA RESULT:      -6.5      2.294      3.489
REMARK  Name = 
REMARK  9 active torsions:
REMARK  status: ('A' for Active; 'I' for Inactive)
REMARK    1  A    between atoms: C_1  and  O_2
REMARK    2  A    between atoms: O_2  and  C_3
REMARK    3  A    between atoms: C_9  and  C_10
REMARK    4  A    between atoms: C_12  and  O_13
REMARK    5  A    between atoms: O_13  and  C_14
REMARK    6  A    between atoms: C_15  and  O_16
REMARK    7  A    between atoms: O_16  and  C_17
REMARK    8  A    between atoms: C_19  and  O_20
REMARK    9  A    between atoms: O_20  and  C_21
REMARK                            x       y       z     vdW  Elec       q    Type
REMARK                         _______ _______ _______ _____ _____    ______ ____
ROOT
ATOM      1  C   UNL     1      -0.643  11.174  19.348  0.00  0.00    +0.000 A 
ATOM      2  C   UNL     1      -0.684  10.615  20.629  0.00  0.00    +0.000 A 
ATOM      3  C   UNL     1       0.136   9.533  20.946  0.00  0.00    +0.000 A 
ATOM      4  C   UNL     1       0.984   9.000  19.973  0.00  0.00    +0.000 A 
ATOM      5  C   UNL     1       1.835   7.846  20.283  0.00  0.00    +0.000 A 
ATOM      6  O   UNL     1       1.941   7.424  21.430  0.00  0.00    +0.000 OA
ATOM      7  C   UNL     1       2.522   7.213  19.131  0.00  0.00    +0.000 A 
ATOM      8  C   UNL     1       2.455   7.836  17.947  0.00  0.00    +0.000 A 
ATOM      9  O   UNL     1       1.807   9.024  17.692  0.00  0.00    +0.000 OA
ATOM     10  C   UNL     1       1.008   9.534  18.688  0.00  0.00    +0.000 A 
ATOM     11  C   UNL     1       0.195  10.620  18.375  0.00  0.00    +0.000 A 
ENDROOT
BRANCH   7  12
ATOM     12  C   UNL     1       3.102   5.869  19.252  0.00  0.00    +0.000 A 
ATOM     13  C   UNL     1       4.495   5.810  19.067  0.00  0.00    +0.000 A 
ATOM     14  C   UNL     1       5.206   4.618  19.216  0.00  0.00    +0.000 A 
ATOM     15  C   UNL     1       4.509   3.438  19.522  0.00  0.00    +0.000 A 
ATOM     16  C   UNL     1       3.119   3.490  19.693  0.00  0.00    +0.000 A 
ATOM     17  C   UNL     1       2.408   4.694  19.563  0.00  0.00    +0.000 A 
BRANCH  14  18
ATOM     18  O   UNL     1       6.568   4.528  19.067  0.00  0.00    +0.000 OA
ATOM     19  C   UNL     1       7.227   5.684  18.561  0.00  0.00    +0.000 C 
ENDBRANCH  14  18
BRANCH  15  20
ATOM     20  O   UNL     1       5.265   2.301  19.655  0.00  0.00    +0.000 OA
ATOM     21  C   UNL     1       5.073   1.521  20.827  0.00  0.00    +0.000 C 
ENDBRANCH  15  20
BRANCH  17  22
ATOM     22  O   UNL     1       1.076   4.580  19.863  0.00  0.00    +0.000 OA
ATOM     23  C   UNL     1       0.560   3.258  19.965  0.00  0.00    +0.000 C 
ENDBRANCH  17  22
ENDBRANCH   7  12
BRANCH   1  25
ATOM     24  C   UNL     1      -2.611  12.444  19.663  0.00  0.00    +0.000 C 
ATOM     25  O   UNL     1      -1.407  12.231  18.933  0.00  0.00    +0.000 OA
ENDBRANCH   1  25
TORSDOF 5
ENDMDL
MODEL 8
REMARK VINA RESULT:      -6.4      1.170      2.913
REMARK  Name = 
REMARK  9 active torsions:
REMARK  status: ('A' for Active; 'I' for Inactive)
REMARK    1  A    between atoms: C_1  and  O_2
REMARK    2  A    between atoms: O_2  and  C_3
REMARK    3  A    between atoms: C_9  and  C_10
REMARK    4  A    between atoms: C_12  and  O_13
REMARK    5  A    between atoms: O_13  and  C_14
REMARK    6  A    between atoms: C_15  and  O_16
REMARK    7  A    between atoms: O_16  and  C_17
REMARK    8  A    between atoms: C_19  and  O_20
REMARK    9  A    between atoms: O_20  and  C_21
REMARK                            x       y       z     vdW  Elec       q    Type
REMARK                         _______ _______ _______ _____ _____    ______ ____
ROOT
ATOM      1  C   UNL     1       0.415  11.159  21.104  0.00  0.00    +0.000 A 
ATOM      2  C   UNL     1       0.741  11.588  19.814  0.00  0.00    +0.000 A 
ATOM      3  C   UNL     1       1.278  10.689  18.893  0.00  0.00    +0.000 A 
ATOM      4  C   UNL     1       1.502   9.364  19.272  0.00  0.00    +0.000 A 
ATOM      5  C   UNL     1       2.088   8.411  18.324  0.00  0.00    +0.000 A 
ATOM      6  O   UNL     1       2.247   8.706  17.143  0.00  0.00    +0.000 OA
ATOM      7  C   UNL     1       2.500   7.100  18.883  0.00  0.00    +0.000 A 
ATOM      8  C   UNL     1       2.151   6.826  20.147  0.00  0.00    +0.000 A 
ATOM      9  O   UNL     1       1.436   7.650  20.987  0.00  0.00    +0.000 OA
ATOM     10  C   UNL     1       1.205   8.938  20.563  0.00  0.00    +0.000 A 
ATOM     11  C   UNL     1       0.662   9.835  21.480  0.00  0.00    +0.000 A 
ENDROOT
BRANCH   7  12
ATOM     12  C   UNL     1       3.403   6.218  18.134  0.00  0.00    +0.000 A 
ATOM     13  C   UNL     1       2.887   4.936  17.869  0.00  0.00    +0.000 A 
ATOM     14  C   UNL     1       3.595   4.002  17.110  0.00  0.00    +0.000 A 
ATOM     15  C   UNL     1       4.871   4.336  16.629  0.00  0.00    +0.000 A 
ATOM     16  C   UNL     1       5.394   5.606  16.903  0.00  0.00    +0.000 A 
ATOM     17  C   UNL     1       4.673   6.552  17.649  0.00  0.00    +0.000 A 
BRANCH  14  18
ATOM     18  O   UNL     1       3.113   2.751  16.811  0.00  0.00    +0.000 OA
ATOM     19  C   UNL     1       2.867   1.887  17.916  0.00  0.00    +0.000 C 
ENDBRANCH  14  18
BRANCH  15  20
ATOM     20  O   UNL     1       5.514   3.374  15.890  0.00  0.00    +0.000 OA
ATOM     21  C   UNL     1       6.124   3.784  14.674  0.00  0.00    +0.000 C 
ENDBRANCH  15  20
BRANCH  17  22
ATOM     22  O   UNL     1       5.291   7.772  17.733  0.00  0.00    +0.000 OA
ATOM     23  C   UNL     1       6.686   7.796  17.458  0.00  0.00    +0.000 C 
ENDBRANCH  17  22
ENDBRANCH   7  12
BRANCH   1  25
ATOM     24  C   UNL     1      -1.112  11.357  22.897  0.00  0.00    +0.000 C 
ATOM     25  O   UNL     1      -0.111  11.958  22.083  0.00  0.00    +0.000 OA
ENDBRANCH   1  25
TORSDOF 5
ENDMDL
MODEL 9
REMARK VINA RESULT:      -6.4      3.171      7.547
REMARK  Name = 
REMARK  9 active torsions:
REMARK  status: ('A' for Active; 'I' for Inactive)
REMARK    1  A    between atoms: C_1  and  O_2
REMARK    2  A    between atoms: O_2  and  C_3
REMARK    3  A    between atoms: C_9  and  C_10
REMARK    4  A    between atoms: C_12  and  O_13
REMARK    5  A    between atoms: O_13  and  C_14
REMARK    6  A    between atoms: C_15  and  O_16
REMARK    7  A    between atoms: O_16  and  C_17
REMARK    8  A    between atoms: C_19  and  O_20
REMARK    9  A    between atoms: O_20  and  C_21
REMARK                            x       y       z     vdW  Elec       q    Type
REMARK                         _______ _______ _______ _____ _____    ______ ____
ROOT
ATOM      1  C   UNL     1       2.398   4.572  19.443  0.00  0.00    +0.000 A 
ATOM      2  C   UNL     1       2.639   5.039  18.147  0.00  0.00    +0.000 A 
ATOM      3  C   UNL     1       2.492   6.395  17.855  0.00  0.00    +0.000 A 
ATOM      4  C   UNL     1       2.088   7.278  18.858  0.00  0.00    +0.000 A 
ATOM      5  C   UNL     1       1.906   8.703  18.561  0.00  0.00    +0.000 A 
ATOM      6  O   UNL     1       2.250   9.177  17.483  0.00  0.00    +0.000 OA
ATOM      7  C   UNL     1       1.258   9.514  19.621  0.00  0.00    +0.000 A 
ATOM      8  C   UNL     1       1.054   8.933  20.812  0.00  0.00    +0.000 A 
ATOM      9  O   UNL     1       1.394   7.644  21.153  0.00  0.00    +0.000 OA
ATOM     10  C   UNL     1       1.821   6.814  20.143  0.00  0.00    +0.000 A 
ATOM     11  C   UNL     1       1.974   5.461  20.435  0.00  0.00    +0.000 A 
ENDROOT
BRANCH   7  12
ATOM     12  C   UNL     1       0.708  10.840  19.317  0.00  0.00    +0.000 A 
ATOM     13  C   UNL     1       1.623  11.901  19.444  0.00  0.00    +0.000 A 
ATOM     14  C   UNL     1       1.274  13.214  19.126  0.00  0.00    +0.000 A 
ATOM     15  C   UNL     1      -0.036  13.492  18.703  0.00  0.00    +0.000 A 
ATOM     16  C   UNL     1      -0.955  12.441  18.590  0.00  0.00    +0.000 A 
ATOM     17  C   UNL     1      -0.597  11.117  18.890  0.00  0.00    +0.000 A 
BRANCH  14  18
ATOM     18  O   UNL     1       2.148  14.271  19.215  0.00  0.00    +0.000 OA
ATOM     19  C   UNL     1       2.819  14.433  20.460  0.00  0.00    +0.000 C 
ENDBRANCH  14  18
BRANCH  15  20
ATOM     20  O   UNL     1      -0.315  14.803  18.407  0.00  0.00    +0.000 OA
ATOM     21  C   UNL     1      -0.790  15.625  19.464  0.00  0.00    +0.000 C 
ENDBRANCH  15  20
BRANCH  17  22
ATOM     22  O   UNL     1      -1.586  10.207  18.626  0.00  0.00    +0.000 OA
ATOM     23  C   UNL     1      -1.983  10.080  17.266  0.00  0.00    +0.000 C 
ENDBRANCH  17  22
ENDBRANCH   7  12
BRANCH   1  25
ATOM     24  C   UNL     1       1.474   2.790  20.689  0.00  0.00    +0.000 C 
ATOM     25  O   UNL     1       2.508   3.265  19.834  0.00  0.00    +0.000 OA
ENDBRANCH   1  25
TORSDOF 5
ENDMDL
