MODEL 1
REMARK VINA RESULT:      -8.0      0.000      0.000
REMARK  Name = 
REMARK  6 active torsions:
REMARK  status: ('A' for Active; 'I' for Inactive)
REMARK    1  A    between atoms: C_1  and  O_2
REMARK    2  A    between atoms: O_2  and  C_3
REMARK    3  A    between atoms: C_6  and  C_7
REMARK    4  A    between atoms: C_7  and  N_8
REMARK    5  A    between atoms: N_11  and  C_12
REMARK    6  A    between atoms: C_12  and  C_13
REMARK                            x       y       z     vdW  Elec       q    Type
REMARK                         _______ _______ _______ _____ _____    ______ ____
ROOT
ATOM      1  N   UNL     1       6.477   5.678  16.469  0.00  0.00    +0.000 N 
ATOM      2  C   UNL     1       5.381   6.515  16.369  0.00  0.00    +0.000 A 
ATOM      3  C   UNL     1       4.514   6.664  17.371  0.00  0.00    +0.000 A 
ATOM      4  N   UNL     1       4.614   5.945  18.546  0.00  0.00    +0.000 N 
ATOM      5  C   UNL     1       5.625   4.998  18.727  0.00  0.00    +0.000 A 
ATOM      6  O   UNL     1       5.652   4.187  19.647  0.00  0.00    +0.000 OA
ATOM      7  C   UNL     1       6.748   4.981  17.655  0.00  0.00    +0.000 A 
ATOM      8  O   UNL     1       7.777   4.347  17.864  0.00  0.00    +0.000 OA
ENDROOT
BRANCH   1   9
ATOM      9  C   UNL     1       7.372   5.489  15.331  0.00  0.00    +0.000 C 
BRANCH   9  13
ATOM     10  C   UNL     1       5.621   3.315  12.020  0.00  0.00    +0.000 A 
ATOM     11  C   UNL     1       4.951   3.410  13.243  0.00  0.00    +0.000 A 
ATOM     12  C   UNL     1       5.523   4.097  14.315  0.00  0.00    +0.000 A 
ATOM     13  C   UNL     1       6.787   4.686  14.195  0.00  0.00    +0.000 A 
ATOM     14  C   UNL     1       7.469   4.559  12.972  0.00  0.00    +0.000 A 
ATOM     15  C   UNL     1       6.887   3.878  11.897  0.00  0.00    +0.000 A 
BRANCH  10  17
ATOM     16  C   UNL     1       3.645   3.074  10.754  0.00  0.00    +0.000 C 
ATOM     17  O   UNL     1       4.964   2.624  11.043  0.00  0.00    +0.000 OA
ENDBRANCH  10  17
ENDBRANCH   9  13
ENDBRANCH   1   9
BRANCH   4  18
ATOM     18  C   UNL     1       3.602   6.103  19.594  0.00  0.00    +0.000 C 
BRANCH  18  19
ATOM     19  C   UNL     1       2.594   4.975  19.593  0.00  0.00    +0.000 A 
ATOM     20  C   UNL     1       1.974   4.566  18.401  0.00  0.00    +0.000 A 
ATOM     21  C   UNL     1       1.095   3.479  18.391  0.00  0.00    +0.000 A 
ATOM     22  C   UNL     1       0.833   2.777  19.567  0.00  0.00    +0.000 A 
ATOM     23  C   UNL     1       1.433   3.185  20.755  0.00  0.00    +0.000 A 
ATOM     24 CL   UNL     1       1.128   2.315  22.210  0.00  0.00    +0.000 Cl
ATOM     25  C   UNL     1       2.294   4.283  20.777  0.00  0.00    +0.000 A 
ENDBRANCH  18  19
ENDBRANCH   4  18
TORSDOF 5
ENDMDL
MODEL 2
REMARK VINA RESULT:      -8.0      6.166      8.612
REMARK  Name = 
REMARK  6 active torsions:
REMARK  status: ('A' for Active; 'I' for Inactive)
REMARK    1  A    between atoms: C_1  and  O_2
REMARK    2  A    between atoms: O_2  and  C_3
REMARK    3  A    between atoms: C_6  and  C_7
REMARK    4  A    between atoms: C_7  and  N_8
REMARK    5  A    between atoms: N_11  and  C_12
REMARK    6  A    between atoms: C_12  and  C_13
REMARK                            x       y       z     vdW  Elec       q    Type
REMARK                         _______ _______ _______ _____ _____    ______ ____
ROOT
ATOM      1  N   UNL     1       0.663  10.090  18.840  0.00  0.00    +0.000 N 
ATOM      2  C   UNL     1       1.463   9.585  17.833  0.00  0.00    +0.000 A 
ATOM      3  C   UNL     1       2.195   8.482  17.999  0.00  0.00    +0.000 A 
ATOM      4  N   UNL     1       2.252   7.811  19.206  0.00  0.00    +0.000 N 
ATOM      5  C   UNL     1       1.562   8.280  20.325  0.00  0.00    +0.000 A 
ATOM      6  O   UNL     1       1.729   7.859  21.465  0.00  0.00    +0.000 OA
ATOM      7  C   UNL     1       0.552   9.432  20.074  0.00  0.00    +0.000 A 
ATOM      8  O   UNL     1      -0.252   9.737  20.949  0.00  0.00    +0.000 OA
ENDROOT
BRANCH   1   9
ATOM      9  C   UNL     1      -0.075  11.335  18.647  0.00  0.00    +0.000 C 
BRANCH   9  13
ATOM     10  C   UNL     1      -4.321  10.946  17.884  0.00  0.00    +0.000 A 
ATOM     11  C   UNL     1      -3.850  11.836  18.854  0.00  0.00    +0.000 A 
ATOM     12  C   UNL     1      -2.483  11.948  19.111  0.00  0.00    +0.000 A 
ATOM     13  C   UNL     1      -1.557  11.160  18.419  0.00  0.00    +0.000 A 
ATOM     14  C   UNL     1      -2.040  10.245  17.467  0.00  0.00    +0.000 A 
ATOM     15  C   UNL     1      -3.410  10.142  17.206  0.00  0.00    +0.000 A 
BRANCH  10  17
ATOM     16  C   UNL     1      -6.276  12.177  17.406  0.00  0.00    +0.000 C 
ATOM     17  O   UNL     1      -5.676  10.925  17.716  0.00  0.00    +0.000 OA
ENDBRANCH  10  17
ENDBRANCH   9  13
ENDBRANCH   1   9
BRANCH   4  18
ATOM     18  C   UNL     1       3.116   6.636  19.353  0.00  0.00    +0.000 C 
BRANCH  18  19
ATOM     19  C   UNL     1       2.335   5.341  19.301  0.00  0.00    +0.000 A 
ATOM     20  C   UNL     1       1.895   4.816  18.075  0.00  0.00    +0.000 A 
ATOM     21  C   UNL     1       1.234   3.585  18.023  0.00  0.00    +0.000 A 
ATOM     22  C   UNL     1       1.014   2.856  19.192  0.00  0.00    +0.000 A 
ATOM     23  C   UNL     1       1.434   3.377  20.412  0.00  0.00    +0.000 A 
ATOM     24 CL   UNL     1       1.182   2.477  21.859  0.00  0.00    +0.000 Cl
ATOM     25  C   UNL     1       2.076   4.615  20.475  0.00  0.00    +0.000 A 
ENDBRANCH  18  19
ENDBRANCH   4  18
TORSDOF 5
ENDMDL
MODEL 3
REMARK VINA RESULT:      -7.9      0.560      1.184
REMARK  Name = 
REMARK  6 active torsions:
REMARK  status: ('A' for Active; 'I' for Inactive)
REMARK    1  A    between atoms: C_1  and  O_2
REMARK    2  A    between atoms: O_2  and  C_3
REMARK    3  A    between atoms: C_6  and  C_7
REMARK    4  A    between atoms: C_7  and  N_8
REMARK    5  A    between atoms: N_11  and  C_12
REMARK    6  A    between atoms: C_12  and  C_13
REMARK                            x       y       z     vdW  Elec       q    Type
REMARK                         _______ _______ _______ _____ _____    ______ ____
ROOT
ATOM      1  N   UNL     1       6.396   5.827  16.363  0.00  0.00    +0.000 N 
ATOM      2  C   UNL     1       5.295   6.659  16.297  0.00  0.00    +0.000 A 
ATOM      3  C   UNL     1       4.432   6.768  17.309  0.00  0.00    +0.000 A 
ATOM      4  N   UNL     1       4.544   6.010  18.458  0.00  0.00    +0.000 N 
ATOM      5  C   UNL     1       5.562   5.064  18.601  0.00  0.00    +0.000 A 
ATOM      6  O   UNL     1       5.600   4.223  19.493  0.00  0.00    +0.000 OA
ATOM      7  C   UNL     1       6.678   5.091  17.523  0.00  0.00    +0.000 A 
ATOM      8  O   UNL     1       7.714   4.458  17.704  0.00  0.00    +0.000 OA
ENDROOT
BRANCH   1   9
ATOM      9  C   UNL     1       7.286   5.682  15.214  0.00  0.00    +0.000 C 
BRANCH   9  13
ATOM     10  C   UNL     1       5.830   3.040  12.107  0.00  0.00    +0.000 A 
ATOM     11  C   UNL     1       7.035   3.731  11.947  0.00  0.00    +0.000 A 
ATOM     12  C   UNL     1       7.495   4.595  12.942  0.00  0.00    +0.000 A 
ATOM     13  C   UNL     1       6.752   4.804  14.110  0.00  0.00    +0.000 A 
ATOM     14  C   UNL     1       5.526   4.130  14.249  0.00  0.00    +0.000 A 
ATOM     15  C   UNL     1       5.073   3.257  13.253  0.00  0.00    +0.000 A 
BRANCH  10  17
ATOM     16  C   UNL     1       6.166   0.973  11.021  0.00  0.00    +0.000 C 
ATOM     17  O   UNL     1       5.483   2.220  11.072  0.00  0.00    +0.000 OA
ENDBRANCH  10  17
ENDBRANCH   9  13
ENDBRANCH   1   9
BRANCH   4  18
ATOM     18  C   UNL     1       3.537   6.126  19.517  0.00  0.00    +0.000 C 
BRANCH  18  19
ATOM     19  C   UNL     1       2.565   4.966  19.513  0.00  0.00    +0.000 A 
ATOM     20  C   UNL     1       1.965   4.535  18.319  0.00  0.00    +0.000 A 
ATOM     21  C   UNL     1       1.121   3.421  18.307  0.00  0.00    +0.000 A 
ATOM     22  C   UNL     1       0.875   2.714  19.484  0.00  0.00    +0.000 A 
ATOM     23  C   UNL     1       1.455   3.143  20.674  0.00  0.00    +0.000 A 
ATOM     24 CL   UNL     1       1.169   2.268  22.129  0.00  0.00    +0.000 Cl
ATOM     25  C   UNL     1       2.281   4.267  20.698  0.00  0.00    +0.000 A 
ENDBRANCH  18  19
ENDBRANCH   4  18
TORSDOF 5
ENDMDL
MODEL 4
REMARK VINA RESULT:      -7.5      5.563      8.451
REMARK  Name = 
REMARK  6 active torsions:
REMARK  status: ('A' for Active; 'I' for Inactive)
REMARK    1  A    between atoms: C_1  and  O_2
REMARK    2  A    between atoms: O_2  and  C_3
REMARK    3  A    between atoms: C_6  and  C_7
REMARK    4  A    between atoms: C_7  and  N_8
REMARK    5  A    between atoms: N_11  and  C_12
REMARK    6  A    between atoms: C_12  and  C_13
REMARK                            x       y       z     vdW  Elec       q    Type
REMARK                         _______ _______ _______ _____ _____    ______ ____
ROOT
ATOM      1  N   UNL     1       1.634   8.895  19.267  0.00  0.00    +0.000 N 
ATOM      2  C   UNL     1       2.227   8.563  18.065  0.00  0.00    +0.000 A 
ATOM      3  C   UNL     1       2.631   7.320  17.797  0.00  0.00    +0.000 A 
ATOM      4  N   UNL     1       2.545   6.302  18.726  0.00  0.00    +0.000 N 
ATOM      5  C   UNL     1       2.050   6.537  20.011  0.00  0.00    +0.000 A 
ATOM      6  O   UNL     1       2.136   5.741  20.939  0.00  0.00    +0.000 OA
ATOM      7  C   UNL     1       1.389   7.922  20.246  0.00  0.00    +0.000 A 
ATOM      8  O   UNL     1       0.732   8.116  21.264  0.00  0.00    +0.000 OA
ENDROOT
BRANCH   1   9
ATOM      9  C   UNL     1       1.261  10.278  19.553  0.00  0.00    +0.000 C 
BRANCH   9  13
ATOM     10  C   UNL     1      -2.762  11.282  18.302  0.00  0.00    +0.000 A 
ATOM     11  C   UNL     1      -2.005  10.352  17.584  0.00  0.00    +0.000 A 
ATOM     12  C   UNL     1      -0.702  10.041  17.978  0.00  0.00    +0.000 A 
ATOM     13  C   UNL     1      -0.120  10.668  19.086  0.00  0.00    +0.000 A 
ATOM     14  C   UNL     1      -0.877  11.625  19.784  0.00  0.00    +0.000 A 
ATOM     15  C   UNL     1      -2.186  11.926  19.391  0.00  0.00    +0.000 A 
BRANCH  10  17
ATOM     16  C   UNL     1      -4.221  11.207  16.449  0.00  0.00    +0.000 C 
ATOM     17  O   UNL     1      -4.023  11.503  17.827  0.00  0.00    +0.000 OA
ENDBRANCH  10  17
ENDBRANCH   9  13
ENDBRANCH   1   9
BRANCH   4  18
ATOM     18  C   UNL     1       3.055   4.966  18.403  0.00  0.00    +0.000 C 
BRANCH  18  19
ATOM     19  C   UNL     1       4.509   4.994  17.982  0.00  0.00    +0.000 A 
ATOM     20  C   UNL     1       5.519   5.305  18.907  0.00  0.00    +0.000 A 
ATOM     21  C   UNL     1       6.866   5.263  18.533  0.00  0.00    +0.000 A 
ATOM     22  C   UNL     1       7.222   4.900  17.234  0.00  0.00    +0.000 A 
ATOM     23  C   UNL     1       6.226   4.605  16.308  0.00  0.00    +0.000 A 
ATOM     24 CL   UNL     1       6.657   4.140  14.707  0.00  0.00    +0.000 Cl
ATOM     25  C   UNL     1       4.879   4.665  16.668  0.00  0.00    +0.000 A 
ENDBRANCH  18  19
ENDBRANCH   4  18
TORSDOF 5
ENDMDL
MODEL 5
REMARK VINA RESULT:      -7.5      5.715      8.220
REMARK  Name = 
REMARK  6 active torsions:
REMARK  status: ('A' for Active; 'I' for Inactive)
REMARK    1  A    between atoms: C_1  and  O_2
REMARK    2  A    between atoms: O_2  and  C_3
REMARK    3  A    between atoms: C_6  and  C_7
REMARK    4  A    between atoms: C_7  and  N_8
REMARK    5  A    between atoms: N_11  and  C_12
REMARK    6  A    between atoms: C_12  and  C_13
REMARK                            x       y       z     vdW  Elec       q    Type
REMARK                         _______ _______ _______ _____ _____    ______ ____
ROOT
ATOM      1  N   UNL     1       1.203   9.851  19.445  0.00  0.00    +0.000 N 
ATOM      2  C   UNL     1       1.169   8.817  20.361  0.00  0.00    +0.000 A 
ATOM      3  C   UNL     1       1.860   7.690  20.179  0.00  0.00    +0.000 A 
ATOM      4  N   UNL     1       2.599   7.456  19.037  0.00  0.00    +0.000 N 
ATOM      5  C   UNL     1       2.634   8.388  17.997  0.00  0.00    +0.000 A 
ATOM      6  O   UNL     1       3.094   8.160  16.883  0.00  0.00    +0.000 OA
ATOM      7  C   UNL     1       2.008   9.776  18.299  0.00  0.00    +0.000 A 
ATOM      8  O   UNL     1       2.204  10.711  17.530  0.00  0.00    +0.000 OA
ENDROOT
BRANCH   1   9
ATOM      9  C   UNL     1       0.386  11.045  19.643  0.00  0.00    +0.000 C 
BRANCH   9  13
ATOM     10  C   UNL     1      -3.523  10.837  17.790  0.00  0.00    +0.000 A 
ATOM     11  C   UNL     1      -2.502   9.967  17.397  0.00  0.00    +0.000 A 
ATOM     12  C   UNL     1      -1.238  10.045  17.983  0.00  0.00    +0.000 A 
ATOM     13  C   UNL     1      -0.959  11.008  18.960  0.00  0.00    +0.000 A 
ATOM     14  C   UNL     1      -1.982  11.901  19.326  0.00  0.00    +0.000 A 
ATOM     15  C   UNL     1      -3.250  11.812  18.743  0.00  0.00    +0.000 A 
BRANCH  10  17
ATOM     16  C   UNL     1      -5.835  11.307  17.757  0.00  0.00    +0.000 C 
ATOM     17  O   UNL     1      -4.718  10.665  17.152  0.00  0.00    +0.000 OA
ENDBRANCH  10  17
ENDBRANCH   9  13
ENDBRANCH   1   9
BRANCH   4  18
ATOM     18  C   UNL     1       3.294   6.178  18.860  0.00  0.00    +0.000 C 
BRANCH  18  19
ATOM     19  C   UNL     1       2.374   4.992  19.058  0.00  0.00    +0.000 A 
ATOM     20  C   UNL     1       1.684   4.429  17.972  0.00  0.00    +0.000 A 
ATOM     21  C   UNL     1       0.889   3.292  18.145  0.00  0.00    +0.000 A 
ATOM     22  C   UNL     1       0.781   2.696  19.401  0.00  0.00    +0.000 A 
ATOM     23  C   UNL     1       1.450   3.257  20.485  0.00  0.00    +0.000 A 
ATOM     24 CL   UNL     1       1.336   2.518  22.036  0.00  0.00    +0.000 Cl
ATOM     25  C   UNL     1       2.229   4.404  20.324  0.00  0.00    +0.000 A 
ENDBRANCH  18  19
ENDBRANCH   4  18
TORSDOF 5
ENDMDL
MODEL 6
REMARK VINA RESULT:      -7.5      5.453      8.285
REMARK  Name = 
REMARK  6 active torsions:
REMARK  status: ('A' for Active; 'I' for Inactive)
REMARK    1  A    between atoms: C_1  and  O_2
REMARK    2  A    between atoms: O_2  and  C_3
REMARK    3  A    between atoms: C_6  and  C_7
REMARK    4  A    between atoms: C_7  and  N_8
REMARK    5  A    between atoms: N_11  and  C_12
REMARK    6  A    between atoms: C_12  and  C_13
REMARK                            x       y       z     vdW  Elec       q    Type
REMARK                         _______ _______ _______ _____ _____    ______ ____
ROOT
ATOM      1  N   UNL     1       1.749   8.776  19.065  0.00  0.00    +0.000 N 
ATOM      2  C   UNL     1       2.289   8.320  17.878  0.00  0.00    +0.000 A 
ATOM      3  C   UNL     1       2.659   7.048  17.715  0.00  0.00    +0.000 A 
ATOM      4  N   UNL     1       2.590   6.124  18.739  0.00  0.00    +0.000 N 
ATOM      5  C   UNL     1       2.150   6.490  20.013  0.00  0.00    +0.000 A 
ATOM      6  O   UNL     1       2.257   5.782  21.008  0.00  0.00    +0.000 OA
ATOM      7  C   UNL     1       1.524   7.904  20.141  0.00  0.00    +0.000 A 
ATOM      8  O   UNL     1       0.911   8.208  21.159  0.00  0.00    +0.000 OA
ENDROOT
BRANCH   1   9
ATOM      9  C   UNL     1       1.413  10.187  19.232  0.00  0.00    +0.000 C 
BRANCH   9  13
ATOM     10  C   UNL     1      -2.667  11.296  18.294  0.00  0.00    +0.000 A 
ATOM     11  C   UNL     1      -2.018  11.845  19.404  0.00  0.00    +0.000 A 
ATOM     12  C   UNL     1      -0.708  11.474  19.715  0.00  0.00    +0.000 A 
ATOM     13  C   UNL     1      -0.026  10.532  18.937  0.00  0.00    +0.000 A 
ATOM     14  C   UNL     1      -0.697   9.961  17.841  0.00  0.00    +0.000 A 
ATOM     15  C   UNL     1      -2.006  10.342  17.527  0.00  0.00    +0.000 A 
BRANCH  10  17
ATOM     16  C   UNL     1      -4.463  11.511  16.780  0.00  0.00    +0.000 C 
ATOM     17  O   UNL     1      -3.943  11.735  18.086  0.00  0.00    +0.000 OA
ENDBRANCH  10  17
ENDBRANCH   9  13
ENDBRANCH   1   9
BRANCH   4  18
ATOM     18  C   UNL     1       3.063   4.753  18.525  0.00  0.00    +0.000 C 
BRANCH  18  19
ATOM     19  C   UNL     1       4.501   4.709  18.054  0.00  0.00    +0.000 A 
ATOM     20  C   UNL     1       4.818   4.292  16.750  0.00  0.00    +0.000 A 
ATOM     21  C   UNL     1       6.139   4.318  16.295  0.00  0.00    +0.000 A 
ATOM     22  C   UNL     1       7.160   4.773  17.129  0.00  0.00    +0.000 A 
ATOM     23  C   UNL     1       6.856   5.174  18.427  0.00  0.00    +0.000 A 
ATOM     24 CL   UNL     1       8.107   5.752  19.459  0.00  0.00    +0.000 Cl
ATOM     25  C   UNL     1       5.542   5.130  18.896  0.00  0.00    +0.000 A 
ENDBRANCH  18  19
ENDBRANCH   4  18
TORSDOF 5
ENDMDL
MODEL 7
REMARK VINA RESULT:      -7.4      5.882      8.467
REMARK  Name = 
REMARK  6 active torsions:
REMARK  status: ('A' for Active; 'I' for Inactive)
REMARK    1  A    between atoms: C_1  and  O_2
REMARK    2  A    between atoms: O_2  and  C_3
REMARK    3  A    between atoms: C_6  and  C_7
REMARK    4  A    between atoms: C_7  and  N_8
REMARK    5  A    between atoms: N_11  and  C_12
REMARK    6  A    between atoms: C_12  and  C_13
REMARK                            x       y       z     vdW  Elec       q    Type
REMARK                         _______ _______ _______ _____ _____    ______ ____
ROOT
ATOM      1  N   UNL     1       0.876   9.846  19.875  0.00  0.00    +0.000 N 
ATOM      2  C   UNL     1       0.921   8.748  20.711  0.00  0.00    +0.000 A 
ATOM      3  C   UNL     1       1.676   7.682  20.436  0.00  0.00    +0.000 A 
ATOM      4  N   UNL     1       2.405   7.579  19.268  0.00  0.00    +0.000 N 
ATOM      5  C   UNL     1       2.364   8.585  18.300  0.00  0.00    +0.000 A 
ATOM      6  O   UNL     1       2.815   8.468  17.166  0.00  0.00    +0.000 OA
ATOM      7  C   UNL     1       1.661   9.905  18.715  0.00  0.00    +0.000 A 
ATOM      8  O   UNL     1       1.786  10.905  18.015  0.00  0.00    +0.000 OA
ENDROOT
BRANCH   1   9
ATOM      9  C   UNL     1      -0.008  10.970  20.173  0.00  0.00    +0.000 C 
BRANCH   9  13
ATOM     10  C   UNL     1      -3.702  11.022  17.911  0.00  0.00    +0.000 A 
ATOM     11  C   UNL     1      -3.431  12.016  18.856  0.00  0.00    +0.000 A 
ATOM     12  C   UNL     1      -2.248  11.989  19.596  0.00  0.00    +0.000 A 
ATOM     13  C   UNL     1      -1.318  10.958  19.424  0.00  0.00    +0.000 A 
ATOM     14  C   UNL     1      -1.612   9.944  18.495  0.00  0.00    +0.000 A 
ATOM     15  C   UNL     1      -2.794   9.980  17.748  0.00  0.00    +0.000 A 
BRANCH  10  17
ATOM     16  C   UNL     1      -6.057  10.998  18.038  0.00  0.00    +0.000 C 
ATOM     17  O   UNL     1      -4.886  11.153  17.245  0.00  0.00    +0.000 OA
ENDBRANCH  10  17
ENDBRANCH   9  13
ENDBRANCH   1   9
BRANCH   4  18
ATOM     18  C   UNL     1       3.173   6.362  18.986  0.00  0.00    +0.000 C 
BRANCH  18  19
ATOM     19  C   UNL     1       2.330   5.111  19.108  0.00  0.00    +0.000 A 
ATOM     20  C   UNL     1       1.731   4.535  17.976  0.00  0.00    +0.000 A 
ATOM     21  C   UNL     1       1.010   3.341  18.080  0.00  0.00    +0.000 A 
ATOM     22  C   UNL     1       0.887   2.701  19.313  0.00  0.00    +0.000 A 
ATOM     23  C   UNL     1       1.465   3.274  20.442  0.00  0.00    +0.000 A 
ATOM     24 CL   UNL     1       1.333   2.482  21.966  0.00  0.00    +0.000 Cl
ATOM     25  C   UNL     1       2.168   4.476  20.350  0.00  0.00    +0.000 A 
ENDBRANCH  18  19
ENDBRANCH   4  18
TORSDOF 5
ENDMDL
MODEL 8
REMARK VINA RESULT:      -7.4      5.625      6.934
REMARK  Name = 
REMARK  6 active torsions:
REMARK  status: ('A' for Active; 'I' for Inactive)
REMARK    1  A    between atoms: C_1  and  O_2
REMARK    2  A    between atoms: O_2  and  C_3
REMARK    3  A    between atoms: C_6  and  C_7
REMARK    4  A    between atoms: C_7  and  N_8
REMARK    5  A    between atoms: N_11  and  C_12
REMARK    6  A    between atoms: C_12  and  C_13
REMARK                            x       y       z     vdW  Elec       q    Type
REMARK                         _______ _______ _______ _____ _____    ______ ____
ROOT
ATOM      1  N   UNL     1       2.122   7.648  19.378  0.00  0.00    +0.000 N 
ATOM      2  C   UNL     1       2.135   8.225  18.122  0.00  0.00    +0.000 A 
ATOM      3  C   UNL     1       1.529   9.388  17.874  0.00  0.00    +0.000 A 
ATOM      4  N   UNL     1       0.795  10.055  18.835  0.00  0.00    +0.000 N 
ATOM      5  C   UNL     1       0.630   9.523  20.115  0.00  0.00    +0.000 A 
ATOM      6  O   UNL     1      -0.168   9.952  20.943  0.00  0.00    +0.000 OA
ATOM      7  C   UNL     1       1.505   8.289  20.462  0.00  0.00    +0.000 A 
ATOM      8  O   UNL     1       1.589   7.911  21.626  0.00  0.00    +0.000 OA
ENDROOT
BRANCH   1   9
ATOM      9  C   UNL     1       2.741   6.345  19.601  0.00  0.00    +0.000 C 
BRANCH   9  13
ATOM     10  C   UNL     1       4.886   4.629  16.252  0.00  0.00    +0.000 A 
ATOM     11  C   UNL     1       5.235   5.887  16.752  0.00  0.00    +0.000 A 
ATOM     12  C   UNL     1       4.533   6.447  17.820  0.00  0.00    +0.000 A 
ATOM     13  C   UNL     1       3.453   5.771  18.400  0.00  0.00    +0.000 A 
ATOM     14  C   UNL     1       3.088   4.520  17.871  0.00  0.00    +0.000 A 
ATOM     15  C   UNL     1       3.801   3.959  16.806  0.00  0.00    +0.000 A 
BRANCH  10  17
ATOM     16  C   UNL     1       6.971   4.695  15.150  0.00  0.00    +0.000 C 
ATOM     17  O   UNL     1       5.645   4.182  15.209  0.00  0.00    +0.000 OA
ENDBRANCH  10  17
ENDBRANCH   9  13
ENDBRANCH   1   9
BRANCH   4  18
ATOM     18  C   UNL     1       0.100  11.301  18.496  0.00  0.00    +0.000 C 
BRANCH  18  19
ATOM     19  C   UNL     1      -1.357  11.070  18.155  0.00  0.00    +0.000 A 
ATOM     20  C   UNL     1      -1.733  10.057  17.259  0.00  0.00    +0.000 A 
ATOM     21  C   UNL     1      -3.083   9.800  16.999  0.00  0.00    +0.000 A 
ATOM     22  C   UNL     1      -4.075  10.543  17.639  0.00  0.00    +0.000 A 
ATOM     23  C   UNL     1      -3.709  11.559  18.517  0.00  0.00    +0.000 A 
ATOM     24 CL   UNL     1      -4.926  12.471  19.324  0.00  0.00    +0.000 Cl
ATOM     25  C   UNL     1      -2.364  11.835  18.765  0.00  0.00    +0.000 A 
ENDBRANCH  18  19
ENDBRANCH   4  18
TORSDOF 5
ENDMDL
MODEL 9
REMARK VINA RESULT:      -7.3      5.262      6.705
REMARK  Name = 
REMARK  6 active torsions:
REMARK  status: ('A' for Active; 'I' for Inactive)
REMARK    1  A    between atoms: C_1  and  O_2
REMARK    2  A    between atoms: O_2  and  C_3
REMARK    3  A    between atoms: C_6  and  C_7
REMARK    4  A    between atoms: C_7  and  N_8
REMARK    5  A    between atoms: N_11  and  C_12
REMARK    6  A    between atoms: C_12  and  C_13
REMARK                            x       y       z     vdW  Elec       q    Type
REMARK                         _______ _______ _______ _____ _____    ______ ____
ROOT
ATOM      1  N   UNL     1       2.291   7.073  19.264  0.00  0.00    +0.000 N 
ATOM      2  C   UNL     1       2.389   7.731  18.053  0.00  0.00    +0.000 A 
ATOM      3  C   UNL     1       1.905   8.963  17.878  0.00  0.00    +0.000 A 
ATOM      4  N   UNL     1       1.218   9.631  18.872  0.00  0.00    +0.000 N 
ATOM      5  C   UNL     1       0.972   9.031  20.109  0.00  0.00    +0.000 A 
ATOM      6  O   UNL     1       0.202   9.478  20.951  0.00  0.00    +0.000 OA
ATOM      7  C   UNL     1       1.714   7.695  20.381  0.00  0.00    +0.000 A 
ATOM      8  O   UNL     1       1.734   7.231  21.516  0.00  0.00    +0.000 OA
ENDROOT
BRANCH   1   9
ATOM      9  C   UNL     1       2.775   5.703  19.403  0.00  0.00    +0.000 C 
BRANCH   9  13
ATOM     10  C   UNL     1       6.308   4.930  17.021  0.00  0.00    +0.000 A 
ATOM     11  C   UNL     1       5.037   4.616  16.531  0.00  0.00    +0.000 A 
ATOM     12  C   UNL     1       3.900   4.850  17.306  0.00  0.00    +0.000 A 
ATOM     13  C   UNL     1       4.009   5.384  18.596  0.00  0.00    +0.000 A 
ATOM     14  C   UNL     1       5.294   5.667  19.094  0.00  0.00    +0.000 A 
ATOM     15  C   UNL     1       6.429   5.440  18.309  0.00  0.00    +0.000 A 
BRANCH  10  17
ATOM     16  C   UNL     1       7.054   4.792  14.787  0.00  0.00    +0.000 C 
ATOM     17  O   UNL     1       7.345   4.662  16.174  0.00  0.00    +0.000 OA
ENDBRANCH  10  17
ENDBRANCH   9  13
ENDBRANCH   1   9
BRANCH   4  18
ATOM     18  C   UNL     1       0.656  10.960  18.611  0.00  0.00    +0.000 C 
BRANCH  18  19
ATOM     19  C   UNL     1      -0.825  10.906  18.303  0.00  0.00    +0.000 A 
ATOM     20  C   UNL     1      -1.329  10.005  17.351  0.00  0.00    +0.000 A 
ATOM     21  C   UNL     1      -2.704   9.908  17.118  0.00  0.00    +0.000 A 
ATOM     22  C   UNL     1      -3.596  10.700  17.841  0.00  0.00    +0.000 A 
ATOM     23  C   UNL     1      -3.103  11.606  18.776  0.00  0.00    +0.000 A 
ATOM     24 CL   UNL     1      -4.197  12.577  19.685  0.00  0.00    +0.000 Cl
ATOM     25  C   UNL     1      -1.731  11.723  18.999  0.00  0.00    +0.000 A 
ENDBRANCH  18  19
ENDBRANCH   4  18
TORSDOF 5
ENDMDL
