MODEL 1
REMARK VINA RESULT:      -8.5      0.000      0.000
REMARK  Name = 
REMARK  6 active torsions:
REMARK  status: ('A' for Active; 'I' for Inactive)
REMARK    1  A    between atoms: C_2  and  C_4
REMARK    2  A    between atoms: N_9  and  C_10
REMARK    3  A    between atoms: C_10  and  C_11
REMARK    4  A    between atoms: C_14  and  O_15
REMARK    5  A    between atoms: O_15  and  C_16
REMARK    6  A    between atoms: C_16  and  C_17
REMARK                            x       y       z     vdW  Elec       q    Type
REMARK                         _______ _______ _______ _____ _____    ______ ____
ROOT
ATOM      1  C   UNL     1       5.933   5.182  18.010  0.00  0.00    +0.000 A 
ATOM      2  C   UNL     1       6.012   6.267  17.127  0.00  0.00    +0.000 A 
ATOM      3  C   UNL     1       6.991   7.235  17.283  0.00  0.00    +0.000 A 
ATOM      4  C   UNL     1       7.864   7.176  18.371  0.00  0.00    +0.000 A 
ATOM      5  C   UNL     1       7.831   6.073  19.224  0.00  0.00    +0.000 A 
ATOM      6  C   UNL     1       6.873   5.071  19.042  0.00  0.00    +0.000 A 
ENDROOT
BRANCH   1   7
ATOM      7  C   UNL     1       4.818   4.184  17.845  0.00  0.00    +0.000 C 
BRANCH   7  13
ATOM      8  C   UNL     1       2.678   4.653  18.834  0.00  0.00    +0.000 C 
ATOM      9  C   UNL     1       1.596   3.572  18.828  0.00  0.00    +0.000 C 
ATOM     10  C   UNL     1       2.366   2.293  18.596  0.00  0.00    +0.000 C 
ATOM     11  F   UNL     1       2.616   2.150  17.265  0.00  0.00    +0.000 F 
ATOM     12  C   UNL     1       3.665   2.560  19.329  0.00  0.00    +0.000 C 
ATOM     13  N   UNL     1       4.004   3.973  19.055  0.00  0.00    +0.000 NA
BRANCH   8  15
ATOM     14  N   UNL     1       2.244   5.186  21.179  0.00  0.00    +0.000 N 
ATOM     15  C   UNL     1       2.451   5.703  19.932  0.00  0.00    +0.000 C 
ATOM     16  O   UNL     1       2.487   6.913  19.733  0.00  0.00    +0.000 OA
ATOM     17  H   UNL     1       2.066   5.794  21.963  0.00  0.00    +0.000 HD
ATOM     18  H   UNL     1       2.147   4.178  21.262  0.00  0.00    +0.000 HD
ENDBRANCH   8  15
ENDBRANCH   7  13
ENDBRANCH   1   7
BRANCH   4  19
ATOM     19  O   UNL     1       8.761   8.161  18.682  0.00  0.00    +0.000 OA
BRANCH  19  20
ATOM     20  C   UNL     1       8.384   9.454  18.202  0.00  0.00    +0.000 C 
BRANCH  20  21
ATOM     21  C   UNL     1       9.358  10.482  18.707  0.00  0.00    +0.000 A 
ATOM     22  C   UNL     1       9.417  10.784  20.077  0.00  0.00    +0.000 A 
ATOM     23  C   UNL     1      10.275  11.777  20.547  0.00  0.00    +0.000 A 
ATOM     24  C   UNL     1      11.079  12.479  19.650  0.00  0.00    +0.000 A 
ATOM     25  C   UNL     1      11.015  12.181  18.294  0.00  0.00    +0.000 A 
ATOM     26  F   UNL     1      11.780  12.864  17.431  0.00  0.00    +0.000 F 
ATOM     27  C   UNL     1      10.164  11.195  17.813  0.00  0.00    +0.000 A 
ENDBRANCH  20  21
ENDBRANCH  19  20
ENDBRANCH   4  19
TORSDOF 6
ENDMDL
MODEL 2
REMARK VINA RESULT:      -8.4      6.130      8.306
REMARK  Name = 
REMARK  6 active torsions:
REMARK  status: ('A' for Active; 'I' for Inactive)
REMARK    1  A    between atoms: C_2  and  C_4
REMARK    2  A    between atoms: N_9  and  C_10
REMARK    3  A    between atoms: C_10  and  C_11
REMARK    4  A    between atoms: C_14  and  O_15
REMARK    5  A    between atoms: O_15  and  C_16
REMARK    6  A    between atoms: C_16  and  C_17
REMARK                            x       y       z     vdW  Elec       q    Type
REMARK                         _______ _______ _______ _____ _____    ______ ____
ROOT
ATOM      1  C   UNL     1       2.630   6.708  19.389  0.00  0.00    +0.000 A 
ATOM      2  C   UNL     1       1.924   7.382  20.394  0.00  0.00    +0.000 A 
ATOM      3  C   UNL     1       1.271   8.573  20.120  0.00  0.00    +0.000 A 
ATOM      4  C   UNL     1       1.375   9.152  18.854  0.00  0.00    +0.000 A 
ATOM      5  C   UNL     1       2.028   8.463  17.832  0.00  0.00    +0.000 A 
ATOM      6  C   UNL     1       2.649   7.239  18.093  0.00  0.00    +0.000 A 
ENDROOT
BRANCH   1   7
ATOM      7  C   UNL     1       3.378   5.449  19.739  0.00  0.00    +0.000 C 
BRANCH   7  13
ATOM      8  C   UNL     1       3.088   3.071  19.941  0.00  0.00    +0.000 C 
ATOM      9  C   UNL     1       1.695   2.507  20.228  0.00  0.00    +0.000 C 
ATOM     10  C   UNL     1       0.764   3.630  19.833  0.00  0.00    +0.000 C 
ATOM     11  F   UNL     1       0.685   4.532  20.850  0.00  0.00    +0.000 F 
ATOM     12  C   UNL     1       1.489   4.253  18.658  0.00  0.00    +0.000 C 
ATOM     13  N   UNL     1       2.924   4.249  19.015  0.00  0.00    +0.000 NA
BRANCH   8  15
ATOM     14  N   UNL     1       5.157   1.772  19.999  0.00  0.00    +0.000 N 
ATOM     15  C   UNL     1       4.018   2.035  19.292  0.00  0.00    +0.000 C 
ATOM     16  O   UNL     1       3.760   1.451  18.245  0.00  0.00    +0.000 OA
ATOM     17  H   UNL     1       5.841   1.121  19.646  0.00  0.00    +0.000 HD
ATOM     18  H   UNL     1       5.349   2.346  20.816  0.00  0.00    +0.000 HD
ENDBRANCH   8  15
ENDBRANCH   7  13
ENDBRANCH   1   7
BRANCH   4  19
ATOM     19  O   UNL     1       0.887  10.390  18.541  0.00  0.00    +0.000 OA
BRANCH  19  20
ATOM     20  C   UNL     1      -0.265  10.764  19.302  0.00  0.00    +0.000 C 
BRANCH  20  21
ATOM     21  C   UNL     1      -1.471  10.806  18.405  0.00  0.00    +0.000 A 
ATOM     22  C   UNL     1      -2.581  11.592  18.753  0.00  0.00    +0.000 A 
ATOM     23  C   UNL     1      -3.726  11.592  17.958  0.00  0.00    +0.000 A 
ATOM     24  C   UNL     1      -3.772  10.802  16.810  0.00  0.00    +0.000 A 
ATOM     25  C   UNL     1      -2.673  10.021  16.471  0.00  0.00    +0.000 A 
ATOM     26  F   UNL     1      -2.722   9.253  15.374  0.00  0.00    +0.000 F 
ATOM     27  C   UNL     1      -1.527  10.012  17.255  0.00  0.00    +0.000 A 
ENDBRANCH  20  21
ENDBRANCH  19  20
ENDBRANCH   4  19
TORSDOF 6
ENDMDL
MODEL 3
REMARK VINA RESULT:      -8.4      5.533      7.583
REMARK  Name = 
REMARK  6 active torsions:
REMARK  status: ('A' for Active; 'I' for Inactive)
REMARK    1  A    between atoms: C_2  and  C_4
REMARK    2  A    between atoms: N_9  and  C_10
REMARK    3  A    between atoms: C_10  and  C_11
REMARK    4  A    between atoms: C_14  and  O_15
REMARK    5  A    between atoms: O_15  and  C_16
REMARK    6  A    between atoms: C_16  and  C_17
REMARK                            x       y       z     vdW  Elec       q    Type
REMARK                         _______ _______ _______ _____ _____    ______ ____
ROOT
ATOM      1  C   UNL     1       3.943   5.007  17.572  0.00  0.00    +0.000 A 
ATOM      2  C   UNL     1       4.464   3.895  16.899  0.00  0.00    +0.000 A 
ATOM      3  C   UNL     1       5.310   4.060  15.813  0.00  0.00    +0.000 A 
ATOM      4  C   UNL     1       5.590   5.342  15.335  0.00  0.00    +0.000 A 
ATOM      5  C   UNL     1       5.122   6.456  16.031  0.00  0.00    +0.000 A 
ATOM      6  C   UNL     1       4.306   6.293  17.153  0.00  0.00    +0.000 A 
ENDROOT
BRANCH   1   7
ATOM      7  C   UNL     1       2.979   4.789  18.708  0.00  0.00    +0.000 C 
BRANCH   7  13
ATOM      8  C   UNL     1       3.354   3.116  20.394  0.00  0.00    +0.000 C 
ATOM      9  C   UNL     1       2.223   2.756  21.358  0.00  0.00    +0.000 C 
ATOM     10  C   UNL     1       0.981   3.251  20.655  0.00  0.00    +0.000 C 
ATOM     11  F   UNL     1       0.837   4.587  20.876  0.00  0.00    +0.000 F 
ATOM     12  C   UNL     1       1.315   3.010  19.198  0.00  0.00    +0.000 C 
ATOM     13  N   UNL     1       2.740   3.373  19.042  0.00  0.00    +0.000 NA
BRANCH   8  15
ATOM     14  N   UNL     1       4.412   1.353  19.072  0.00  0.00    +0.000 N 
ATOM     15  C   UNL     1       4.403   1.999  20.276  0.00  0.00    +0.000 C 
ATOM     16  O   UNL     1       5.200   1.719  21.164  0.00  0.00    +0.000 OA
ATOM     17  H   UNL     1       5.051   0.592  18.904  0.00  0.00    +0.000 HD
ATOM     18  H   UNL     1       3.675   1.579  18.410  0.00  0.00    +0.000 HD
ENDBRANCH   8  15
ENDBRANCH   7  13
ENDBRANCH   1   7
BRANCH   4  19
ATOM     19  O   UNL     1       6.293   5.589  14.188  0.00  0.00    +0.000 OA
BRANCH  19  20
ATOM     20  C   UNL     1       7.052   4.469  13.725  0.00  0.00    +0.000 C 
BRANCH  20  21
ATOM     21  C   UNL     1       6.243   3.692  12.723  0.00  0.00    +0.000 A 
ATOM     22  C   UNL     1       4.949   4.117  12.381  0.00  0.00    +0.000 A 
ATOM     23  C   UNL     1       4.169   3.372  11.497  0.00  0.00    +0.000 A 
ATOM     24  C   UNL     1       4.677   2.193  10.952  0.00  0.00    +0.000 A 
ATOM     25  C   UNL     1       5.956   1.773  11.296  0.00  0.00    +0.000 A 
ATOM     26  F   UNL     1       6.438   0.634  10.780  0.00  0.00    +0.000 F 
ATOM     27  C   UNL     1       6.742   2.507  12.175  0.00  0.00    +0.000 A 
ENDBRANCH  20  21
ENDBRANCH  19  20
ENDBRANCH   4  19
TORSDOF 6
ENDMDL
MODEL 4
REMARK VINA RESULT:      -8.4      5.978      8.276
REMARK  Name = 
REMARK  6 active torsions:
REMARK  status: ('A' for Active; 'I' for Inactive)
REMARK    1  A    between atoms: C_2  and  C_4
REMARK    2  A    between atoms: N_9  and  C_10
REMARK    3  A    between atoms: C_10  and  C_11
REMARK    4  A    between atoms: C_14  and  O_15
REMARK    5  A    between atoms: O_15  and  C_16
REMARK    6  A    between atoms: C_16  and  C_17
REMARK                            x       y       z     vdW  Elec       q    Type
REMARK                         _______ _______ _______ _____ _____    ______ ____
ROOT
ATOM      1  C   UNL     1       2.721   6.596  19.249  0.00  0.00    +0.000 A 
ATOM      2  C   UNL     1       2.964   7.173  17.996  0.00  0.00    +0.000 A 
ATOM      3  C   UNL     1       2.449   8.421  17.682  0.00  0.00    +0.000 A 
ATOM      4  C   UNL     1       1.619   9.082  18.588  0.00  0.00    +0.000 A 
ATOM      5  C   UNL     1       1.416   8.544  19.859  0.00  0.00    +0.000 A 
ATOM      6  C   UNL     1       1.972   7.306  20.195  0.00  0.00    +0.000 A 
ENDROOT
BRANCH   1   7
ATOM      7  C   UNL     1       3.245   5.213  19.531  0.00  0.00    +0.000 C 
BRANCH   7  13
ATOM      8  C   UNL     1       2.995   2.822  19.506  0.00  0.00    +0.000 C 
ATOM      9  C   UNL     1       2.253   2.134  20.653  0.00  0.00    +0.000 C 
ATOM     10  C   UNL     1       1.449   3.248  21.281  0.00  0.00    +0.000 C 
ATOM     11  F   UNL     1       2.244   3.958  22.129  0.00  0.00    +0.000 F 
ATOM     12  C   UNL     1       1.092   4.104  20.084  0.00  0.00    +0.000 C 
ATOM     13  N   UNL     1       2.296   4.127  19.226  0.00  0.00    +0.000 NA
BRANCH   8  15
ATOM     14  N   UNL     1       3.891   0.918  18.264  0.00  0.00    +0.000 N 
ATOM     15  C   UNL     1       3.020   1.970  18.229  0.00  0.00    +0.000 C 
ATOM     16  O   UNL     1       2.297   2.176  17.260  0.00  0.00    +0.000 OA
ATOM     17  H   UNL     1       3.995   0.311  17.465  0.00  0.00    +0.000 HD
ATOM     18  H   UNL     1       4.516   0.849  19.062  0.00  0.00    +0.000 HD
ENDBRANCH   8  15
ENDBRANCH   7  13
ENDBRANCH   1   7
BRANCH   4  19
ATOM     19  O   UNL     1       0.954  10.244  18.305  0.00  0.00    +0.000 OA
BRANCH  19  20
ATOM     20  C   UNL     1      -0.145  10.506  19.182  0.00  0.00    +0.000 C 
BRANCH  20  21
ATOM     21  C   UNL     1      -1.408  10.645  18.379  0.00  0.00    +0.000 A 
ATOM     22  C   UNL     1      -2.431  11.502  18.818  0.00  0.00    +0.000 A 
ATOM     23  C   UNL     1      -3.630  11.594  18.112  0.00  0.00    +0.000 A 
ATOM     24  C   UNL     1      -3.816  10.827  16.962  0.00  0.00    +0.000 A 
ATOM     25  C   UNL     1      -2.803   9.977  16.532  0.00  0.00    +0.000 A 
ATOM     26  F   UNL     1      -2.988   9.233  15.434  0.00  0.00    +0.000 F 
ATOM     27  C   UNL     1      -1.606   9.877  17.228  0.00  0.00    +0.000 A 
ENDBRANCH  20  21
ENDBRANCH  19  20
ENDBRANCH   4  19
TORSDOF 6
ENDMDL
MODEL 5
REMARK VINA RESULT:      -8.2      5.942      8.727
REMARK  Name = 
REMARK  6 active torsions:
REMARK  status: ('A' for Active; 'I' for Inactive)
REMARK    1  A    between atoms: C_2  and  C_4
REMARK    2  A    between atoms: N_9  and  C_10
REMARK    3  A    between atoms: C_10  and  C_11
REMARK    4  A    between atoms: C_14  and  O_15
REMARK    5  A    between atoms: O_15  and  C_16
REMARK    6  A    between atoms: C_16  and  C_17
REMARK                            x       y       z     vdW  Elec       q    Type
REMARK                         _______ _______ _______ _____ _____    ______ ____
ROOT
ATOM      1  C   UNL     1       2.129   7.238  19.741  0.00  0.00    +0.000 A 
ATOM      2  C   UNL     1       2.284   7.683  18.422  0.00  0.00    +0.000 A 
ATOM      3  C   UNL     1       1.734   8.889  18.015  0.00  0.00    +0.000 A 
ATOM      4  C   UNL     1       0.955   9.635  18.900  0.00  0.00    +0.000 A 
ATOM      5  C   UNL     1       0.841   9.230  20.230  0.00  0.00    +0.000 A 
ATOM      6  C   UNL     1       1.433   8.037  20.655  0.00  0.00    +0.000 A 
ENDROOT
BRANCH   1   7
ATOM      7  C   UNL     1       2.688   5.895  20.129  0.00  0.00    +0.000 C 
BRANCH   7  13
ATOM      8  C   UNL     1       3.677   3.799  19.488  0.00  0.00    +0.000 C 
ATOM      9  C   UNL     1       2.816   2.534  19.484  0.00  0.00    +0.000 C 
ATOM     10  C   UNL     1       1.401   3.062  19.444  0.00  0.00    +0.000 C 
ATOM     11  F   UNL     1       1.010   3.408  20.701  0.00  0.00    +0.000 F 
ATOM     12  C   UNL     1       1.545   4.309  18.597  0.00  0.00    +0.000 C 
ATOM     13  N   UNL     1       2.816   4.941  19.013  0.00  0.00    +0.000 NA
BRANCH   8  15
ATOM     14  N   UNL     1       4.688   2.995  17.414  0.00  0.00    +0.000 N 
ATOM     15  C   UNL     1       4.908   3.673  18.579  0.00  0.00    +0.000 C 
ATOM     16  O   UNL     1       6.000   4.167  18.841  0.00  0.00    +0.000 OA
ATOM     17  H   UNL     1       5.439   2.843  16.759  0.00  0.00    +0.000 HD
ATOM     18  H   UNL     1       3.785   2.544  17.294  0.00  0.00    +0.000 HD
ENDBRANCH   8  15
ENDBRANCH   7  13
ENDBRANCH   1   7
BRANCH   4  19
ATOM     19  O   UNL     1       0.259  10.757  18.543  0.00  0.00    +0.000 OA
BRANCH  19  20
ATOM     20  C   UNL     1      -1.061  10.813  19.090  0.00  0.00    +0.000 C 
BRANCH  20  21
ATOM     21  C   UNL     1      -2.071  10.740  17.979  0.00  0.00    +0.000 A 
ATOM     22  C   UNL     1      -1.848   9.896  16.879  0.00  0.00    +0.000 A 
ATOM     23  C   UNL     1      -2.750   9.865  15.816  0.00  0.00    +0.000 A 
ATOM     24  C   UNL     1      -3.882  10.680  15.845  0.00  0.00    +0.000 A 
ATOM     25  C   UNL     1      -4.098  11.516  16.933  0.00  0.00    +0.000 A 
ATOM     26  F   UNL     1      -5.179  12.307  16.954  0.00  0.00    +0.000 F 
ATOM     27  C   UNL     1      -3.206  11.557  17.997  0.00  0.00    +0.000 A 
ENDBRANCH  20  21
ENDBRANCH  19  20
ENDBRANCH   4  19
TORSDOF 6
ENDMDL
MODEL 6
REMARK VINA RESULT:      -8.2      0.694      1.187
REMARK  Name = 
REMARK  6 active torsions:
REMARK  status: ('A' for Active; 'I' for Inactive)
REMARK    1  A    between atoms: C_2  and  C_4
REMARK    2  A    between atoms: N_9  and  C_10
REMARK    3  A    between atoms: C_10  and  C_11
REMARK    4  A    between atoms: C_14  and  O_15
REMARK    5  A    between atoms: O_15  and  C_16
REMARK    6  A    between atoms: C_16  and  C_17
REMARK                            x       y       z     vdW  Elec       q    Type
REMARK                         _______ _______ _______ _____ _____    ______ ____
ROOT
ATOM      1  C   UNL     1       5.718   5.169  18.037  0.00  0.00    +0.000 A 
ATOM      2  C   UNL     1       6.732   5.025  18.993  0.00  0.00    +0.000 A 
ATOM      3  C   UNL     1       7.697   6.008  19.151  0.00  0.00    +0.000 A 
ATOM      4  C   UNL     1       7.709   7.117  18.304  0.00  0.00    +0.000 A 
ATOM      5  C   UNL     1       6.672   7.298  17.388  0.00  0.00    +0.000 A 
ATOM      6  C   UNL     1       5.672   6.331  17.258  0.00  0.00    +0.000 A 
ENDROOT
BRANCH   1   7
ATOM      7  C   UNL     1       4.724   4.053  17.853  0.00  0.00    +0.000 C 
BRANCH   7  13
ATOM      8  C   UNL     1       2.535   4.641  18.655  0.00  0.00    +0.000 C 
ATOM      9  C   UNL     1       1.393   3.632  18.526  0.00  0.00    +0.000 C 
ATOM     10  C   UNL     1       2.101   2.311  18.336  0.00  0.00    +0.000 C 
ATOM     11  F   UNL     1       2.462   2.174  17.030  0.00  0.00    +0.000 F 
ATOM     12  C   UNL     1       3.340   2.481  19.189  0.00  0.00    +0.000 C 
ATOM     13  N   UNL     1       3.791   3.874  18.979  0.00  0.00    +0.000 NA
BRANCH   8  15
ATOM     14  N   UNL     1       2.542   6.974  19.384  0.00  0.00    +0.000 N 
ATOM     15  C   UNL     1       2.275   5.685  19.751  0.00  0.00    +0.000 C 
ATOM     16  O   UNL     1       1.829   5.410  20.859  0.00  0.00    +0.000 OA
ATOM     17  H   UNL     1       2.422   7.730  20.040  0.00  0.00    +0.000 HD
ATOM     18  H   UNL     1       2.984   7.125  18.481  0.00  0.00    +0.000 HD
ENDBRANCH   8  15
ENDBRANCH   7  13
ENDBRANCH   1   7
BRANCH   4  19
ATOM     19  O   UNL     1       8.702   8.057  18.294  0.00  0.00    +0.000 OA
BRANCH  19  20
ATOM     20  C   UNL     1       8.228   9.394  18.112  0.00  0.00    +0.000 C 
BRANCH  20  21
ATOM     21  C   UNL     1       9.229  10.365  18.673  0.00  0.00    +0.000 A 
ATOM     22  C   UNL     1       9.303  10.579  20.059  0.00  0.00    +0.000 A 
ATOM     23  C   UNL     1      10.188  11.520  20.584  0.00  0.00    +0.000 A 
ATOM     24  C   UNL     1      11.003  12.257  19.727  0.00  0.00    +0.000 A 
ATOM     25  C   UNL     1      10.924  12.047  18.355  0.00  0.00    +0.000 A 
ATOM     26  F   UNL     1      11.700  12.765  17.532  0.00  0.00    +0.000 F 
ATOM     27  C   UNL     1      10.046  11.113  17.820  0.00  0.00    +0.000 A 
ENDBRANCH  20  21
ENDBRANCH  19  20
ENDBRANCH   4  19
TORSDOF 6
ENDMDL
MODEL 7
REMARK VINA RESULT:      -8.1      6.101      8.504
REMARK  Name = 
REMARK  6 active torsions:
REMARK  status: ('A' for Active; 'I' for Inactive)
REMARK    1  A    between atoms: C_2  and  C_4
REMARK    2  A    between atoms: N_9  and  C_10
REMARK    3  A    between atoms: C_10  and  C_11
REMARK    4  A    between atoms: C_14  and  O_15
REMARK    5  A    between atoms: O_15  and  C_16
REMARK    6  A    between atoms: C_16  and  C_17
REMARK                            x       y       z     vdW  Elec       q    Type
REMARK                         _______ _______ _______ _____ _____    ______ ____
ROOT
ATOM      1  C   UNL     1       2.498   6.997  19.599  0.00  0.00    +0.000 A 
ATOM      2  C   UNL     1       2.734   7.460  18.299  0.00  0.00    +0.000 A 
ATOM      3  C   UNL     1       2.144   8.630  17.849  0.00  0.00    +0.000 A 
ATOM      4  C   UNL     1       1.247   9.319  18.667  0.00  0.00    +0.000 A 
ATOM      5  C   UNL     1       1.048   8.899  19.982  0.00  0.00    +0.000 A 
ATOM      6  C   UNL     1       1.678   7.743  20.453  0.00  0.00    +0.000 A 
ENDROOT
BRANCH   1   7
ATOM      7  C   UNL     1       3.107   5.689  20.032  0.00  0.00    +0.000 C 
BRANCH   7  13
ATOM      8  C   UNL     1       3.091   3.291  19.862  0.00  0.00    +0.000 C 
ATOM      9  C   UNL     1       1.755   2.546  19.896  0.00  0.00    +0.000 C 
ATOM     10  C   UNL     1       0.741   3.611  19.551  0.00  0.00    +0.000 C 
ATOM     11  F   UNL     1       0.446   4.334  20.667  0.00  0.00    +0.000 F 
ATOM     12  C   UNL     1       1.503   4.479  18.572  0.00  0.00    +0.000 C 
ATOM     13  N   UNL     1       2.882   4.572  19.097  0.00  0.00    +0.000 NA
BRANCH   8  15
ATOM     14  N   UNL     1       5.407   3.111  19.103  0.00  0.00    +0.000 N 
ATOM     15  C   UNL     1       4.204   2.470  19.193  0.00  0.00    +0.000 C 
ATOM     16  O   UNL     1       4.056   1.319  18.798  0.00  0.00    +0.000 OA
ATOM     17  H   UNL     1       6.195   2.663  18.661  0.00  0.00    +0.000 HD
ATOM     18  H   UNL     1       5.442   4.090  19.375  0.00  0.00    +0.000 HD
ENDBRANCH   8  15
ENDBRANCH   7  13
ENDBRANCH   1   7
BRANCH   4  19
ATOM     19  O   UNL     1       0.512  10.397  18.254  0.00  0.00    +0.000 OA
BRANCH  19  20
ATOM     20  C   UNL     1      -0.655  10.635  19.045  0.00  0.00    +0.000 C 
BRANCH  20  21
ATOM     21  C   UNL     1      -1.855  10.759  18.148  0.00  0.00    +0.000 A 
ATOM     22  C   UNL     1      -2.951  11.545  18.543  0.00  0.00    +0.000 A 
ATOM     23  C   UNL     1      -4.092  11.619  17.745  0.00  0.00    +0.000 A 
ATOM     24  C   UNL     1      -4.149  10.905  16.549  0.00  0.00    +0.000 A 
ATOM     25  C   UNL     1      -3.065  10.125  16.164  0.00  0.00    +0.000 A 
ATOM     26  F   UNL     1      -3.125   9.430  15.020  0.00  0.00    +0.000 F 
ATOM     27  C   UNL     1      -1.923  10.042  16.950  0.00  0.00    +0.000 A 
ENDBRANCH  20  21
ENDBRANCH  19  20
ENDBRANCH   4  19
TORSDOF 6
ENDMDL
MODEL 8
REMARK VINA RESULT:      -8.1      0.974      1.024
REMARK  Name = 
REMARK  6 active torsions:
REMARK  status: ('A' for Active; 'I' for Inactive)
REMARK    1  A    between atoms: C_2  and  C_4
REMARK    2  A    between atoms: N_9  and  C_10
REMARK    3  A    between atoms: C_10  and  C_11
REMARK    4  A    between atoms: C_14  and  O_15
REMARK    5  A    between atoms: O_15  and  C_16
REMARK    6  A    between atoms: C_16  and  C_17
REMARK                            x       y       z     vdW  Elec       q    Type
REMARK                         _______ _______ _______ _____ _____    ______ ____
ROOT
ATOM      1  C   UNL     1       5.699   5.241  17.861  0.00  0.00    +0.000 A 
ATOM      2  C   UNL     1       5.638   6.416  17.101  0.00  0.00    +0.000 A 
ATOM      3  C   UNL     1       6.616   7.390  17.228  0.00  0.00    +0.000 A 
ATOM      4  C   UNL     1       7.633   7.239  18.172  0.00  0.00    +0.000 A 
ATOM      5  C   UNL     1       7.735   6.049  18.893  0.00  0.00    +0.000 A 
ATOM      6  C   UNL     1       6.775   5.046  18.734  0.00  0.00    +0.000 A 
ENDROOT
BRANCH   1   7
ATOM      7  C   UNL     1       4.585   4.234  17.741  0.00  0.00    +0.000 C 
BRANCH   7  13
ATOM      8  C   UNL     1       2.507   3.696  18.824  0.00  0.00    +0.000 C 
ATOM      9  C   UNL     1       2.130   2.229  19.037  0.00  0.00    +0.000 C 
ATOM     10  C   UNL     1       3.446   1.498  18.910  0.00  0.00    +0.000 C 
ATOM     11  F   UNL     1       3.733   1.305  17.593  0.00  0.00    +0.000 F 
ATOM     12  C   UNL     1       4.426   2.490  19.502  0.00  0.00    +0.000 C 
ATOM     13  N   UNL     1       3.994   3.822  19.027  0.00  0.00    +0.000 NA
BRANCH   8  15
ATOM     14  N   UNL     1       0.688   4.084  20.409  0.00  0.00    +0.000 N 
ATOM     15  C   UNL     1       1.776   4.636  19.793  0.00  0.00    +0.000 C 
ATOM     16  O   UNL     1       2.143   5.780  20.038  0.00  0.00    +0.000 OA
ATOM     17  H   UNL     1       0.131   4.628  21.049  0.00  0.00    +0.000 HD
ATOM     18  H   UNL     1       0.391   3.161  20.104  0.00  0.00    +0.000 HD
ENDBRANCH   8  15
ENDBRANCH   7  13
ENDBRANCH   1   7
BRANCH   4  19
ATOM     19  O   UNL     1       8.551   8.210  18.464  0.00  0.00    +0.000 OA
BRANCH  19  20
ATOM     20  C   UNL     1       8.319   9.445  17.781  0.00  0.00    +0.000 C 
BRANCH  20  21
ATOM     21  C   UNL     1       9.010  10.562  18.511  0.00  0.00    +0.000 A 
ATOM     22  C   UNL     1       9.431  10.382  19.839  0.00  0.00    +0.000 A 
ATOM     23  C   UNL     1      10.020  11.431  20.544  0.00  0.00    +0.000 A 
ATOM     24  C   UNL     1      10.188  12.670  19.928  0.00  0.00    +0.000 A 
ATOM     25  C   UNL     1       9.766  12.847  18.615  0.00  0.00    +0.000 A 
ATOM     26  F   UNL     1       9.919  14.041  18.028  0.00  0.00    +0.000 F 
ATOM     27  C   UNL     1       9.178  11.810  17.903  0.00  0.00    +0.000 A 
ENDBRANCH  20  21
ENDBRANCH  19  20
ENDBRANCH   4  19
TORSDOF 6
ENDMDL
MODEL 9
REMARK VINA RESULT:      -8.1      5.303      7.137
REMARK  Name = 
REMARK  6 active torsions:
REMARK  status: ('A' for Active; 'I' for Inactive)
REMARK    1  A    between atoms: C_2  and  C_4
REMARK    2  A    between atoms: N_9  and  C_10
REMARK    3  A    between atoms: C_10  and  C_11
REMARK    4  A    between atoms: C_14  and  O_15
REMARK    5  A    between atoms: O_15  and  C_16
REMARK    6  A    between atoms: C_16  and  C_17
REMARK                            x       y       z     vdW  Elec       q    Type
REMARK                         _______ _______ _______ _____ _____    ______ ____
ROOT
ATOM      1  C   UNL     1       4.820   5.151  18.247  0.00  0.00    +0.000 A 
ATOM      2  C   UNL     1       6.099   4.654  18.530  0.00  0.00    +0.000 A 
ATOM      3  C   UNL     1       7.053   4.548  17.530  0.00  0.00    +0.000 A 
ATOM      4  C   UNL     1       6.720   4.867  16.212  0.00  0.00    +0.000 A 
ATOM      5  C   UNL     1       5.469   5.415  15.928  0.00  0.00    +0.000 A 
ATOM      6  C   UNL     1       4.521   5.566  16.943  0.00  0.00    +0.000 A 
ENDROOT
BRANCH   1   7
ATOM      7  C   UNL     1       3.792   5.194  19.346  0.00  0.00    +0.000 C 
BRANCH   7  13
ATOM      8  C   UNL     1       3.091   2.903  19.553  0.00  0.00    +0.000 C 
ATOM      9  C   UNL     1       2.253   2.482  20.761  0.00  0.00    +0.000 C 
ATOM     10  C   UNL     1       1.687   3.784  21.278  0.00  0.00    +0.000 C 
ATOM     11  F   UNL     1       2.618   4.406  22.053  0.00  0.00    +0.000 F 
ATOM     12  C   UNL     1       1.478   4.575  20.003  0.00  0.00    +0.000 C 
ATOM     13  N   UNL     1       2.649   4.285  19.147  0.00  0.00    +0.000 NA
BRANCH   8  15
ATOM     14  N   UNL     1       3.823   0.911  18.342  0.00  0.00    +0.000 N 
ATOM     15  C   UNL     1       2.930   1.944  18.364  0.00  0.00    +0.000 C 
ATOM     16  O   UNL     1       2.054   2.057  17.513  0.00  0.00    +0.000 OA
ATOM     17  H   UNL     1       3.812   0.239  17.590  0.00  0.00    +0.000 HD
ATOM     18  H   UNL     1       4.572   0.920  19.029  0.00  0.00    +0.000 HD
ENDBRANCH   8  15
ENDBRANCH   7  13
ENDBRANCH   1   7
BRANCH   4  19
ATOM     19  O   UNL     1       7.550   4.656  15.145  0.00  0.00    +0.000 OA
BRANCH  19  20
ATOM     20  C   UNL     1       7.113   5.292  13.941  0.00  0.00    +0.000 C 
BRANCH  20  21
ATOM     21  C   UNL     1       6.554   4.262  13.000  0.00  0.00    +0.000 A 
ATOM     22  C   UNL     1       5.165   4.080  12.899  0.00  0.00    +0.000 A 
ATOM     23  C   UNL     1       4.639   3.088  12.073  0.00  0.00    +0.000 A 
ATOM     24  C   UNL     1       5.498   2.267  11.344  0.00  0.00    +0.000 A 
ATOM     25  C   UNL     1       6.872   2.446  11.450  0.00  0.00    +0.000 A 
ATOM     26  F   UNL     1       7.697   1.649  10.758  0.00  0.00    +0.000 F 
ATOM     27  C   UNL     1       7.408   3.430  12.270  0.00  0.00    +0.000 A 
ENDBRANCH  20  21
ENDBRANCH  19  20
ENDBRANCH   4  19
TORSDOF 6
ENDMDL
