MODEL 1
REMARK VINA RESULT:      -7.1      0.000      0.000
REMARK  Name = 
REMARK  11 active torsions:
REMARK  status: ('A' for Active; 'I' for Inactive)
REMARK    1  A    between atoms: C_1  and  O_2
REMARK    2  A    between atoms: O_2  and  C_3
REMARK    3  A    between atoms: C_5  and  O_6
REMARK    4  A    between atoms: C_7  and  C_8
REMARK    5  A    between atoms: C_13  and  O_14
REMARK    6  A    between atoms: C_20  and  O_21
REMARK    7  A    between atoms: O_21  and  C_22
REMARK    8  A    between atoms: C_23  and  C_24
REMARK    9  A    between atoms: C_24  and  C_25
REMARK   10  A    between atoms: C_26  and  C_27
REMARK   11  A    between atoms: C_26  and  C_28
REMARK                            x       y       z     vdW  Elec       q    Type
REMARK                         _______ _______ _______ _____ _____    ______ ____
ROOT
ATOM      1  C   UNL     1       1.441   7.761  20.744  0.00  0.00    +0.000 A 
ATOM      2  C   UNL     1       1.533   6.436  21.215  0.00  0.00    +0.000 A 
ATOM      3  C   UNL     1       2.068   5.410  20.440  0.00  0.00    +0.000 A 
ATOM      4  C   UNL     1       2.492   5.654  19.133  0.00  0.00    +0.000 A 
ATOM      5  C   UNL     1       2.218   6.937  18.582  0.00  0.00    +0.000 A 
ATOM      6  C   UNL     1       1.776   8.031  19.403  0.00  0.00    +0.000 A 
ENDROOT
BRANCH   4   7
ATOM      7  C   UNL     1       3.659   4.895  18.622  0.00  0.00    +0.000 A 
ATOM      8  C   UNL     1       4.833   5.341  19.096  0.00  0.00    +0.000 A 
ATOM      9  O   UNL     1       6.068   5.016  18.612  0.00  0.00    +0.000 OA
ATOM     10  C   UNL     1       6.069   4.668  17.289  0.00  0.00    +0.000 A 
ATOM     11  C   UNL     1       7.131   5.136  16.529  0.00  0.00    +0.000 A 
ATOM     12  C   UNL     1       7.121   4.899  15.165  0.00  0.00    +0.000 A 
ATOM     13  C   UNL     1       6.140   4.096  14.586  0.00  0.00    +0.000 A 
ATOM     14  C   UNL     1       5.069   3.620  15.361  0.00  0.00    +0.000 A 
ATOM     15  C   UNL     1       4.999   3.978  16.711  0.00  0.00    +0.000 A 
ATOM     16  C   UNL     1       3.729   3.901  17.506  0.00  0.00    +0.000 A 
ATOM     17  O   UNL     1       2.799   3.192  17.161  0.00  0.00    +0.000 OA
BRANCH  12  18
ATOM     18  O   UNL     1       8.045   5.492  14.359  0.00  0.00    +0.000 OA
ATOM     19  H   UNL     1       8.872   4.980  14.418  0.00  0.00    +0.000 HD
ENDBRANCH  12  18
ENDBRANCH   4   7
BRANCH   1  21
ATOM     20  C   UNL     1      -0.251   8.910  22.122  0.00  0.00    +0.000 C 
ATOM     21  O   UNL     1       1.077   8.571  21.781  0.00  0.00    +0.000 OA
ENDBRANCH   1  21
BRANCH   3  22
ATOM     22  O   UNL     1       2.309   4.192  21.016  0.00  0.00    +0.000 OA
ATOM     23  H   UNL     1       1.500   3.884  21.457  0.00  0.00    +0.000 HD
ENDBRANCH   3  22
BRANCH   5  24
ATOM     24  O   UNL     1       2.557   7.272  17.286  0.00  0.00    +0.000 OA
ATOM     25  C   UNL     1       3.895   7.717  17.073  0.00  0.00    +0.000 C 
ENDBRANCH   5  24
BRANCH   6  26
ATOM     26  C   UNL     1       1.812   9.423  18.785  0.00  0.00    +0.000 C 
BRANCH  26  27
ATOM     27  C   UNL     1       0.470   9.982  18.402  0.00  0.00    +0.000 C 
ATOM     28  C   UNL     1      -0.135  11.042  18.980  0.00  0.00    +0.000 C 
ATOM     29  C   UNL     1       0.476  11.899  20.056  0.00  0.00    +0.000 C 
ATOM     30  C   UNL     1      -1.524  11.457  18.575  0.00  0.00    +0.000 C 
ENDBRANCH  26  27
ENDBRANCH   6  26
TORSDOF 7
ENDMDL
MODEL 2
REMARK VINA RESULT:      -6.9      2.946      6.161
REMARK  Name = 
REMARK  11 active torsions:
REMARK  status: ('A' for Active; 'I' for Inactive)
REMARK    1  A    between atoms: C_1  and  O_2
REMARK    2  A    between atoms: O_2  and  C_3
REMARK    3  A    between atoms: C_5  and  O_6
REMARK    4  A    between atoms: C_7  and  C_8
REMARK    5  A    between atoms: C_13  and  O_14
REMARK    6  A    between atoms: C_20  and  O_21
REMARK    7  A    between atoms: O_21  and  C_22
REMARK    8  A    between atoms: C_23  and  C_24
REMARK    9  A    between atoms: C_24  and  C_25
REMARK   10  A    between atoms: C_26  and  C_27
REMARK   11  A    between atoms: C_26  and  C_28
REMARK                            x       y       z     vdW  Elec       q    Type
REMARK                         _______ _______ _______ _____ _____    ______ ____
ROOT
ATOM      1  C   UNL     1      -2.772  11.986  19.123  0.00  0.00    +0.000 A 
ATOM      2  C   UNL     1      -2.556  10.930  18.215  0.00  0.00    +0.000 A 
ATOM      3  C   UNL     1      -1.287  10.408  17.976  0.00  0.00    +0.000 A 
ATOM      4  C   UNL     1      -0.165  10.954  18.600  0.00  0.00    +0.000 A 
ATOM      5  C   UNL     1      -0.349  12.143  19.359  0.00  0.00    +0.000 A 
ATOM      6  C   UNL     1      -1.659  12.622  19.706  0.00  0.00    +0.000 A 
ENDROOT
BRANCH   4   7
ATOM      7  C   UNL     1       0.947  10.042  18.965  0.00  0.00    +0.000 A 
ATOM      8  C   UNL     1       1.783   9.788  17.946  0.00  0.00    +0.000 A 
ATOM      9  O   UNL     1       2.726   8.801  17.912  0.00  0.00    +0.000 OA
ATOM     10  C   UNL     1       2.432   7.727  18.706  0.00  0.00    +0.000 A 
ATOM     11  C   UNL     1       2.723   6.475  18.183  0.00  0.00    +0.000 A 
ATOM     12  C   UNL     1       2.347   5.355  18.904  0.00  0.00    +0.000 A 
ATOM     13  C   UNL     1       1.810   5.476  20.185  0.00  0.00    +0.000 A 
ATOM     14  C   UNL     1       1.521   6.746  20.712  0.00  0.00    +0.000 A 
ATOM     15  C   UNL     1       1.767   7.877  19.927  0.00  0.00    +0.000 A 
ATOM     16  C   UNL     1       1.122   9.205  20.193  0.00  0.00    +0.000 A 
ATOM     17  O   UNL     1       0.660   9.485  21.286  0.00  0.00    +0.000 OA
BRANCH  12  18
ATOM     18  O   UNL     1       2.449   4.116  18.349  0.00  0.00    +0.000 OA
ATOM     19  H   UNL     1       3.391   3.939  18.173  0.00  0.00    +0.000 HD
ENDBRANCH  12  18
ENDBRANCH   4   7
BRANCH   1  21
ATOM     20  C   UNL     1      -5.110  11.780  18.367  0.00  0.00    +0.000 C 
ATOM     21  O   UNL     1      -4.117  12.141  19.302  0.00  0.00    +0.000 OA
ENDBRANCH   1  21
BRANCH   3  22
ATOM     22  O   UNL     1      -1.163   9.263  17.236  0.00  0.00    +0.000 OA
ATOM     23  H   UNL     1      -0.253   9.203  16.896  0.00  0.00    +0.000 HD
ENDBRANCH   3  22
BRANCH   5  24
ATOM     24  O   UNL     1       0.700  12.790  19.984  0.00  0.00    +0.000 OA
ATOM     25  C   UNL     1       1.559  13.563  19.148  0.00  0.00    +0.000 C 
ENDBRANCH   5  24
BRANCH   6  26
ATOM     26  C   UNL     1      -1.743  13.709  20.768  0.00  0.00    +0.000 C 
BRANCH  26  27
ATOM     27  C   UNL     1      -2.706  13.429  21.889  0.00  0.00    +0.000 C 
ATOM     28  C   UNL     1      -2.538  12.504  22.858  0.00  0.00    +0.000 C 
ATOM     29  C   UNL     1      -1.307  11.653  23.030  0.00  0.00    +0.000 C 
ATOM     30  C   UNL     1      -3.614  12.245  23.879  0.00  0.00    +0.000 C 
ENDBRANCH  26  27
ENDBRANCH   6  26
TORSDOF 7
ENDMDL
MODEL 3
REMARK VINA RESULT:      -6.7      2.801      8.556
REMARK  Name = 
REMARK  11 active torsions:
REMARK  status: ('A' for Active; 'I' for Inactive)
REMARK    1  A    between atoms: C_1  and  O_2
REMARK    2  A    between atoms: O_2  and  C_3
REMARK    3  A    between atoms: C_5  and  O_6
REMARK    4  A    between atoms: C_7  and  C_8
REMARK    5  A    between atoms: C_13  and  O_14
REMARK    6  A    between atoms: C_20  and  O_21
REMARK    7  A    between atoms: O_21  and  C_22
REMARK    8  A    between atoms: C_23  and  C_24
REMARK    9  A    between atoms: C_24  and  C_25
REMARK   10  A    between atoms: C_26  and  C_27
REMARK   11  A    between atoms: C_26  and  C_28
REMARK                            x       y       z     vdW  Elec       q    Type
REMARK                         _______ _______ _______ _____ _____    ______ ____
ROOT
ATOM      1  C   UNL     1       1.836   7.487  20.011  0.00  0.00    +0.000 A 
ATOM      2  C   UNL     1       0.958   8.045  20.963  0.00  0.00    +0.000 A 
ATOM      3  C   UNL     1       0.336   9.275  20.765  0.00  0.00    +0.000 A 
ATOM      4  C   UNL     1       0.604  10.031  19.623  0.00  0.00    +0.000 A 
ATOM      5  C   UNL     1       1.637   9.572  18.759  0.00  0.00    +0.000 A 
ATOM      6  C   UNL     1       2.200   8.256  18.889  0.00  0.00    +0.000 A 
ENDROOT
BRANCH   4   7
ATOM      7  C   UNL     1      -0.493  10.847  19.049  0.00  0.00    +0.000 A 
ATOM      8  C   UNL     1      -0.715  11.989  19.719  0.00  0.00    +0.000 A 
ATOM      9  O   UNL     1      -1.808  12.797  19.584  0.00  0.00    +0.000 OA
ATOM     10  C   UNL     1      -2.932  12.141  19.162  0.00  0.00    +0.000 A 
ATOM     11  C   UNL     1      -4.126  12.517  19.761  0.00  0.00    +0.000 A 
ATOM     12  C   UNL     1      -5.274  11.810  19.444  0.00  0.00    +0.000 A 
ATOM     13  C   UNL     1      -5.261  10.833  18.450  0.00  0.00    +0.000 A 
ATOM     14  C   UNL     1      -4.049  10.460  17.843  0.00  0.00    +0.000 A 
ATOM     15  C   UNL     1      -2.864  11.072  18.265  0.00  0.00    +0.000 A 
ATOM     16  C   UNL     1      -1.510  10.475  18.017  0.00  0.00    +0.000 A 
ATOM     17  O   UNL     1      -1.325   9.650  17.137  0.00  0.00    +0.000 OA
BRANCH  12  18
ATOM     18  O   UNL     1      -6.425  12.026  20.139  0.00  0.00    +0.000 OA
ATOM     19  H   UNL     1      -6.501  12.982  20.311  0.00  0.00    +0.000 HD
ENDBRANCH  12  18
ENDBRANCH   4   7
BRANCH   1  21
ATOM     20  C   UNL     1       1.202   5.132  20.371  0.00  0.00    +0.000 C 
ATOM     21  O   UNL     1       2.121   6.204  20.378  0.00  0.00    +0.000 OA
ENDBRANCH   1  21
BRANCH   3  22
ATOM     22  O   UNL     1      -0.649   9.674  21.627  0.00  0.00    +0.000 OA
ATOM     23  H   UNL     1      -0.658  10.646  21.670  0.00  0.00    +0.000 HD
ENDBRANCH   3  22
BRANCH   5  24
ATOM     24  O   UNL     1       2.012  10.264  17.624  0.00  0.00    +0.000 OA
ATOM     25  C   UNL     1       2.515  11.585  17.821  0.00  0.00    +0.000 C 
ENDBRANCH   5  24
BRANCH   6  26
ATOM     26  C   UNL     1       3.062   7.752  17.740  0.00  0.00    +0.000 C 
BRANCH  26  27
ATOM     27  C   UNL     1       3.526   6.327  17.872  0.00  0.00    +0.000 C 
ATOM     28  C   UNL     1       4.416   5.711  17.065  0.00  0.00    +0.000 C 
ATOM     29  C   UNL     1       5.165   6.379  15.942  0.00  0.00    +0.000 C 
ATOM     30  C   UNL     1       4.736   4.250  17.236  0.00  0.00    +0.000 C 
ENDBRANCH  26  27
ENDBRANCH   6  26
TORSDOF 7
ENDMDL
MODEL 4
REMARK VINA RESULT:      -6.6      5.303     11.066
REMARK  Name = 
REMARK  11 active torsions:
REMARK  status: ('A' for Active; 'I' for Inactive)
REMARK    1  A    between atoms: C_1  and  O_2
REMARK    2  A    between atoms: O_2  and  C_3
REMARK    3  A    between atoms: C_5  and  O_6
REMARK    4  A    between atoms: C_7  and  C_8
REMARK    5  A    between atoms: C_13  and  O_14
REMARK    6  A    between atoms: C_20  and  O_21
REMARK    7  A    between atoms: O_21  and  C_22
REMARK    8  A    between atoms: C_23  and  C_24
REMARK    9  A    between atoms: C_24  and  C_25
REMARK   10  A    between atoms: C_26  and  C_27
REMARK   11  A    between atoms: C_26  and  C_28
REMARK                            x       y       z     vdW  Elec       q    Type
REMARK                         _______ _______ _______ _____ _____    ______ ____
ROOT
ATOM      1  C   UNL     1      -0.059  10.690  19.753  0.00  0.00    +0.000 A 
ATOM      2  C   UNL     1       0.239  10.233  21.052  0.00  0.00    +0.000 A 
ATOM      3  C   UNL     1      -0.091  10.968  22.189  0.00  0.00    +0.000 A 
ATOM      4  C   UNL     1      -0.692  12.222  22.074  0.00  0.00    +0.000 A 
ATOM      5  C   UNL     1      -0.812  12.776  20.769  0.00  0.00    +0.000 A 
ATOM      6  C   UNL     1      -0.584  11.986  19.590  0.00  0.00    +0.000 A 
ENDROOT
BRANCH   4   7
ATOM      7  C   UNL     1      -1.672  12.627  23.111  0.00  0.00    +0.000 A 
ATOM      8  C   UNL     1      -2.744  11.821  23.175  0.00  0.00    +0.000 A 
ATOM      9  O   UNL     1      -3.908  12.087  23.837  0.00  0.00    +0.000 OA
ATOM     10  C   UNL     1      -4.175  13.422  23.972  0.00  0.00    +0.000 A 
ATOM     11  C   UNL     1      -5.496  13.807  23.800  0.00  0.00    +0.000 A 
ATOM     12  C   UNL     1      -5.798  15.158  23.822  0.00  0.00    +0.000 A 
ATOM     13  C   UNL     1      -4.825  16.103  24.141  0.00  0.00    +0.000 A 
ATOM     14  C   UNL     1      -3.488  15.708  24.319  0.00  0.00    +0.000 A 
ATOM     15  C   UNL     1      -3.154  14.360  24.155  0.00  0.00    +0.000 A 
ATOM     16  C   UNL     1      -1.750  13.898  23.897  0.00  0.00    +0.000 A 
ATOM     17  O   UNL     1      -0.786  14.589  24.181  0.00  0.00    +0.000 OA
BRANCH  12  18
ATOM     18  O   UNL     1      -7.045  15.587  23.480  0.00  0.00    +0.000 OA
ATOM     19  H   UNL     1      -7.199  15.356  22.546  0.00  0.00    +0.000 HD
ENDBRANCH  12  18
ENDBRANCH   4   7
BRANCH   1  21
ATOM     20  C   UNL     1       1.383   9.518  18.131  0.00  0.00    +0.000 C 
ATOM     21  O   UNL     1       0.189   9.681  18.867  0.00  0.00    +0.000 OA
ENDBRANCH   1  21
BRANCH   3  22
ATOM     22  O   UNL     1       0.046  10.392  23.423  0.00  0.00    +0.000 OA
ATOM     23  H   UNL     1      -0.440  10.923  24.076  0.00  0.00    +0.000 HD
ENDBRANCH   3  22
BRANCH   5  24
ATOM     24  O   UNL     1      -1.354  14.027  20.545  0.00  0.00    +0.000 OA
ATOM     25  C   UNL     1      -0.464  15.136  20.664  0.00  0.00    +0.000 C 
ENDBRANCH   5  24
BRANCH   6  26
ATOM     26  C   UNL     1      -1.037  12.574  18.260  0.00  0.00    +0.000 C 
BRANCH  26  27
ATOM     27  C   UNL     1      -2.008  11.724  17.489  0.00  0.00    +0.000 C 
ATOM     28  C   UNL     1      -3.291  11.482  17.836  0.00  0.00    +0.000 C 
ATOM     29  C   UNL     1      -3.993  12.098  19.017  0.00  0.00    +0.000 C 
ATOM     30  C   UNL     1      -4.146  10.538  17.034  0.00  0.00    +0.000 C 
ENDBRANCH  26  27
ENDBRANCH   6  26
TORSDOF 7
ENDMDL
MODEL 5
REMARK VINA RESULT:      -6.5      2.304      3.799
REMARK  Name = 
REMARK  11 active torsions:
REMARK  status: ('A' for Active; 'I' for Inactive)
REMARK    1  A    between atoms: C_1  and  O_2
REMARK    2  A    between atoms: O_2  and  C_3
REMARK    3  A    between atoms: C_5  and  O_6
REMARK    4  A    between atoms: C_7  and  C_8
REMARK    5  A    between atoms: C_13  and  O_14
REMARK    6  A    between atoms: C_20  and  O_21
REMARK    7  A    between atoms: O_21  and  C_22
REMARK    8  A    between atoms: C_23  and  C_24
REMARK    9  A    between atoms: C_24  and  C_25
REMARK   10  A    between atoms: C_26  and  C_27
REMARK   11  A    between atoms: C_26  and  C_28
REMARK                            x       y       z     vdW  Elec       q    Type
REMARK                         _______ _______ _______ _____ _____    ______ ____
ROOT
ATOM      1  C   UNL     1       1.674   3.861  20.127  0.00  0.00    +0.000 A 
ATOM      2  C   UNL     1       2.263   3.011  19.170  0.00  0.00    +0.000 A 
ATOM      3  C   UNL     1       3.239   3.458  18.283  0.00  0.00    +0.000 A 
ATOM      4  C   UNL     1       3.637   4.796  18.281  0.00  0.00    +0.000 A 
ATOM      5  C   UNL     1       2.908   5.700  19.102  0.00  0.00    +0.000 A 
ATOM      6  C   UNL     1       1.983   5.234  20.100  0.00  0.00    +0.000 A 
ENDROOT
BRANCH   4   7
ATOM      7  C   UNL     1       5.054   5.105  17.968  0.00  0.00    +0.000 A 
ATOM      8  C   UNL     1       5.910   4.704  18.921  0.00  0.00    +0.000 A 
ATOM      9  O   UNL     1       7.219   5.076  19.029  0.00  0.00    +0.000 OA
ATOM     10  C   UNL     1       7.495   6.296  18.475  0.00  0.00    +0.000 A 
ATOM     11  C   UNL     1       8.372   7.109  19.178  0.00  0.00    +0.000 A 
ATOM     12  C   UNL     1       8.600   8.392  18.711  0.00  0.00    +0.000 A 
ATOM     13  C   UNL     1       8.069   8.816  17.494  0.00  0.00    +0.000 A 
ATOM     14  C   UNL     1       7.185   7.987  16.783  0.00  0.00    +0.000 A 
ATOM     15  C   UNL     1       6.839   6.744  17.325  0.00  0.00    +0.000 A 
ATOM     16  C   UNL     1       5.617   5.985  16.897  0.00  0.00    +0.000 A 
ATOM     17  O   UNL     1       5.073   6.198  15.827  0.00  0.00    +0.000 OA
BRANCH  12  18
ATOM     18  O   UNL     1       9.307   9.280  19.465  0.00  0.00    +0.000 OA
ATOM     19  H   UNL     1       8.723   9.612  20.170  0.00  0.00    +0.000 HD
ENDBRANCH  12  18
ENDBRANCH   4   7
BRANCH   1  21
ATOM     20  C   UNL     1       1.422   2.328  22.042  0.00  0.00    +0.000 C 
ATOM     21  O   UNL     1       0.918   3.106  20.977  0.00  0.00    +0.000 OA
ENDBRANCH   1  21
BRANCH   3  22
ATOM     22  O   UNL     1       3.911   2.549  17.511  0.00  0.00    +0.000 OA
ATOM     23  H   UNL     1       4.073   2.937  16.634  0.00  0.00    +0.000 HD
ENDBRANCH   3  22
BRANCH   5  24
ATOM     24  O   UNL     1       3.190   7.051  19.145  0.00  0.00    +0.000 OA
ATOM     25  C   UNL     1       2.778   7.823  18.018  0.00  0.00    +0.000 C 
ENDBRANCH   5  24
BRANCH   6  26
ATOM     26  C   UNL     1       1.496   6.250  21.124  0.00  0.00    +0.000 C 
BRANCH  26  27
ATOM     27  C   UNL     1       0.695   7.389  20.557  0.00  0.00    +0.000 C 
ATOM     28  C   UNL     1       0.617   8.633  21.078  0.00  0.00    +0.000 C 
ATOM     29  C   UNL     1       1.395   9.114  22.275  0.00  0.00    +0.000 C 
ATOM     30  C   UNL     1      -0.292   9.670  20.476  0.00  0.00    +0.000 C 
ENDBRANCH  26  27
ENDBRANCH   6  26
TORSDOF 7
ENDMDL
MODEL 6
REMARK VINA RESULT:      -6.4      3.216      6.832
REMARK  Name = 
REMARK  11 active torsions:
REMARK  status: ('A' for Active; 'I' for Inactive)
REMARK    1  A    between atoms: C_1  and  O_2
REMARK    2  A    between atoms: O_2  and  C_3
REMARK    3  A    between atoms: C_5  and  O_6
REMARK    4  A    between atoms: C_7  and  C_8
REMARK    5  A    between atoms: C_13  and  O_14
REMARK    6  A    between atoms: C_20  and  O_21
REMARK    7  A    between atoms: O_21  and  C_22
REMARK    8  A    between atoms: C_23  and  C_24
REMARK    9  A    between atoms: C_24  and  C_25
REMARK   10  A    between atoms: C_26  and  C_27
REMARK   11  A    between atoms: C_26  and  C_28
REMARK                            x       y       z     vdW  Elec       q    Type
REMARK                         _______ _______ _______ _____ _____    ______ ____
ROOT
ATOM      1  C   UNL     1      -3.732  11.781  18.996  0.00  0.00    +0.000 A 
ATOM      2  C   UNL     1      -3.240  10.866  18.042  0.00  0.00    +0.000 A 
ATOM      3  C   UNL     1      -1.880  10.596  17.908  0.00  0.00    +0.000 A 
ATOM      4  C   UNL     1      -0.942  11.268  18.692  0.00  0.00    +0.000 A 
ATOM      5  C   UNL     1      -1.411  12.333  19.511  0.00  0.00    +0.000 A 
ATOM      6  C   UNL     1      -2.814  12.543  19.744  0.00  0.00    +0.000 A 
ENDROOT
BRANCH   4   7
ATOM      7  C   UNL     1       0.277  10.533  19.111  0.00  0.00    +0.000 A 
ATOM      8  C   UNL     1       1.193  10.424  18.136  0.00  0.00    +0.000 A 
ATOM      9  O   UNL     1       2.278   9.593  18.147  0.00  0.00    +0.000 OA
ATOM     10  C   UNL     1       2.112   8.477  18.919  0.00  0.00    +0.000 A 
ATOM     11  C   UNL     1       2.618   7.292  18.405  0.00  0.00    +0.000 A 
ATOM     12  C   UNL     1       2.383   6.117  19.100  0.00  0.00    +0.000 A 
ATOM     13  C   UNL     1       1.768   6.137  20.350  0.00  0.00    +0.000 A 
ATOM     14  C   UNL     1       1.261   7.341  20.868  0.00  0.00    +0.000 A 
ATOM     15  C   UNL     1       1.370   8.507  20.103  0.00  0.00    +0.000 A 
ATOM     16  C   UNL     1       0.515   9.717  20.341  0.00  0.00    +0.000 A 
ATOM     17  O   UNL     1      -0.040   9.908  21.410  0.00  0.00    +0.000 OA
BRANCH  12  18
ATOM     18  O   UNL     1       2.703   4.916  18.544  0.00  0.00    +0.000 OA
ATOM     19  H   UNL     1       1.881   4.403  18.435  0.00  0.00    +0.000 HD
ENDBRANCH  12  18
ENDBRANCH   4   7
BRANCH   1  21
ATOM     20  C   UNL     1      -5.981  12.310  18.135  0.00  0.00    +0.000 C 
ATOM     21  O   UNL     1      -5.093  11.683  19.035  0.00  0.00    +0.000 OA
ENDBRANCH   1  21
BRANCH   3  22
ATOM     22  O   UNL     1      -1.479   9.563  17.104  0.00  0.00    +0.000 OA
ATOM     23  H   UNL     1      -2.191   8.903  17.058  0.00  0.00    +0.000 HD
ENDBRANCH   3  22
BRANCH   5  24
ATOM     24  O   UNL     1      -0.563  13.090  20.296  0.00  0.00    +0.000 OA
ATOM     25  C   UNL     1       0.211  14.081  19.621  0.00  0.00    +0.000 C 
ENDBRANCH   5  24
BRANCH   6  26
ATOM     26  C   UNL     1      -3.197  13.496  20.868  0.00  0.00    +0.000 C 
BRANCH  26  27
ATOM     27  C   UNL     1      -3.816  12.842  22.072  0.00  0.00    +0.000 C 
ATOM     28  C   UNL     1      -3.564  13.163  23.359  0.00  0.00    +0.000 C 
ATOM     29  C   UNL     1      -2.679  14.298  23.805  0.00  0.00    +0.000 C 
ATOM     30  C   UNL     1      -4.172  12.376  24.489  0.00  0.00    +0.000 C 
ENDBRANCH  26  27
ENDBRANCH   6  26
TORSDOF 7
ENDMDL
MODEL 7
REMARK VINA RESULT:      -6.4      4.687     10.484
REMARK  Name = 
REMARK  11 active torsions:
REMARK  status: ('A' for Active; 'I' for Inactive)
REMARK    1  A    between atoms: C_1  and  O_2
REMARK    2  A    between atoms: O_2  and  C_3
REMARK    3  A    between atoms: C_5  and  O_6
REMARK    4  A    between atoms: C_7  and  C_8
REMARK    5  A    between atoms: C_13  and  O_14
REMARK    6  A    between atoms: C_20  and  O_21
REMARK    7  A    between atoms: O_21  and  C_22
REMARK    8  A    between atoms: C_23  and  C_24
REMARK    9  A    between atoms: C_24  and  C_25
REMARK   10  A    between atoms: C_26  and  C_27
REMARK   11  A    between atoms: C_26  and  C_28
REMARK                            x       y       z     vdW  Elec       q    Type
REMARK                         _______ _______ _______ _____ _____    ______ ____
ROOT
ATOM      1  C   UNL     1       0.240  10.144  18.483  0.00  0.00    +0.000 A 
ATOM      2  C   UNL     1       1.151  10.929  19.218  0.00  0.00    +0.000 A 
ATOM      3  C   UNL     1       0.730  11.890  20.133  0.00  0.00    +0.000 A 
ATOM      4  C   UNL     1      -0.629  12.145  20.320  0.00  0.00    +0.000 A 
ATOM      5  C   UNL     1      -1.545  11.503  19.441  0.00  0.00    +0.000 A 
ATOM      6  C   UNL     1      -1.135  10.430  18.577  0.00  0.00    +0.000 A 
ENDROOT
BRANCH   4   7
ATOM      7  C   UNL     1      -1.092  12.520  21.679  0.00  0.00    +0.000 A 
ATOM      8  C   UNL     1      -1.499  11.471  22.411  0.00  0.00    +0.000 A 
ATOM      9  O   UNL     1      -2.206  11.535  23.578  0.00  0.00    +0.000 OA
ATOM     10  C   UNL     1      -2.971  12.662  23.700  0.00  0.00    +0.000 A 
ATOM     11  C   UNL     1      -4.232  12.495  24.253  0.00  0.00    +0.000 A 
ATOM     12  C   UNL     1      -5.083  13.587  24.301  0.00  0.00    +0.000 A 
ATOM     13  C   UNL     1      -4.641  14.854  23.925  0.00  0.00    +0.000 A 
ATOM     14  C   UNL     1      -3.361  15.019  23.368  0.00  0.00    +0.000 A 
ATOM     15  C   UNL     1      -2.552  13.893  23.186  0.00  0.00    +0.000 A 
ATOM     16  C   UNL     1      -1.388  13.875  22.239  0.00  0.00    +0.000 A 
ATOM     17  O   UNL     1      -0.850  14.904  21.866  0.00  0.00    +0.000 OA
BRANCH  12  18
ATOM     18  O   UNL     1      -6.384  13.426  24.668  0.00  0.00    +0.000 OA
ATOM     19  H   UNL     1      -6.943  13.882  24.012  0.00  0.00    +0.000 HD
ENDBRANCH  12  18
ENDBRANCH   4   7
BRANCH   1  21
ATOM     20  C   UNL     1       2.328   8.963  17.911  0.00  0.00    +0.000 C 
ATOM     21  O   UNL     1       0.932   9.163  17.833  0.00  0.00    +0.000 OA
ENDBRANCH   1  21
BRANCH   3  22
ATOM     22  O   UNL     1       1.651  12.483  20.955  0.00  0.00    +0.000 OA
ATOM     23  H   UNL     1       1.363  12.381  21.878  0.00  0.00    +0.000 HD
ENDBRANCH   3  22
BRANCH   5  24
ATOM     24  O   UNL     1      -2.909  11.716  19.511  0.00  0.00    +0.000 OA
ATOM     25  C   UNL     1      -3.347  13.069  19.407  0.00  0.00    +0.000 C 
ENDBRANCH   5  24
BRANCH   6  26
ATOM     26  C   UNL     1      -2.235   9.611  17.916  0.00  0.00    +0.000 C 
BRANCH  26  27
ATOM     27  C   UNL     1      -2.267   9.687  16.414  0.00  0.00    +0.000 C 
ATOM     28  C   UNL     1      -3.196  10.334  15.679  0.00  0.00    +0.000 C 
ATOM     29  C   UNL     1      -4.315  11.167  16.246  0.00  0.00    +0.000 C 
ATOM     30  C   UNL     1      -3.181  10.265  14.175  0.00  0.00    +0.000 C 
ENDBRANCH  26  27
ENDBRANCH   6  26
TORSDOF 7
ENDMDL
MODEL 8
REMARK VINA RESULT:      -6.3      2.918      6.135
REMARK  Name = 
REMARK  11 active torsions:
REMARK  status: ('A' for Active; 'I' for Inactive)
REMARK    1  A    between atoms: C_1  and  O_2
REMARK    2  A    between atoms: O_2  and  C_3
REMARK    3  A    between atoms: C_5  and  O_6
REMARK    4  A    between atoms: C_7  and  C_8
REMARK    5  A    between atoms: C_13  and  O_14
REMARK    6  A    between atoms: C_20  and  O_21
REMARK    7  A    between atoms: O_21  and  C_22
REMARK    8  A    between atoms: C_23  and  C_24
REMARK    9  A    between atoms: C_24  and  C_25
REMARK   10  A    between atoms: C_26  and  C_27
REMARK   11  A    between atoms: C_26  and  C_28
REMARK                            x       y       z     vdW  Elec       q    Type
REMARK                         _______ _______ _______ _____ _____    ______ ____
ROOT
ATOM      1  C   UNL     1      -2.544  11.915  19.241  0.00  0.00    +0.000 A 
ATOM      2  C   UNL     1      -2.305  10.975  18.218  0.00  0.00    +0.000 A 
ATOM      3  C   UNL     1      -1.037  10.450  17.977  0.00  0.00    +0.000 A 
ATOM      4  C   UNL     1       0.063  10.881  18.721  0.00  0.00    +0.000 A 
ATOM      5  C   UNL     1      -0.134  11.970  19.614  0.00  0.00    +0.000 A 
ATOM      6  C   UNL     1      -1.449  12.439  19.954  0.00  0.00    +0.000 A 
ENDROOT
BRANCH   4   7
ATOM      7  C   UNL     1       1.133   9.898  19.022  0.00  0.00    +0.000 A 
ATOM      8  C   UNL     1       1.916   9.624  17.966  0.00  0.00    +0.000 A 
ATOM      9  O   UNL     1       2.799   8.587  17.872  0.00  0.00    +0.000 OA
ATOM     10  C   UNL     1       2.473   7.511  18.650  0.00  0.00    +0.000 A 
ATOM     11  C   UNL     1       2.672   6.259  18.086  0.00  0.00    +0.000 A 
ATOM     12  C   UNL     1       2.259   5.143  18.793  0.00  0.00    +0.000 A 
ATOM     13  C   UNL     1       1.775   5.259  20.095  0.00  0.00    +0.000 A 
ATOM     14  C   UNL     1       1.579   6.529  20.664  0.00  0.00    +0.000 A 
ATOM     15  C   UNL     1       1.862   7.665  19.898  0.00  0.00    +0.000 A 
ATOM     16  C   UNL     1       1.304   9.020  20.221  0.00  0.00    +0.000 A 
ATOM     17  O   UNL     1       0.897   9.296  21.336  0.00  0.00    +0.000 OA
BRANCH  12  18
ATOM     18  O   UNL     1       2.270   3.915  18.203  0.00  0.00    +0.000 OA
ATOM     19  H   UNL     1       1.627   3.349  18.669  0.00  0.00    +0.000 HD
ENDBRANCH  12  18
ENDBRANCH   4   7
BRANCH   1  21
ATOM     20  C   UNL     1      -4.842  11.882  18.347  0.00  0.00    +0.000 C 
ATOM     21  O   UNL     1      -3.892  12.085  19.372  0.00  0.00    +0.000 OA
ENDBRANCH   1  21
BRANCH   3  22
ATOM     22  O   UNL     1      -0.900   9.404  17.105  0.00  0.00    +0.000 OA
ATOM     23  H   UNL     1      -0.911   9.747  16.195  0.00  0.00    +0.000 HD
ENDBRANCH   3  22
BRANCH   5  24
ATOM     24  O   UNL     1       0.895  12.502  20.368  0.00  0.00    +0.000 OA
ATOM     25  C   UNL     1       1.831  13.326  19.674  0.00  0.00    +0.000 C 
ENDBRANCH   5  24
BRANCH   6  26
ATOM     26  C   UNL     1      -1.565  13.386  21.141  0.00  0.00    +0.000 C 
BRANCH  26  27
ATOM     27  C   UNL     1      -1.748  14.835  20.781  0.00  0.00    +0.000 C 
ATOM     28  C   UNL     1      -2.901  15.530  20.879  0.00  0.00    +0.000 C 
ATOM     29  C   UNL     1      -4.186  14.990  21.450  0.00  0.00    +0.000 C 
ATOM     30  C   UNL     1      -2.991  16.955  20.401  0.00  0.00    +0.000 C 
ENDBRANCH  26  27
ENDBRANCH   6  26
TORSDOF 7
ENDMDL
MODEL 9
REMARK VINA RESULT:      -6.2      2.891      6.020
REMARK  Name = 
REMARK  11 active torsions:
REMARK  status: ('A' for Active; 'I' for Inactive)
REMARK    1  A    between atoms: C_1  and  O_2
REMARK    2  A    between atoms: O_2  and  C_3
REMARK    3  A    between atoms: C_5  and  O_6
REMARK    4  A    between atoms: C_7  and  C_8
REMARK    5  A    between atoms: C_13  and  O_14
REMARK    6  A    between atoms: C_20  and  O_21
REMARK    7  A    between atoms: O_21  and  C_22
REMARK    8  A    between atoms: C_23  and  C_24
REMARK    9  A    between atoms: C_24  and  C_25
REMARK   10  A    between atoms: C_26  and  C_27
REMARK   11  A    between atoms: C_26  and  C_28
REMARK                            x       y       z     vdW  Elec       q    Type
REMARK                         _______ _______ _______ _____ _____    ______ ____
ROOT
ATOM      1  C   UNL     1      -2.110  12.250  19.373  0.00  0.00    +0.000 A 
ATOM      2  C   UNL     1      -2.123  11.120  18.531  0.00  0.00    +0.000 A 
ATOM      3  C   UNL     1      -0.961  10.423  18.209  0.00  0.00    +0.000 A 
ATOM      4  C   UNL     1       0.280  10.857  18.677  0.00  0.00    +0.000 A 
ATOM      5  C   UNL     1       0.326  12.105  19.358  0.00  0.00    +0.000 A 
ATOM      6  C   UNL     1      -0.871  12.771  19.795  0.00  0.00    +0.000 A 
ENDROOT
BRANCH   4   7
ATOM      7  C   UNL     1       1.305   9.833  19.000  0.00  0.00    +0.000 A 
ATOM      8  C   UNL     1       2.080   9.508  17.953  0.00  0.00    +0.000 A 
ATOM      9  O   UNL     1       2.917   8.431  17.881  0.00  0.00    +0.000 OA
ATOM     10  C   UNL     1       2.539   7.383  18.675  0.00  0.00    +0.000 A 
ATOM     11  C   UNL     1       2.685   6.115  18.132  0.00  0.00    +0.000 A 
ATOM     12  C   UNL     1       2.219   5.029  18.855  0.00  0.00    +0.000 A 
ATOM     13  C   UNL     1       1.736   5.189  20.152  0.00  0.00    +0.000 A 
ATOM     14  C   UNL     1       1.594   6.476  20.700  0.00  0.00    +0.000 A 
ATOM     15  C   UNL     1       1.930   7.585  19.916  0.00  0.00    +0.000 A 
ATOM     16  C   UNL     1       1.431   8.969  20.214  0.00  0.00    +0.000 A 
ATOM     17  O   UNL     1       1.032   9.281  21.323  0.00  0.00    +0.000 OA
BRANCH  12  18
ATOM     18  O   UNL     1       2.179   3.793  18.286  0.00  0.00    +0.000 OA
ATOM     19  H   UNL     1       2.231   3.902  17.319  0.00  0.00    +0.000 HD
ENDBRANCH  12  18
ENDBRANCH   4   7
BRANCH   1  21
ATOM     20  C   UNL     1      -4.546  12.040  19.060  0.00  0.00    +0.000 C 
ATOM     21  O   UNL     1      -3.398  12.589  19.671  0.00  0.00    +0.000 OA
ENDBRANCH   1  21
BRANCH   3  22
ATOM     22  O   UNL     1      -1.057   9.228  17.549  0.00  0.00    +0.000 OA
ATOM     23  H   UNL     1      -1.743   9.299  16.864  0.00  0.00    +0.000 HD
ENDBRANCH   3  22
BRANCH   5  24
ATOM     24  O   UNL     1       1.507  12.648  19.827  0.00  0.00    +0.000 OA
ATOM     25  C   UNL     1       2.318  13.329  18.871  0.00  0.00    +0.000 C 
ENDBRANCH   5  24
BRANCH   6  26
ATOM     26  C   UNL     1      -0.708  13.924  20.775  0.00  0.00    +0.000 C 
BRANCH  26  27
ATOM     27  C   UNL     1      -1.238  13.663  22.158  0.00  0.00    +0.000 C 
ATOM     28  C   UNL     1      -2.051  14.482  22.857  0.00  0.00    +0.000 C 
ATOM     29  C   UNL     1      -2.637  15.766  22.330  0.00  0.00    +0.000 C 
ATOM     30  C   UNL     1      -2.446  14.160  24.273  0.00  0.00    +0.000 C 
ENDBRANCH  26  27
ENDBRANCH   6  26
TORSDOF 7
ENDMDL
