MODEL 1
REMARK VINA RESULT:      -9.2      0.000      0.000
REMARK  Name = 
REMARK  5 active torsions:
REMARK  status: ('A' for Active; 'I' for Inactive)
REMARK    1  A    between atoms: C_1  and  C_20
REMARK    2  A    between atoms: N_2  and  N_3
REMARK    3  A    between atoms: C_25  and  O_26
REMARK    4  A    between atoms: O_26  and  C_27
REMARK    5  A    between atoms: C_27  and  C_28
REMARK                            x       y       z     vdW  Elec       q    Type
REMARK                         _______ _______ _______ _____ _____    ______ ____
ROOT
ATOM      1  N   UNL     1       1.447   8.896  21.211  0.00  0.00    +0.000 N 
ATOM      2  C   UNL     1       0.792  10.021  20.681  0.00  0.00    +0.000 A 
ATOM      3  N   UNL     1      -0.287   9.858  19.917  0.00  0.00    +0.000 NA
ATOM      4  C   UNL     1      -0.773  10.942  19.344  0.00  0.00    +0.000 A 
ATOM      5  N   UNL     1      -1.859  10.845  18.507  0.00  0.00    +0.000 N 
ATOM      6  C   UNL     1      -2.374   9.572  18.056  0.00  0.00    +0.000 C 
ATOM      7  C   UNL     1      -2.469   9.743  16.545  0.00  0.00    +0.000 C 
ATOM      8  C   UNL     1      -2.698  11.230  16.326  0.00  0.00    +0.000 C 
ATOM      9  C   UNL     1      -2.128  11.918  17.565  0.00  0.00    +0.000 C 
ATOM     10  N   UNL     1      -0.247  12.144  19.531  0.00  0.00    +0.000 NA
ATOM     11  C   UNL     1       0.816  12.242  20.316  0.00  0.00    +0.000 A 
ATOM     12  N   UNL     1       1.367  13.492  20.435  0.00  0.00    +0.000 N 
ATOM     13  C   UNL     1       2.456  13.823  21.328  0.00  0.00    +0.000 C 
ATOM     14  C   UNL     1       2.049  15.190  21.878  0.00  0.00    +0.000 C 
ATOM     15  C   UNL     1       1.276  15.827  20.731  0.00  0.00    +0.000 C 
ATOM     16  C   UNL     1       0.567  14.650  20.067  0.00  0.00    +0.000 C 
ATOM     17  N   UNL     1       1.359  11.202  20.928  0.00  0.00    +0.000 NA
ATOM     18  H   UNL     1       2.096   9.137  21.953  0.00  0.00    +0.000 HD
ENDROOT
BRANCH   1  20
ATOM     19  C   UNL     1       2.100   6.973  20.199  0.00  0.00    +0.000 C 
ATOM     20  N   UNL     1       1.196   7.588  20.916  0.00  0.00    +0.000 NA
BRANCH  19  21
ATOM     21  C   UNL     1       1.997   5.536  19.856  0.00  0.00    +0.000 A 
ATOM     22  C   UNL     1       1.340   4.681  20.750  0.00  0.00    +0.000 A 
ATOM     23  C   UNL     1       1.279   3.310  20.498  0.00  0.00    +0.000 A 
ATOM     24  C   UNL     1       1.901   2.780  19.376  0.00  0.00    +0.000 A 
ATOM     25  C   UNL     1       2.562   3.627  18.486  0.00  0.00    +0.000 A 
ATOM     26  C   UNL     1       2.577   5.015  18.687  0.00  0.00    +0.000 A 
BRANCH  26  27
ATOM     27  O   UNL     1       3.153   5.865  17.773  0.00  0.00    +0.000 OA
BRANCH  27  28
ATOM     28  C   UNL     1       4.316   5.340  17.098  0.00  0.00    +0.000 C 
BRANCH  28  29
ATOM     29  C   UNL     1       5.634   5.858  17.630  0.00  0.00    +0.000 A 
ATOM     30  C   UNL     1       6.316   6.930  17.029  0.00  0.00    +0.000 A 
ATOM     31  C   UNL     1       7.525   7.381  17.557  0.00  0.00    +0.000 A 
ATOM     32  C   UNL     1       8.082   6.762  18.674  0.00  0.00    +0.000 A 
ATOM     33  C   UNL     1       7.433   5.682  19.269  0.00  0.00    +0.000 A 
ATOM     34  C   UNL     1       6.219   5.233  18.747  0.00  0.00    +0.000 A 
ENDBRANCH  28  29
ENDBRANCH  27  28
ENDBRANCH  26  27
ENDBRANCH  19  21
ENDBRANCH   1  20
TORSDOF 5
ENDMDL
MODEL 2
REMARK VINA RESULT:      -9.1      2.317      5.418
REMARK  Name = 
REMARK  5 active torsions:
REMARK  status: ('A' for Active; 'I' for Inactive)
REMARK    1  A    between atoms: C_1  and  C_20
REMARK    2  A    between atoms: N_2  and  N_3
REMARK    3  A    between atoms: C_25  and  O_26
REMARK    4  A    between atoms: O_26  and  C_27
REMARK    5  A    between atoms: C_27  and  C_28
REMARK                            x       y       z     vdW  Elec       q    Type
REMARK                         _______ _______ _______ _____ _____    ______ ____
ROOT
ATOM      1  N   UNL     1       2.016   8.280  17.293  0.00  0.00    +0.000 N 
ATOM      2  C   UNL     1       1.048   9.046  17.965  0.00  0.00    +0.000 A 
ATOM      3  N   UNL     1       1.237   9.377  19.242  0.00  0.00    +0.000 NA
ATOM      4  C   UNL     1       0.234   9.980  19.849  0.00  0.00    +0.000 A 
ATOM      5  N   UNL     1       0.339  10.314  21.179  0.00  0.00    +0.000 N 
ATOM      6  C   UNL     1       1.428   9.846  22.007  0.00  0.00    +0.000 C 
ATOM      7  C   UNL     1       0.722   9.264  23.225  0.00  0.00    +0.000 C 
ATOM      8  C   UNL     1      -0.574  10.049  23.348  0.00  0.00    +0.000 C 
ATOM      9  C   UNL     1      -0.868  10.574  21.944  0.00  0.00    +0.000 C 
ATOM     10  N   UNL     1      -0.901  10.277  19.229  0.00  0.00    +0.000 NA
ATOM     11  C   UNL     1      -1.020   9.936  17.955  0.00  0.00    +0.000 A 
ATOM     12  N   UNL     1      -2.229  10.205  17.367  0.00  0.00    +0.000 N 
ATOM     13  C   UNL     1      -2.516  10.011  15.963  0.00  0.00    +0.000 C 
ATOM     14  C   UNL     1      -3.352  11.241  15.608  0.00  0.00    +0.000 C 
ATOM     15  C   UNL     1      -4.101  11.554  16.896  0.00  0.00    +0.000 C 
ATOM     16  C   UNL     1      -3.116  11.171  17.996  0.00  0.00    +0.000 C 
ATOM     17  N   UNL     1      -0.057   9.332  17.276  0.00  0.00    +0.000 NA
ATOM     18  H   UNL     1       1.889   8.288  16.287  0.00  0.00    +0.000 HD
ENDROOT
BRANCH   1  20
ATOM     19  C   UNL     1       3.923   7.084  17.011  0.00  0.00    +0.000 C 
ATOM     20  N   UNL     1       3.111   7.679  17.843  0.00  0.00    +0.000 NA
BRANCH  19  21
ATOM     21  C   UNL     1       5.185   6.447  17.452  0.00  0.00    +0.000 A 
ATOM     22  C   UNL     1       6.267   7.270  17.789  0.00  0.00    +0.000 A 
ATOM     23  C   UNL     1       7.494   6.710  18.145  0.00  0.00    +0.000 A 
ATOM     24  C   UNL     1       7.660   5.333  18.135  0.00  0.00    +0.000 A 
ATOM     25  C   UNL     1       6.587   4.508  17.794  0.00  0.00    +0.000 A 
ATOM     26  C   UNL     1       5.328   5.050  17.498  0.00  0.00    +0.000 A 
BRANCH  26  27
ATOM     27  O   UNL     1       4.244   4.243  17.243  0.00  0.00    +0.000 OA
BRANCH  27  28
ATOM     28  C   UNL     1       4.159   3.057  18.061  0.00  0.00    +0.000 C 
BRANCH  28  29
ATOM     29  C   UNL     1       3.133   3.135  19.170  0.00  0.00    +0.000 A 
ATOM     30  C   UNL     1       1.867   3.715  18.981  0.00  0.00    +0.000 A 
ATOM     31  C   UNL     1       0.948   3.759  20.028  0.00  0.00    +0.000 A 
ATOM     32  C   UNL     1       1.280   3.246  21.280  0.00  0.00    +0.000 A 
ATOM     33  C   UNL     1       2.539   2.688  21.493  0.00  0.00    +0.000 A 
ATOM     34  C   UNL     1       3.458   2.636  20.445  0.00  0.00    +0.000 A 
ENDBRANCH  28  29
ENDBRANCH  27  28
ENDBRANCH  26  27
ENDBRANCH  19  21
ENDBRANCH   1  20
TORSDOF 5
ENDMDL
MODEL 3
REMARK VINA RESULT:      -9.1      2.774      9.037
REMARK  Name = 
REMARK  5 active torsions:
REMARK  status: ('A' for Active; 'I' for Inactive)
REMARK    1  A    between atoms: C_1  and  C_20
REMARK    2  A    between atoms: N_2  and  N_3
REMARK    3  A    between atoms: C_25  and  O_26
REMARK    4  A    between atoms: O_26  and  C_27
REMARK    5  A    between atoms: C_27  and  C_28
REMARK                            x       y       z     vdW  Elec       q    Type
REMARK                         _______ _______ _______ _____ _____    ______ ____
ROOT
ATOM      1  N   UNL     1       2.144   8.201  18.821  0.00  0.00    +0.000 N 
ATOM      2  C   UNL     1       2.578   6.888  18.574  0.00  0.00    +0.000 A 
ATOM      3  N   UNL     1       2.090   5.883  19.301  0.00  0.00    +0.000 NA
ATOM      4  C   UNL     1       2.635   4.698  19.110  0.00  0.00    +0.000 A 
ATOM      5  N   UNL     1       2.214   3.622  19.854  0.00  0.00    +0.000 N 
ATOM      6  C   UNL     1       1.336   3.769  20.993  0.00  0.00    +0.000 C 
ATOM      7  C   UNL     1       2.050   2.995  22.094  0.00  0.00    +0.000 C 
ATOM      8  C   UNL     1       2.843   1.916  21.373  0.00  0.00    +0.000 C 
ATOM      9  C   UNL     1       3.068   2.452  19.960  0.00  0.00    +0.000 C 
ATOM     10  N   UNL     1       3.600   4.491  18.224  0.00  0.00    +0.000 NA
ATOM     11  C   UNL     1       4.030   5.529  17.520  0.00  0.00    +0.000 A 
ATOM     12  N   UNL     1       5.069   5.286  16.659  0.00  0.00    +0.000 N 
ATOM     13  C   UNL     1       5.602   6.257  15.728  0.00  0.00    +0.000 C 
ATOM     14  C   UNL     1       5.857   5.426  14.471  0.00  0.00    +0.000 C 
ATOM     15  C   UNL     1       6.210   4.048  15.012  0.00  0.00    +0.000 C 
ATOM     16  C   UNL     1       5.350   3.914  16.266  0.00  0.00    +0.000 C 
ATOM     17  N   UNL     1       3.531   6.747  17.653  0.00  0.00    +0.000 NA
ATOM     18  H   UNL     1       2.391   8.840  18.074  0.00  0.00    +0.000 HD
ENDROOT
BRANCH   1  20
ATOM     19  C   UNL     1       1.229   9.916  19.992  0.00  0.00    +0.000 C 
ATOM     20  N   UNL     1       1.356   8.623  19.853  0.00  0.00    +0.000 NA
BRANCH  19  21
ATOM     21  C   UNL     1       0.354  10.521  21.023  0.00  0.00    +0.000 A 
ATOM     22  C   UNL     1       0.085   9.787  22.185  0.00  0.00    +0.000 A 
ATOM     23  C   UNL     1      -0.786  10.291  23.151  0.00  0.00    +0.000 A 
ATOM     24  C   UNL     1      -1.419  11.509  22.950  0.00  0.00    +0.000 A 
ATOM     25  C   UNL     1      -1.159  12.242  21.791  0.00  0.00    +0.000 A 
ATOM     26  C   UNL     1      -0.235  11.783  20.840  0.00  0.00    +0.000 A 
BRANCH  26  27
ATOM     27  O   UNL     1       0.091  12.536  19.738  0.00  0.00    +0.000 OA
BRANCH  27  28
ATOM     28  C   UNL     1      -1.030  12.960  18.933  0.00  0.00    +0.000 C 
BRANCH  28  29
ATOM     29  C   UNL     1      -1.831  11.828  18.331  0.00  0.00    +0.000 A 
ATOM     30  C   UNL     1      -1.244  10.846  17.514  0.00  0.00    +0.000 A 
ATOM     31  C   UNL     1      -2.019   9.813  16.985  0.00  0.00    +0.000 A 
ATOM     32  C   UNL     1      -3.386   9.753  17.244  0.00  0.00    +0.000 A 
ATOM     33  C   UNL     1      -3.990  10.731  18.032  0.00  0.00    +0.000 A 
ATOM     34  C   UNL     1      -3.217  11.761  18.568  0.00  0.00    +0.000 A 
ENDBRANCH  28  29
ENDBRANCH  27  28
ENDBRANCH  26  27
ENDBRANCH  19  21
ENDBRANCH   1  20
TORSDOF 5
ENDMDL
MODEL 4
REMARK VINA RESULT:      -8.9      1.652      1.707
REMARK  Name = 
REMARK  5 active torsions:
REMARK  status: ('A' for Active; 'I' for Inactive)
REMARK    1  A    between atoms: C_1  and  C_20
REMARK    2  A    between atoms: N_2  and  N_3
REMARK    3  A    between atoms: C_25  and  O_26
REMARK    4  A    between atoms: O_26  and  C_27
REMARK    5  A    between atoms: C_27  and  C_28
REMARK                            x       y       z     vdW  Elec       q    Type
REMARK                         _______ _______ _______ _____ _____    ______ ____
ROOT
ATOM      1  N   UNL     1       2.553   8.882  18.175  0.00  0.00    +0.000 N 
ATOM      2  C   UNL     1       1.706   9.988  18.355  0.00  0.00    +0.000 A 
ATOM      3  N   UNL     1       0.387   9.808  18.415  0.00  0.00    +0.000 NA
ATOM      4  C   UNL     1      -0.357  10.896  18.450  0.00  0.00    +0.000 A 
ATOM      5  N   UNL     1      -1.727  10.790  18.468  0.00  0.00    +0.000 N 
ATOM      6  C   UNL     1      -2.405   9.533  18.241  0.00  0.00    +0.000 C 
ATOM      7  C   UNL     1      -3.432   9.875  17.169  0.00  0.00    +0.000 C 
ATOM      8  C   UNL     1      -3.755  11.345  17.379  0.00  0.00    +0.000 C 
ATOM      9  C   UNL     1      -2.534  11.934  18.084  0.00  0.00    +0.000 C 
ATOM     10  N   UNL     1       0.165  12.116  18.456  0.00  0.00    +0.000 NA
ATOM     11  C   UNL     1       1.484  12.228  18.412  0.00  0.00    +0.000 A 
ATOM     12  N   UNL     1       1.981  13.504  18.360  0.00  0.00    +0.000 N 
ATOM     13  C   UNL     1       3.388  13.837  18.419  0.00  0.00    +0.000 C 
ATOM     14  C   UNL     1       3.413  15.078  19.311  0.00  0.00    +0.000 C 
ATOM     15  C   UNL     1       2.087  15.764  19.013  0.00  0.00    +0.000 C 
ATOM     16  C   UNL     1       1.124  14.609  18.759  0.00  0.00    +0.000 C 
ATOM     17  N   UNL     1       2.297  11.183  18.379  0.00  0.00    +0.000 NA
ATOM     18  H   UNL     1       3.523   9.097  18.378  0.00  0.00    +0.000 HD
ENDROOT
BRANCH   1  20
ATOM     19  C   UNL     1       2.770   6.661  18.587  0.00  0.00    +0.000 C 
ATOM     20  N   UNL     1       2.178   7.599  17.897  0.00  0.00    +0.000 NA
BRANCH  19  21
ATOM     21  C   UNL     1       2.419   5.229  18.444  0.00  0.00    +0.000 A 
ATOM     22  C   UNL     1       1.429   4.696  19.280  0.00  0.00    +0.000 A 
ATOM     23  C   UNL     1       1.116   3.338  19.223  0.00  0.00    +0.000 A 
ATOM     24  C   UNL     1       1.808   2.499  18.361  0.00  0.00    +0.000 A 
ATOM     25  C   UNL     1       2.799   3.024  17.531  0.00  0.00    +0.000 A 
ATOM     26  C   UNL     1       3.082   4.398  17.525  0.00  0.00    +0.000 A 
BRANCH  26  27
ATOM     27  O   UNL     1       3.996   4.936  16.652  0.00  0.00    +0.000 OA
BRANCH  27  28
ATOM     28  C   UNL     1       5.344   4.439  16.793  0.00  0.00    +0.000 C 
BRANCH  28  29
ATOM     29  C   UNL     1       6.315   5.427  17.399  0.00  0.00    +0.000 A 
ATOM     30  C   UNL     1       6.517   6.708  16.858  0.00  0.00    +0.000 A 
ATOM     31  C   UNL     1       7.417   7.592  17.454  0.00  0.00    +0.000 A 
ATOM     32  C   UNL     1       8.141   7.208  18.580  0.00  0.00    +0.000 A 
ATOM     33  C   UNL     1       7.972   5.933  19.117  0.00  0.00    +0.000 A 
ATOM     34  C   UNL     1       7.067   5.050  18.527  0.00  0.00    +0.000 A 
ENDBRANCH  28  29
ENDBRANCH  27  28
ENDBRANCH  26  27
ENDBRANCH  19  21
ENDBRANCH   1  20
TORSDOF 5
ENDMDL
MODEL 5
REMARK VINA RESULT:      -8.8      1.126      1.420
REMARK  Name = 
REMARK  5 active torsions:
REMARK  status: ('A' for Active; 'I' for Inactive)
REMARK    1  A    between atoms: C_1  and  C_20
REMARK    2  A    between atoms: N_2  and  N_3
REMARK    3  A    between atoms: C_25  and  O_26
REMARK    4  A    between atoms: O_26  and  C_27
REMARK    5  A    between atoms: C_27  and  C_28
REMARK                            x       y       z     vdW  Elec       q    Type
REMARK                         _______ _______ _______ _____ _____    ______ ____
ROOT
ATOM      1  N   UNL     1       1.841   9.211  19.212  0.00  0.00    +0.000 N 
ATOM      2  C   UNL     1       0.926  10.260  19.026  0.00  0.00    +0.000 A 
ATOM      3  N   UNL     1      -0.339   9.986  18.710  0.00  0.00    +0.000 NA
ATOM      4  C   UNL     1      -1.111  11.015  18.418  0.00  0.00    +0.000 A 
ATOM      5  N   UNL     1      -2.416  10.807  18.041  0.00  0.00    +0.000 N 
ATOM      6  C   UNL     1      -2.932   9.489  17.745  0.00  0.00    +0.000 C 
ATOM      7  C   UNL     1      -3.603   9.668  16.389  0.00  0.00    +0.000 C 
ATOM      8  C   UNL     1      -4.046  11.122  16.352  0.00  0.00    +0.000 C 
ATOM      9  C   UNL     1      -3.125  11.854  17.326  0.00  0.00    +0.000 C 
ATOM     10  N   UNL     1      -0.676  12.267  18.462  0.00  0.00    +0.000 NA
ATOM     11  C   UNL     1       0.588  12.475  18.800  0.00  0.00    +0.000 A 
ATOM     12  N   UNL     1       1.015  13.778  18.774  0.00  0.00    +0.000 N 
ATOM     13  C   UNL     1       2.320  14.219  19.214  0.00  0.00    +0.000 C 
ATOM     14  C   UNL     1       2.014  15.523  19.950  0.00  0.00    +0.000 C 
ATOM     15  C   UNL     1       0.808  16.083  19.209  0.00  0.00    +0.000 C 
ATOM     16  C   UNL     1       0.024  14.842  18.793  0.00  0.00    +0.000 C 
ATOM     17  N   UNL     1       1.423  11.495  19.109  0.00  0.00    +0.000 NA
ATOM     18  H   UNL     1       2.693   9.514  19.672  0.00  0.00    +0.000 HD
ENDROOT
BRANCH   1  20
ATOM     19  C   UNL     1       2.319   7.044  19.684  0.00  0.00    +0.000 C 
ATOM     20  N   UNL     1       1.630   7.886  18.961  0.00  0.00    +0.000 NA
BRANCH  19  21
ATOM     21  C   UNL     1       2.148   5.576  19.570  0.00  0.00    +0.000 A 
ATOM     22  C   UNL     1       1.446   4.905  20.579  0.00  0.00    +0.000 A 
ATOM     23  C   UNL     1       1.320   3.517  20.546  0.00  0.00    +0.000 A 
ATOM     24  C   UNL     1       1.919   2.787  19.529  0.00  0.00    +0.000 A 
ATOM     25  C   UNL     1       2.625   3.451  18.525  0.00  0.00    +0.000 A 
ATOM     26  C   UNL     1       2.707   4.851  18.505  0.00  0.00    +0.000 A 
BRANCH  26  27
ATOM     27  O   UNL     1       3.327   5.517  17.475  0.00  0.00    +0.000 OA
BRANCH  27  28
ATOM     28  C   UNL     1       4.578   4.943  17.040  0.00  0.00    +0.000 C 
BRANCH  28  29
ATOM     29  C   UNL     1       5.807   5.634  17.587  0.00  0.00    +0.000 A 
ATOM     30  C   UNL     1       6.520   5.134  18.691  0.00  0.00    +0.000 A 
ATOM     31  C   UNL     1       7.653   5.798  19.158  0.00  0.00    +0.000 A 
ATOM     32  C   UNL     1       8.081   6.977  18.551  0.00  0.00    +0.000 A 
ATOM     33  C   UNL     1       7.373   7.501  17.471  0.00  0.00    +0.000 A 
ATOM     34  C   UNL     1       6.243   6.834  16.996  0.00  0.00    +0.000 A 
ENDBRANCH  28  29
ENDBRANCH  27  28
ENDBRANCH  26  27
ENDBRANCH  19  21
ENDBRANCH   1  20
TORSDOF 5
ENDMDL
MODEL 6
REMARK VINA RESULT:      -8.7      2.484      2.963
REMARK  Name = 
REMARK  5 active torsions:
REMARK  status: ('A' for Active; 'I' for Inactive)
REMARK    1  A    between atoms: C_1  and  C_20
REMARK    2  A    between atoms: N_2  and  N_3
REMARK    3  A    between atoms: C_25  and  O_26
REMARK    4  A    between atoms: O_26  and  C_27
REMARK    5  A    between atoms: C_27  and  C_28
REMARK                            x       y       z     vdW  Elec       q    Type
REMARK                         _______ _______ _______ _____ _____    ______ ____
ROOT
ATOM      1  N   UNL     1       2.546   9.148  18.204  0.00  0.00    +0.000 N 
ATOM      2  C   UNL     1       1.640  10.201  18.414  0.00  0.00    +0.000 A 
ATOM      3  N   UNL     1       0.332   9.951  18.445  0.00  0.00    +0.000 NA
ATOM      4  C   UNL     1      -0.468  10.998  18.511  0.00  0.00    +0.000 A 
ATOM      5  N   UNL     1      -1.831  10.820  18.503  0.00  0.00    +0.000 N 
ATOM      6  C   UNL     1      -2.440   9.541  18.216  0.00  0.00    +0.000 C 
ATOM      7  C   UNL     1      -3.468   9.872  17.141  0.00  0.00    +0.000 C 
ATOM      8  C   UNL     1      -3.870  11.314  17.404  0.00  0.00    +0.000 C 
ATOM      9  C   UNL     1      -2.691  11.936  18.151  0.00  0.00    +0.000 C 
ATOM     10  N   UNL     1      -0.011  12.241  18.574  0.00  0.00    +0.000 NA
ATOM     11  C   UNL     1       1.301  12.423  18.557  0.00  0.00    +0.000 A 
ATOM     12  N   UNL     1       1.732  13.724  18.562  0.00  0.00    +0.000 N 
ATOM     13  C   UNL     1       3.118  14.126  18.657  0.00  0.00    +0.000 C 
ATOM     14  C   UNL     1       3.066  15.329  19.598  0.00  0.00    +0.000 C 
ATOM     15  C   UNL     1       1.711  15.959  19.306  0.00  0.00    +0.000 C 
ATOM     16  C   UNL     1       0.812  14.766  18.991  0.00  0.00    +0.000 C 
ATOM     17  N   UNL     1       2.167  11.424  18.495  0.00  0.00    +0.000 NA
ATOM     18  H   UNL     1       3.501   9.405  18.432  0.00  0.00    +0.000 HD
ENDROOT
BRANCH   1  20
ATOM     19  C   UNL     1       3.105   6.950  18.233  0.00  0.00    +0.000 C 
ATOM     20  N   UNL     1       2.242   7.861  17.870  0.00  0.00    +0.000 NA
BRANCH  19  21
ATOM     21  C   UNL     1       2.880   5.504  17.999  0.00  0.00    +0.000 A 
ATOM     22  C   UNL     1       1.830   4.873  18.679  0.00  0.00    +0.000 A 
ATOM     23  C   UNL     1       1.625   3.501  18.539  0.00  0.00    +0.000 A 
ATOM     24  C   UNL     1       2.482   2.745  17.750  0.00  0.00    +0.000 A 
ATOM     25  C   UNL     1       3.532   3.369  17.076  0.00  0.00    +0.000 A 
ATOM     26  C   UNL     1       3.715   4.757  17.151  0.00  0.00    +0.000 A 
BRANCH  26  27
ATOM     27  O   UNL     1       4.694   5.391  16.424  0.00  0.00    +0.000 OA
BRANCH  27  28
ATOM     28  C   UNL     1       5.893   4.617  16.208  0.00  0.00    +0.000 C 
BRANCH  28  29
ATOM     29  C   UNL     1       6.285   4.465  14.755  0.00  0.00    +0.000 A 
ATOM     30  C   UNL     1       5.561   3.653  13.865  0.00  0.00    +0.000 A 
ATOM     31  C   UNL     1       5.952   3.547  12.530  0.00  0.00    +0.000 A 
ATOM     32  C   UNL     1       7.076   4.227  12.068  0.00  0.00    +0.000 A 
ATOM     33  C   UNL     1       7.820   5.018  12.942  0.00  0.00    +0.000 A 
ATOM     34  C   UNL     1       7.427   5.132  14.276  0.00  0.00    +0.000 A 
ENDBRANCH  28  29
ENDBRANCH  27  28
ENDBRANCH  26  27
ENDBRANCH  19  21
ENDBRANCH   1  20
TORSDOF 5
ENDMDL
MODEL 7
REMARK VINA RESULT:      -8.6      2.927      8.907
REMARK  Name = 
REMARK  5 active torsions:
REMARK  status: ('A' for Active; 'I' for Inactive)
REMARK    1  A    between atoms: C_1  and  C_20
REMARK    2  A    between atoms: N_2  and  N_3
REMARK    3  A    between atoms: C_25  and  O_26
REMARK    4  A    between atoms: O_26  and  C_27
REMARK    5  A    between atoms: C_27  and  C_28
REMARK                            x       y       z     vdW  Elec       q    Type
REMARK                         _______ _______ _______ _____ _____    ______ ____
ROOT
ATOM      1  N   UNL     1       2.325   8.440  17.935  0.00  0.00    +0.000 N 
ATOM      2  C   UNL     1       2.714   7.092  17.866  0.00  0.00    +0.000 A 
ATOM      3  N   UNL     1       2.071   6.180  18.594  0.00  0.00    +0.000 NA
ATOM      4  C   UNL     1       2.571   4.960  18.587  0.00  0.00    +0.000 A 
ATOM      5  N   UNL     1       1.986   3.976  19.349  0.00  0.00    +0.000 N 
ATOM      6  C   UNL     1       0.963   4.265  20.328  0.00  0.00    +0.000 C 
ATOM      7  C   UNL     1       1.467   3.565  21.584  0.00  0.00    +0.000 C 
ATOM      8  C   UNL     1       2.293   2.391  21.082  0.00  0.00    +0.000 C 
ATOM      9  C   UNL     1       2.749   2.785  19.677  0.00  0.00    +0.000 C 
ATOM     10  N   UNL     1       3.639   4.631  17.874  0.00  0.00    +0.000 NA
ATOM     11  C   UNL     1       4.224   5.580  17.157  0.00  0.00    +0.000 A 
ATOM     12  N   UNL     1       5.361   5.215  16.483  0.00  0.00    +0.000 N 
ATOM     13  C   UNL     1       6.076   6.072  15.563  0.00  0.00    +0.000 C 
ATOM     14  C   UNL     1       6.462   5.119  14.432  0.00  0.00    +0.000 C 
ATOM     15  C   UNL     1       6.654   3.782  15.134  0.00  0.00    +0.000 C 
ATOM     16  C   UNL     1       5.617   3.802  16.253  0.00  0.00    +0.000 C 
ATOM     17  N   UNL     1       3.781   6.826  17.111  0.00  0.00    +0.000 NA
ATOM     18  H   UNL     1       2.713   8.996  17.181  0.00  0.00    +0.000 HD
ENDROOT
BRANCH   1  20
ATOM     19  C   UNL     1       1.655   8.806  20.071  0.00  0.00    +0.000 C 
ATOM     20  N   UNL     1       1.422   8.989  18.799  0.00  0.00    +0.000 NA
BRANCH  19  21
ATOM     21  C   UNL     1       0.801   9.397  21.128  0.00  0.00    +0.000 A 
ATOM     22  C   UNL     1       1.032   9.027  22.459  0.00  0.00    +0.000 A 
ATOM     23  C   UNL     1       0.209   9.509  23.477  0.00  0.00    +0.000 A 
ATOM     24  C   UNL     1      -0.867  10.331  23.172  0.00  0.00    +0.000 A 
ATOM     25  C   UNL     1      -1.105  10.696  21.847  0.00  0.00    +0.000 A 
ATOM     26  C   UNL     1      -0.249  10.277  20.818  0.00  0.00    +0.000 A 
BRANCH  26  27
ATOM     27  O   UNL     1      -0.427  10.701  19.522  0.00  0.00    +0.000 OA
BRANCH  27  28
ATOM     28  C   UNL     1      -1.632  11.458  19.286  0.00  0.00    +0.000 C 
BRANCH  28  29
ATOM     29  C   UNL     1      -2.375  11.074  18.026  0.00  0.00    +0.000 A 
ATOM     30  C   UNL     1      -1.829  10.197  17.071  0.00  0.00    +0.000 A 
ATOM     31  C   UNL     1      -2.552   9.863  15.927  0.00  0.00    +0.000 A 
ATOM     32  C   UNL     1      -3.815  10.408  15.705  0.00  0.00    +0.000 A 
ATOM     33  C   UNL     1      -4.362  11.297  16.628  0.00  0.00    +0.000 A 
ATOM     34  C   UNL     1      -3.644  11.628  17.778  0.00  0.00    +0.000 A 
ENDBRANCH  28  29
ENDBRANCH  27  28
ENDBRANCH  26  27
ENDBRANCH  19  21
ENDBRANCH   1  20
TORSDOF 5
ENDMDL
MODEL 8
REMARK VINA RESULT:      -8.6      1.084      1.576
REMARK  Name = 
REMARK  5 active torsions:
REMARK  status: ('A' for Active; 'I' for Inactive)
REMARK    1  A    between atoms: C_1  and  C_20
REMARK    2  A    between atoms: N_2  and  N_3
REMARK    3  A    between atoms: C_25  and  O_26
REMARK    4  A    between atoms: O_26  and  C_27
REMARK    5  A    between atoms: C_27  and  C_28
REMARK                            x       y       z     vdW  Elec       q    Type
REMARK                         _______ _______ _______ _____ _____    ______ ____
ROOT
ATOM      1  N   UNL     1       1.358   8.961  21.030  0.00  0.00    +0.000 N 
ATOM      2  C   UNL     1       0.683  10.055  20.465  0.00  0.00    +0.000 A 
ATOM      3  N   UNL     1      -0.396   9.849  19.711  0.00  0.00    +0.000 NA
ATOM      4  C   UNL     1      -0.902  10.904  19.103  0.00  0.00    +0.000 A 
ATOM      5  N   UNL     1      -1.989  10.762  18.274  0.00  0.00    +0.000 N 
ATOM      6  C   UNL     1      -2.484   9.465  17.868  0.00  0.00    +0.000 C 
ATOM      7  C   UNL     1      -2.587   9.584  16.353  0.00  0.00    +0.000 C 
ATOM      8  C   UNL     1      -2.841  11.058  16.084  0.00  0.00    +0.000 C 
ATOM      9  C   UNL     1      -2.279  11.797  17.298  0.00  0.00    +0.000 C 
ATOM     10  N   UNL     1      -0.395  12.121  19.248  0.00  0.00    +0.000 NA
ATOM     11  C   UNL     1       0.668  12.263  20.025  0.00  0.00    +0.000 A 
ATOM     12  N   UNL     1       1.198  13.526  20.100  0.00  0.00    +0.000 N 
ATOM     13  C   UNL     1       2.285  13.905  20.977  0.00  0.00    +0.000 C 
ATOM     14  C   UNL     1       1.856  15.282  21.482  0.00  0.00    +0.000 C 
ATOM     15  C   UNL     1       1.070  15.867  20.317  0.00  0.00    +0.000 C 
ATOM     16  C   UNL     1       0.378  14.657  19.696  0.00  0.00    +0.000 C 
ATOM     17  N   UNL     1       1.231  11.254  20.670  0.00  0.00    +0.000 NA
ATOM     18  H   UNL     1       2.005   9.237  21.761  0.00  0.00    +0.000 HD
ENDROOT
BRANCH   1  20
ATOM     19  C   UNL     1       2.160   6.935  20.398  0.00  0.00    +0.000 C 
ATOM     20  N   UNL     1       1.128   7.639  20.780  0.00  0.00    +0.000 NA
BRANCH  19  21
ATOM     21  C   UNL     1       2.079   5.476  20.154  0.00  0.00    +0.000 A 
ATOM     22  C   UNL     1       0.865   4.823  20.403  0.00  0.00    +0.000 A 
ATOM     23  C   UNL     1       0.764   3.440  20.251  0.00  0.00    +0.000 A 
ATOM     24  C   UNL     1       1.877   2.697  19.884  0.00  0.00    +0.000 A 
ATOM     25  C   UNL     1       3.090   3.342  19.641  0.00  0.00    +0.000 A 
ATOM     26  C   UNL     1       3.195   4.738  19.724  0.00  0.00    +0.000 A 
BRANCH  26  27
ATOM     27  O   UNL     1       4.362   5.389  19.404  0.00  0.00    +0.000 OA
BRANCH  27  28
ATOM     28  C   UNL     1       5.453   4.531  19.008  0.00  0.00    +0.000 C 
BRANCH  28  29
ATOM     29  C   UNL     1       5.821   4.623  17.545  0.00  0.00    +0.000 A 
ATOM     30  C   UNL     1       7.038   5.176  17.111  0.00  0.00    +0.000 A 
ATOM     31  C   UNL     1       7.342   5.234  15.751  0.00  0.00    +0.000 A 
ATOM     32  C   UNL     1       6.435   4.763  14.805  0.00  0.00    +0.000 A 
ATOM     33  C   UNL     1       5.213   4.232  15.214  0.00  0.00    +0.000 A 
ATOM     34  C   UNL     1       4.909   4.167  16.574  0.00  0.00    +0.000 A 
ENDBRANCH  28  29
ENDBRANCH  27  28
ENDBRANCH  26  27
ENDBRANCH  19  21
ENDBRANCH   1  20
TORSDOF 5
ENDMDL
MODEL 9
REMARK VINA RESULT:      -8.5      0.887      1.336
REMARK  Name = 
REMARK  5 active torsions:
REMARK  status: ('A' for Active; 'I' for Inactive)
REMARK    1  A    between atoms: C_1  and  C_20
REMARK    2  A    between atoms: N_2  and  N_3
REMARK    3  A    between atoms: C_25  and  O_26
REMARK    4  A    between atoms: O_26  and  C_27
REMARK    5  A    between atoms: C_27  and  C_28
REMARK                            x       y       z     vdW  Elec       q    Type
REMARK                         _______ _______ _______ _____ _____    ______ ____
ROOT
ATOM      1  N   UNL     1       1.310   9.098  21.309  0.00  0.00    +0.000 N 
ATOM      2  C   UNL     1       0.615  10.182  20.746  0.00  0.00    +0.000 A 
ATOM      3  N   UNL     1      -0.413   9.955  19.930  0.00  0.00    +0.000 NA
ATOM      4  C   UNL     1      -0.936  11.008  19.332  0.00  0.00    +0.000 A 
ATOM      5  N   UNL     1      -1.971  10.848  18.442  0.00  0.00    +0.000 N 
ATOM      6  C   UNL     1      -2.385   9.546  17.968  0.00  0.00    +0.000 C 
ATOM      7  C   UNL     1      -2.415   9.714  16.455  0.00  0.00    +0.000 C 
ATOM      8  C   UNL     1      -2.723  11.184  16.222  0.00  0.00    +0.000 C 
ATOM      9  C   UNL     1      -2.258  11.904  17.487  0.00  0.00    +0.000 C 
ATOM     10  N   UNL     1      -0.492  12.241  19.543  0.00  0.00    +0.000 NA
ATOM     11  C   UNL     1       0.522  12.401  20.380  0.00  0.00    +0.000 A 
ATOM     12  N   UNL     1       0.990  13.682  20.524  0.00  0.00    +0.000 N 
ATOM     13  C   UNL     1       2.012  14.077  21.469  0.00  0.00    +0.000 C 
ATOM     14  C   UNL     1       1.496  15.416  21.996  0.00  0.00    +0.000 C 
ATOM     15  C   UNL     1       0.744  16.006  20.811  0.00  0.00    +0.000 C 
ATOM     16  C   UNL     1       0.141  14.790  20.115  0.00  0.00    +0.000 C 
ATOM     17  N   UNL     1       1.097  11.395  21.019  0.00  0.00    +0.000 NA
ATOM     18  H   UNL     1       1.905   9.377  22.082  0.00  0.00    +0.000 HD
ENDROOT
BRANCH   1  20
ATOM     19  C   UNL     1       2.116   7.226  20.314  0.00  0.00    +0.000 C 
ATOM     20  N   UNL     1       1.153   7.778  21.004  0.00  0.00    +0.000 NA
BRANCH  19  21
ATOM     21  C   UNL     1       2.117   5.786  19.965  0.00  0.00    +0.000 A 
ATOM     22  C   UNL     1       1.847   4.853  20.975  0.00  0.00    +0.000 A 
ATOM     23  C   UNL     1       1.904   3.486  20.704  0.00  0.00    +0.000 A 
ATOM     24  C   UNL     1       2.263   3.041  19.440  0.00  0.00    +0.000 A 
ATOM     25  C   UNL     1       2.540   3.965  18.433  0.00  0.00    +0.000 A 
ATOM     26  C   UNL     1       2.423   5.344  18.667  0.00  0.00    +0.000 A 
BRANCH  26  27
ATOM     27  O   UNL     1       2.611   6.259  17.659  0.00  0.00    +0.000 OA
BRANCH  27  28
ATOM     28  C   UNL     1       3.897   6.913  17.659  0.00  0.00    +0.000 C 
BRANCH  28  29
ATOM     29  C   UNL     1       5.035   6.054  17.156  0.00  0.00    +0.000 A 
ATOM     30  C   UNL     1       5.987   5.488  18.022  0.00  0.00    +0.000 A 
ATOM     31  C   UNL     1       7.016   4.694  17.517  0.00  0.00    +0.000 A 
ATOM     32  C   UNL     1       7.127   4.470  16.146  0.00  0.00    +0.000 A 
ATOM     33  C   UNL     1       6.207   5.043  15.270  0.00  0.00    +0.000 A 
ATOM     34  C   UNL     1       5.172   5.831  15.773  0.00  0.00    +0.000 A 
ENDBRANCH  28  29
ENDBRANCH  27  28
ENDBRANCH  26  27
ENDBRANCH  19  21
ENDBRANCH   1  20
TORSDOF 5
ENDMDL
