MODEL 1
REMARK VINA RESULT:      -9.3      0.000      0.000
REMARK  Name = 
REMARK  6 active torsions:
REMARK  status: ('A' for Active; 'I' for Inactive)
REMARK    1  A    between atoms: C_1  and  O_2
REMARK    2  A    between atoms: O_2  and  C_3
REMARK    3  A    between atoms: C_6  and  C_7
REMARK    4  A    between atoms: N_12  and  C_13
REMARK    5  A    between atoms: C_19  and  C_20
REMARK    6  A    between atoms: N_32  and  C_33
REMARK                            x       y       z     vdW  Elec       q    Type
REMARK                         _______ _______ _______ _____ _____    ______ ____
ROOT
ATOM      1  C   UNL     1       1.802   8.715  18.506  0.00  0.00    +0.000 A 
ATOM      2  C   UNL     1       1.724   8.442  19.884  0.00  0.00    +0.000 A 
ATOM      3  C   UNL     1       0.965   9.240  20.744  0.00  0.00    +0.000 A 
ATOM      4  C   UNL     1       0.291  10.292  20.125  0.00  0.00    +0.000 A 
ATOM      5  C   UNL     1      -0.157  10.251  18.796  0.00  0.00    +0.000 A 
ATOM      6  C   UNL     1       0.804   9.568  17.946  0.00  0.00    +0.000 A 
ATOM      7  C   UNL     1      -1.016  11.454  18.719  0.00  0.00    +0.000 A 
ATOM      8  C   UNL     1      -0.072  12.334  19.262  0.00  0.00    +0.000 A 
ATOM      9  N   UNL     1       0.080  11.614  20.475  0.00  0.00    +0.000 N 
ATOM     10  C   UNL     1       0.349  12.239  21.746  0.00  0.00    +0.000 C 
ENDROOT
BRANCH   7  11
ATOM     11  C   UNL     1      -2.424  11.808  19.105  0.00  0.00    +0.000 C 
ATOM     12  C   UNL     1      -3.623  11.628  18.502  0.00  0.00    +0.000 C 
ATOM     13  C   UNL     1      -3.727  10.879  17.213  0.00  0.00    +0.000 C 
ATOM     14  O   UNL     1      -3.375   9.726  17.033  0.00  0.00    +0.000 OA
ATOM     15  N   UNL     1      -4.725  11.505  16.509  0.00  0.00    +0.000 N 
ATOM     16  C   UNL     1      -5.584  12.147  17.426  0.00  0.00    +0.000 A 
ATOM     17  C   UNL     1      -6.876  12.537  17.117  0.00  0.00    +0.000 A 
ATOM     18  C   UNL     1      -7.701  12.878  18.172  0.00  0.00    +0.000 A 
ATOM     19  C   UNL     1      -7.204  12.864  19.495  0.00  0.00    +0.000 A 
ATOM     20  C   UNL     1      -5.863  12.532  19.775  0.00  0.00    +0.000 A 
ATOM     21  C   UNL     1      -5.007  12.150  18.731  0.00  0.00    +0.000 A 
ATOM     22  H   UNL     1      -4.392  12.142  15.793  0.00  0.00    +0.000 HD
ENDBRANCH   7  11
BRANCH   1  28
ATOM     23  C   UNL     1       4.810   5.305  16.663  0.00  0.00    +0.000 A 
ATOM     24  C   UNL     1       4.771   4.474  17.765  0.00  0.00    +0.000 A 
ATOM     25  C   UNL     1       4.070   4.930  18.858  0.00  0.00    +0.000 A 
ATOM     26  N   UNL     1       3.445   6.117  18.919  0.00  0.00    +0.000 NA
ATOM     27  C   UNL     1       3.538   6.904  17.840  0.00  0.00    +0.000 A 
ATOM     28  N   UNL     1       2.934   8.174  17.828  0.00  0.00    +0.000 N 
ATOM     29  N   UNL     1       4.211   6.533  16.708  0.00  0.00    +0.000 NA
ATOM     30  H   UNL     1       3.054   8.524  16.886  0.00  0.00    +0.000 HD
BRANCH  23  34
ATOM     31  C   UNL     1       6.875   4.095  12.998  0.00  0.00    +0.000 A 
ATOM     32  C   UNL     1       5.571   3.684  13.247  0.00  0.00    +0.000 A 
ATOM     33  C   UNL     1       4.898   4.088  14.415  0.00  0.00    +0.000 A 
ATOM     34  C   UNL     1       5.512   4.901  15.397  0.00  0.00    +0.000 A 
ATOM     35  C   UNL     1       6.836   5.288  15.122  0.00  0.00    +0.000 A 
ATOM     36  C   UNL     1       7.510   4.893  13.945  0.00  0.00    +0.000 A 
BRANCH  31  38
ATOM     37  C   UNL     1       6.949   2.367  11.377  0.00  0.00    +0.000 C 
ATOM     38  O   UNL     1       7.432   3.625  11.840  0.00  0.00    +0.000 OA
ENDBRANCH  31  38
ENDBRANCH  23  34
ENDBRANCH   1  28
TORSDOF 4
ENDMDL
MODEL 2
REMARK VINA RESULT:      -9.1      0.925      1.296
REMARK  Name = 
REMARK  6 active torsions:
REMARK  status: ('A' for Active; 'I' for Inactive)
REMARK    1  A    between atoms: C_1  and  O_2
REMARK    2  A    between atoms: O_2  and  C_3
REMARK    3  A    between atoms: C_6  and  C_7
REMARK    4  A    between atoms: N_12  and  C_13
REMARK    5  A    between atoms: C_19  and  C_20
REMARK    6  A    between atoms: N_32  and  C_33
REMARK                            x       y       z     vdW  Elec       q    Type
REMARK                         _______ _______ _______ _____ _____    ______ ____
ROOT
ATOM      1  C   UNL     1       1.286   8.760  19.514  0.00  0.00    +0.000 A 
ATOM      2  C   UNL     1       1.076   8.578  20.893  0.00  0.00    +0.000 A 
ATOM      3  C   UNL     1       0.267   9.449  21.629  0.00  0.00    +0.000 A 
ATOM      4  C   UNL     1      -0.315  10.475  20.885  0.00  0.00    +0.000 A 
ATOM      5  C   UNL     1      -0.642  10.360  19.526  0.00  0.00    +0.000 A 
ATOM      6  C   UNL     1       0.371   9.600  18.812  0.00  0.00    +0.000 A 
ATOM      7  C   UNL     1      -1.453  11.578  19.296  0.00  0.00    +0.000 A 
ATOM      8  C   UNL     1      -0.535  12.466  19.869  0.00  0.00    +0.000 A 
ATOM      9  N   UNL     1      -0.516  11.822  21.133  0.00  0.00    +0.000 N 
ATOM     10  C   UNL     1      -0.344  12.520  22.382  0.00  0.00    +0.000 C 
ENDROOT
BRANCH   7  11
ATOM     11  C   UNL     1      -2.878  11.991  19.528  0.00  0.00    +0.000 C 
ATOM     12  C   UNL     1      -3.990  11.955  18.756  0.00  0.00    +0.000 C 
ATOM     13  C   UNL     1      -3.957  11.344  17.393  0.00  0.00    +0.000 C 
ATOM     14  O   UNL     1      -3.650  10.192  17.140  0.00  0.00    +0.000 OA
ATOM     15  N   UNL     1      -4.811  12.105  16.633  0.00  0.00    +0.000 N 
ATOM     16  C   UNL     1      -5.751  12.714  17.491  0.00  0.00    +0.000 A 
ATOM     17  C   UNL     1      -6.963  13.222  17.057  0.00  0.00    +0.000 A 
ATOM     18  C   UNL     1      -7.906  13.517  18.023  0.00  0.00    +0.000 A 
ATOM     19  C   UNL     1      -7.599  13.338  19.392  0.00  0.00    +0.000 A 
ATOM     20  C   UNL     1      -6.331  12.887  19.810  0.00  0.00    +0.000 A 
ATOM     21  C   UNL     1      -5.361  12.549  18.854  0.00  0.00    +0.000 A 
ATOM     22  H   UNL     1      -4.345  12.783  16.039  0.00  0.00    +0.000 HD
ENDBRANCH   7  11
BRANCH   1  28
ATOM     23  C   UNL     1       4.083   5.293  17.456  0.00  0.00    +0.000 A 
ATOM     24  C   UNL     1       3.595   4.250  18.216  0.00  0.00    +0.000 A 
ATOM     25  C   UNL     1       2.698   4.575  19.208  0.00  0.00    +0.000 A 
ATOM     26  N   UNL     1       2.289   5.824  19.482  0.00  0.00    +0.000 NA
ATOM     27  C   UNL     1       2.814   6.809  18.741  0.00  0.00    +0.000 A 
ATOM     28  N   UNL     1       2.459   8.148  18.978  0.00  0.00    +0.000 N 
ATOM     29  N   UNL     1       3.709   6.579  17.734  0.00  0.00    +0.000 NA
ATOM     30  H   UNL     1       2.898   8.682  18.239  0.00  0.00    +0.000 HD
BRANCH  23  34
ATOM     31  C   UNL     1       6.843   4.641  14.121  0.00  0.00    +0.000 A 
ATOM     32  C   UNL     1       7.148   5.550  15.128  0.00  0.00    +0.000 A 
ATOM     33  C   UNL     1       6.272   5.747  16.211  0.00  0.00    +0.000 A 
ATOM     34  C   UNL     1       5.039   5.060  16.320  0.00  0.00    +0.000 A 
ATOM     35  C   UNL     1       4.754   4.158  15.279  0.00  0.00    +0.000 A 
ATOM     36  C   UNL     1       5.637   3.950  14.196  0.00  0.00    +0.000 A 
BRANCH  31  38
ATOM     37  C   UNL     1       7.283   4.027  11.875  0.00  0.00    +0.000 C 
ATOM     38  O   UNL     1       7.762   4.548  13.112  0.00  0.00    +0.000 OA
ENDBRANCH  31  38
ENDBRANCH  23  34
ENDBRANCH   1  28
TORSDOF 4
ENDMDL
MODEL 3
REMARK VINA RESULT:      -9.1      1.632      2.433
REMARK  Name = 
REMARK  6 active torsions:
REMARK  status: ('A' for Active; 'I' for Inactive)
REMARK    1  A    between atoms: C_1  and  O_2
REMARK    2  A    between atoms: O_2  and  C_3
REMARK    3  A    between atoms: C_6  and  C_7
REMARK    4  A    between atoms: N_12  and  C_13
REMARK    5  A    between atoms: C_19  and  C_20
REMARK    6  A    between atoms: N_32  and  C_33
REMARK                            x       y       z     vdW  Elec       q    Type
REMARK                         _______ _______ _______ _____ _____    ______ ____
ROOT
ATOM      1  C   UNL     1       0.749   8.926  20.767  0.00  0.00    +0.000 A 
ATOM      2  C   UNL     1       0.331   8.791  22.103  0.00  0.00    +0.000 A 
ATOM      3  C   UNL     1      -0.496   9.742  22.708  0.00  0.00    +0.000 A 
ATOM      4  C   UNL     1      -0.877  10.798  21.880  0.00  0.00    +0.000 A 
ATOM      5  C   UNL     1      -1.017  10.682  20.490  0.00  0.00    +0.000 A 
ATOM      6  C   UNL     1       0.017   9.825  19.934  0.00  0.00    +0.000 A 
ATOM      7  C   UNL     1      -1.679  11.958  20.135  0.00  0.00    +0.000 A 
ATOM      8  C   UNL     1      -0.779  12.779  20.825  0.00  0.00    +0.000 A 
ATOM      9  N   UNL     1      -0.994  12.161  22.085  0.00  0.00    +0.000 N 
ATOM     10  C   UNL     1      -0.941  12.869  23.340  0.00  0.00    +0.000 C 
ENDROOT
BRANCH   7  11
ATOM     11  C   UNL     1      -3.082  12.494  20.158  0.00  0.00    +0.000 C 
ATOM     12  C   UNL     1      -4.156  12.313  19.353  0.00  0.00    +0.000 C 
ATOM     13  C   UNL     1      -4.100  11.359  18.205  0.00  0.00    +0.000 C 
ATOM     14  O   UNL     1      -3.861  10.167  18.285  0.00  0.00    +0.000 OA
ATOM     15  N   UNL     1      -4.862  11.934  17.218  0.00  0.00    +0.000 N 
ATOM     16  C   UNL     1      -5.798  12.800  17.823  0.00  0.00    +0.000 A 
ATOM     17  C   UNL     1      -6.950  13.238  17.192  0.00  0.00    +0.000 A 
ATOM     18  C   UNL     1      -7.915  13.831  17.984  0.00  0.00    +0.000 A 
ATOM     19  C   UNL     1      -7.687  14.008  19.368  0.00  0.00    +0.000 A 
ATOM     20  C   UNL     1      -6.474  13.618  19.972  0.00  0.00    +0.000 A 
ATOM     21  C   UNL     1      -5.486  12.985  19.203  0.00  0.00    +0.000 A 
ATOM     22  H   UNL     1      -4.323  12.403  16.497  0.00  0.00    +0.000 HD
ENDBRANCH   7  11
BRANCH   1  28
ATOM     23  C   UNL     1       3.492   5.287  18.948  0.00  0.00    +0.000 A 
ATOM     24  C   UNL     1       2.741   4.262  19.489  0.00  0.00    +0.000 A 
ATOM     25  C   UNL     1       1.703   4.627  20.315  0.00  0.00    +0.000 A 
ATOM     26  N   UNL     1       1.393   5.894  20.631  0.00  0.00    +0.000 NA
ATOM     27  C   UNL     1       2.168   6.854  20.110  0.00  0.00    +0.000 A 
ATOM     28  N   UNL     1       1.928   8.207  20.409  0.00  0.00    +0.000 N 
ATOM     29  N   UNL     1       3.219   6.586  19.277  0.00  0.00    +0.000 NA
ATOM     30  H   UNL     1       2.568   8.732  19.827  0.00  0.00    +0.000 HD
BRANCH  23  34
ATOM     31  C   UNL     1       6.792   4.538  16.171  0.00  0.00    +0.000 A 
ATOM     32  C   UNL     1       7.037   5.016  17.452  0.00  0.00    +0.000 A 
ATOM     33  C   UNL     1       5.979   5.239  18.353  0.00  0.00    +0.000 A 
ATOM     34  C   UNL     1       4.627   5.016  18.001  0.00  0.00    +0.000 A 
ATOM     35  C   UNL     1       4.411   4.546  16.693  0.00  0.00    +0.000 A 
ATOM     36  C   UNL     1       5.472   4.310  15.790  0.00  0.00    +0.000 A 
BRANCH  31  38
ATOM     37  C   UNL     1       7.738   4.723  14.005  0.00  0.00    +0.000 C 
ATOM     38  O   UNL     1       7.895   4.377  15.379  0.00  0.00    +0.000 OA
ENDBRANCH  31  38
ENDBRANCH  23  34
ENDBRANCH   1  28
TORSDOF 4
ENDMDL
MODEL 4
REMARK VINA RESULT:      -8.3      5.738      7.294
REMARK  Name = 
REMARK  6 active torsions:
REMARK  status: ('A' for Active; 'I' for Inactive)
REMARK    1  A    between atoms: C_1  and  O_2
REMARK    2  A    between atoms: O_2  and  C_3
REMARK    3  A    between atoms: C_6  and  C_7
REMARK    4  A    between atoms: N_12  and  C_13
REMARK    5  A    between atoms: C_19  and  C_20
REMARK    6  A    between atoms: N_32  and  C_33
REMARK                            x       y       z     vdW  Elec       q    Type
REMARK                         _______ _______ _______ _____ _____    ______ ____
ROOT
ATOM      1  C   UNL     1       2.159  12.900  18.278  0.00  0.00    +0.000 A 
ATOM      2  C   UNL     1       2.040  11.498  18.288  0.00  0.00    +0.000 A 
ATOM      3  C   UNL     1       1.125  10.850  19.123  0.00  0.00    +0.000 A 
ATOM      4  C   UNL     1       0.347  11.698  19.910  0.00  0.00    +0.000 A 
ATOM      5  C   UNL     1      -0.010  12.999  19.528  0.00  0.00    +0.000 A 
ATOM      6  C   UNL     1       1.086  13.657  18.836  0.00  0.00    +0.000 A 
ATOM      7  C   UNL     1      -1.025  13.356  20.546  0.00  0.00    +0.000 A 
ATOM      8  C   UNL     1      -0.249  12.987  21.651  0.00  0.00    +0.000 A 
ATOM      9  N   UNL     1      -0.068  11.644  21.228  0.00  0.00    +0.000 N 
ATOM     10  C   UNL     1       0.034  10.529  22.136  0.00  0.00    +0.000 C 
ENDROOT
BRANCH   7  11
ATOM     11  C   UNL     1      -2.489  13.093  20.755  0.00  0.00    +0.000 C 
ATOM     12  C   UNL     1      -3.440  12.493  20.000  0.00  0.00    +0.000 C 
ATOM     13  C   UNL     1      -3.091  11.854  18.695  0.00  0.00    +0.000 C 
ATOM     14  O   UNL     1      -2.287  10.952  18.540  0.00  0.00    +0.000 OA
ATOM     15  N   UNL     1      -4.173  12.079  17.881  0.00  0.00    +0.000 N 
ATOM     16  C   UNL     1      -5.313  12.262  18.692  0.00  0.00    +0.000 A 
ATOM     17  C   UNL     1      -6.610  12.126  18.227  0.00  0.00    +0.000 A 
ATOM     18  C   UNL     1      -7.613  12.037  19.174  0.00  0.00    +0.000 A 
ATOM     19  C   UNL     1      -7.301  12.130  20.550  0.00  0.00    +0.000 A 
ATOM     20  C   UNL     1      -5.979  12.341  20.993  0.00  0.00    +0.000 A 
ATOM     21  C   UNL     1      -4.933  12.404  20.060  0.00  0.00    +0.000 A 
ATOM     22  H   UNL     1      -4.048  12.844  17.225  0.00  0.00    +0.000 HD
ENDBRANCH   7  11
BRANCH   1  28
ATOM     23  C   UNL     1       6.376  15.409  18.280  0.00  0.00    +0.000 A 
ATOM     24  C   UNL     1       5.862  16.545  18.873  0.00  0.00    +0.000 A 
ATOM     25  C   UNL     1       4.506  16.561  19.105  0.00  0.00    +0.000 A 
ATOM     26  N   UNL     1       3.668  15.563  18.783  0.00  0.00    +0.000 NA
ATOM     27  C   UNL     1       4.205  14.495  18.179  0.00  0.00    +0.000 A 
ATOM     28  N   UNL     1       3.395  13.415  17.785  0.00  0.00    +0.000 N 
ATOM     29  N   UNL     1       5.541  14.390  17.911  0.00  0.00    +0.000 NA
ATOM     30  H   UNL     1       4.032  12.703  17.453  0.00  0.00    +0.000 HD
BRANCH  23  34
ATOM     31  C   UNL     1      10.669  14.975  17.540  0.00  0.00    +0.000 A 
ATOM     32  C   UNL     1       9.863  13.858  17.725  0.00  0.00    +0.000 A 
ATOM     33  C   UNL     1       8.480  13.994  17.943  0.00  0.00    +0.000 A 
ATOM     34  C   UNL     1       7.846  15.257  18.011  0.00  0.00    +0.000 A 
ATOM     35  C   UNL     1       8.691  16.368  17.835  0.00  0.00    +0.000 A 
ATOM     36  C   UNL     1      10.078  16.234  17.604  0.00  0.00    +0.000 A 
BRANCH  31  38
ATOM     37  C   UNL     1      12.333  13.400  16.934  0.00  0.00    +0.000 C 
ATOM     38  O   UNL     1      12.000  14.720  17.354  0.00  0.00    +0.000 OA
ENDBRANCH  31  38
ENDBRANCH  23  34
ENDBRANCH   1  28
TORSDOF 4
ENDMDL
MODEL 5
REMARK VINA RESULT:      -8.2      2.628      3.803
REMARK  Name = 
REMARK  6 active torsions:
REMARK  status: ('A' for Active; 'I' for Inactive)
REMARK    1  A    between atoms: C_1  and  O_2
REMARK    2  A    between atoms: O_2  and  C_3
REMARK    3  A    between atoms: C_6  and  C_7
REMARK    4  A    between atoms: N_12  and  C_13
REMARK    5  A    between atoms: C_19  and  C_20
REMARK    6  A    between atoms: N_32  and  C_33
REMARK                            x       y       z     vdW  Elec       q    Type
REMARK                         _______ _______ _______ _____ _____    ______ ____
ROOT
ATOM      1  C   UNL     1       0.747  10.357  20.281  0.00  0.00    +0.000 A 
ATOM      2  C   UNL     1       1.151  11.379  21.159  0.00  0.00    +0.000 A 
ATOM      3  C   UNL     1       0.423  12.565  21.283  0.00  0.00    +0.000 A 
ATOM      4  C   UNL     1      -0.724  12.633  20.492  0.00  0.00    +0.000 A 
ATOM      5  C   UNL     1      -1.472  11.509  20.113  0.00  0.00    +0.000 A 
ATOM      6  C   UNL     1      -0.602  10.383  19.816  0.00  0.00    +0.000 A 
ATOM      7  C   UNL     1      -2.690  12.124  19.538  0.00  0.00    +0.000 A 
ATOM      8  C   UNL     1      -2.013  13.009  18.691  0.00  0.00    +0.000 A 
ATOM      9  N   UNL     1      -1.288  13.643  19.734  0.00  0.00    +0.000 N 
ATOM     10  C   UNL     1      -0.924  15.038  19.719  0.00  0.00    +0.000 C 
ENDROOT
BRANCH   7  11
ATOM     11  C   UNL     1      -3.969  12.703  20.075  0.00  0.00    +0.000 C 
ATOM     12  C   UNL     1      -4.427  12.930  21.328  0.00  0.00    +0.000 C 
ATOM     13  C   UNL     1      -3.566  12.662  22.519  0.00  0.00    +0.000 C 
ATOM     14  O   UNL     1      -2.482  13.172  22.740  0.00  0.00    +0.000 OA
ATOM     15  N   UNL     1      -4.424  12.209  23.491  0.00  0.00    +0.000 N 
ATOM     16  C   UNL     1      -5.715  12.706  23.216  0.00  0.00    +0.000 A 
ATOM     17  C   UNL     1      -6.723  12.776  24.163  0.00  0.00    +0.000 A 
ATOM     18  C   UNL     1      -7.827  13.546  23.851  0.00  0.00    +0.000 A 
ATOM     19  C   UNL     1      -7.915  14.185  22.593  0.00  0.00    +0.000 A 
ATOM     20  C   UNL     1      -6.907  14.037  21.619  0.00  0.00    +0.000 A 
ATOM     21  C   UNL     1      -5.757  13.289  21.915  0.00  0.00    +0.000 A 
ATOM     22  H   UNL     1      -4.423  11.200  23.609  0.00  0.00    +0.000 HD
ENDBRANCH   7  11
BRANCH   1  28
ATOM     23  C   UNL     1       2.794   6.086  18.999  0.00  0.00    +0.000 A 
ATOM     24  C   UNL     1       2.173   5.334  19.977  0.00  0.00    +0.000 A 
ATOM     25  C   UNL     1       1.399   6.020  20.884  0.00  0.00    +0.000 A 
ATOM     26  N   UNL     1       1.225   7.351  20.882  0.00  0.00    +0.000 NA
ATOM     27  C   UNL     1       1.873   8.044  19.937  0.00  0.00    +0.000 A 
ATOM     28  N   UNL     1       1.767   9.444  19.878  0.00  0.00    +0.000 N 
ATOM     29  N   UNL     1       2.662   7.447  18.993  0.00  0.00    +0.000 NA
ATOM     30  H   UNL     1       2.252   9.719  19.034  0.00  0.00    +0.000 HD
BRANCH  23  34
ATOM     31  C   UNL     1       5.280   4.225  15.913  0.00  0.00    +0.000 A 
ATOM     32  C   UNL     1       4.476   3.450  16.741  0.00  0.00    +0.000 A 
ATOM     33  C   UNL     1       3.662   4.047  17.720  0.00  0.00    +0.000 A 
ATOM     34  C   UNL     1       3.635   5.446  17.931  0.00  0.00    +0.000 A 
ATOM     35  C   UNL     1       4.470   6.201  17.087  0.00  0.00    +0.000 A 
ATOM     36  C   UNL     1       5.280   5.605  16.095  0.00  0.00    +0.000 A 
BRANCH  31  38
ATOM     37  C   UNL     1       6.035   4.027  13.675  0.00  0.00    +0.000 C 
ATOM     38  O   UNL     1       6.041   3.533  15.012  0.00  0.00    +0.000 OA
ENDBRANCH  31  38
ENDBRANCH  23  34
ENDBRANCH   1  28
TORSDOF 4
ENDMDL
MODEL 6
REMARK VINA RESULT:      -8.0      6.203      8.003
REMARK  Name = 
REMARK  6 active torsions:
REMARK  status: ('A' for Active; 'I' for Inactive)
REMARK    1  A    between atoms: C_1  and  O_2
REMARK    2  A    between atoms: O_2  and  C_3
REMARK    3  A    between atoms: C_6  and  C_7
REMARK    4  A    between atoms: N_12  and  C_13
REMARK    5  A    between atoms: C_19  and  C_20
REMARK    6  A    between atoms: N_32  and  C_33
REMARK                            x       y       z     vdW  Elec       q    Type
REMARK                         _______ _______ _______ _____ _____    ______ ____
ROOT
ATOM      1  C   UNL     1       1.656  12.642  18.476  0.00  0.00    +0.000 A 
ATOM      2  C   UNL     1       1.617  11.241  18.599  0.00  0.00    +0.000 A 
ATOM      3  C   UNL     1       0.698  10.608  19.442  0.00  0.00    +0.000 A 
ATOM      4  C   UNL     1      -0.168  11.469  20.115  0.00  0.00    +0.000 A 
ATOM      5  C   UNL     1      -0.579  12.710  19.606  0.00  0.00    +0.000 A 
ATOM      6  C   UNL     1       0.513  13.375  18.914  0.00  0.00    +0.000 A 
ATOM      7  C   UNL     1      -1.665  13.086  20.540  0.00  0.00    +0.000 A 
ATOM      8  C   UNL     1      -0.929  12.858  21.709  0.00  0.00    +0.000 A 
ATOM      9  N   UNL     1      -0.649  11.498  21.412  0.00  0.00    +0.000 N 
ATOM     10  C   UNL     1      -0.531  10.471  22.415  0.00  0.00    +0.000 C 
ENDROOT
BRANCH   7  11
ATOM     11  C   UNL     1      -3.121  12.752  20.701  0.00  0.00    +0.000 C 
ATOM     12  C   UNL     1      -4.103  13.250  21.488  0.00  0.00    +0.000 C 
ATOM     13  C   UNL     1      -3.850  14.420  22.381  0.00  0.00    +0.000 C 
ATOM     14  O   UNL     1      -3.475  15.522  22.018  0.00  0.00    +0.000 OA
ATOM     15  N   UNL     1      -4.603  14.188  23.506  0.00  0.00    +0.000 N 
ATOM     16  C   UNL     1      -5.678  13.343  23.157  0.00  0.00    +0.000 A 
ATOM     17  C   UNL     1      -6.826  13.215  23.920  0.00  0.00    +0.000 A 
ATOM     18  C   UNL     1      -7.910  12.596  23.328  0.00  0.00    +0.000 A 
ATOM     19  C   UNL     1      -7.806  12.084  22.014  0.00  0.00    +0.000 A 
ATOM     20  C   UNL     1      -6.601  12.164  21.286  0.00  0.00    +0.000 A 
ATOM     21  C   UNL     1      -5.490  12.814  21.845  0.00  0.00    +0.000 A 
ATOM     22  H   UNL     1      -4.074  13.824  24.292  0.00  0.00    +0.000 HD
ENDBRANCH   7  11
BRANCH   1  28
ATOM     23  C   UNL     1       5.653  15.487  18.406  0.00  0.00    +0.000 A 
ATOM     24  C   UNL     1       5.007  16.645  18.790  0.00  0.00    +0.000 A 
ATOM     25  C   UNL     1       3.639  16.574  18.921  0.00  0.00    +0.000 A 
ATOM     26  N   UNL     1       2.910  15.471  18.690  0.00  0.00    +0.000 NA
ATOM     27  C   UNL     1       3.574  14.381  18.287  0.00  0.00    +0.000 A 
ATOM     28  N   UNL     1       2.885  13.190  18.000  0.00  0.00    +0.000 N 
ATOM     29  N   UNL     1       4.932  14.357  18.132  0.00  0.00    +0.000 NA
ATOM     30  H   UNL     1       3.600  12.497  17.821  0.00  0.00    +0.000 HD
BRANCH  23  34
ATOM     31  C   UNL     1      10.004  15.315  17.951  0.00  0.00    +0.000 A 
ATOM     32  C   UNL     1       9.349  16.536  18.066  0.00  0.00    +0.000 A 
ATOM     33  C   UNL     1       7.953  16.593  18.233  0.00  0.00    +0.000 A 
ATOM     34  C   UNL     1       7.148  15.429  18.265  0.00  0.00    +0.000 A 
ATOM     35  C   UNL     1       7.839  14.211  18.131  0.00  0.00    +0.000 A 
ATOM     36  C   UNL     1       9.241  14.151  17.976  0.00  0.00    +0.000 A 
BRANCH  31  38
ATOM     37  C   UNL     1      11.865  16.624  17.287  0.00  0.00    +0.000 C 
ATOM     38  O   UNL     1      11.358  15.385  17.776  0.00  0.00    +0.000 OA
ENDBRANCH  31  38
ENDBRANCH  23  34
ENDBRANCH   1  28
TORSDOF 4
ENDMDL
MODEL 7
REMARK VINA RESULT:      -8.0      7.316     12.172
REMARK  Name = 
REMARK  6 active torsions:
REMARK  status: ('A' for Active; 'I' for Inactive)
REMARK    1  A    between atoms: C_1  and  O_2
REMARK    2  A    between atoms: O_2  and  C_3
REMARK    3  A    between atoms: C_6  and  C_7
REMARK    4  A    between atoms: N_12  and  C_13
REMARK    5  A    between atoms: C_19  and  C_20
REMARK    6  A    between atoms: N_32  and  C_33
REMARK                            x       y       z     vdW  Elec       q    Type
REMARK                         _______ _______ _______ _____ _____    ______ ____
ROOT
ATOM      1  C   UNL     1       8.387   8.123  18.787  0.00  0.00    +0.000 A 
ATOM      2  C   UNL     1       8.557   6.844  19.347  0.00  0.00    +0.000 A 
ATOM      3  C   UNL     1       7.674   5.799  19.061  0.00  0.00    +0.000 A 
ATOM      4  C   UNL     1       6.647   6.126  18.176  0.00  0.00    +0.000 A 
ATOM      5  C   UNL     1       6.769   7.099  17.172  0.00  0.00    +0.000 A 
ATOM      6  C   UNL     1       7.543   8.235  17.642  0.00  0.00    +0.000 A 
ATOM      7  C   UNL     1       5.545   6.872  16.369  0.00  0.00    +0.000 A 
ATOM      8  C   UNL     1       4.661   6.889  17.454  0.00  0.00    +0.000 A 
ATOM      9  N   UNL     1       5.297   5.824  18.145  0.00  0.00    +0.000 N 
ATOM     10  C   UNL     1       4.592   4.869  18.961  0.00  0.00    +0.000 C 
ENDROOT
BRANCH   7  11
ATOM     11  C   UNL     1       5.117   5.917  15.291  0.00  0.00    +0.000 C 
ATOM     12  C   UNL     1       5.776   4.977  14.573  0.00  0.00    +0.000 C 
ATOM     13  C   UNL     1       7.211   4.668  14.848  0.00  0.00    +0.000 C 
ATOM     14  O   UNL     1       7.662   4.282  15.913  0.00  0.00    +0.000 OA
ATOM     15  N   UNL     1       7.762   4.385  13.623  0.00  0.00    +0.000 N 
ATOM     16  C   UNL     1       6.736   3.940  12.763  0.00  0.00    +0.000 A 
ATOM     17  C   UNL     1       6.971   3.218  11.605  0.00  0.00    +0.000 A 
ATOM     18  C   UNL     1       5.885   2.596  11.019  0.00  0.00    +0.000 A 
ATOM     19  C   UNL     1       4.594   2.747  11.577  0.00  0.00    +0.000 A 
ATOM     20  C   UNL     1       4.373   3.548  12.716  0.00  0.00    +0.000 A 
ATOM     21  C   UNL     1       5.458   4.168  13.354  0.00  0.00    +0.000 A 
ATOM     22  H   UNL     1       8.291   5.151  13.219  0.00  0.00    +0.000 HD
ENDBRANCH   7  11
BRANCH   1  28
ATOM     23  C   UNL     1       9.680  12.738  19.843  0.00  0.00    +0.000 A 
ATOM     24  C   UNL     1       9.958  13.106  18.542  0.00  0.00    +0.000 A 
ATOM     25  C   UNL     1       9.874  12.117  17.589  0.00  0.00    +0.000 A 
ATOM     26  N   UNL     1       9.557  10.838  17.847  0.00  0.00    +0.000 NA
ATOM     27  C   UNL     1       9.328  10.519  19.127  0.00  0.00    +0.000 A 
ATOM     28  N   UNL     1       9.013   9.197  19.488  0.00  0.00    +0.000 N 
ATOM     29  N   UNL     1       9.386  11.435  20.140  0.00  0.00    +0.000 NA
ATOM     30  H   UNL     1       8.788   9.230  20.474  0.00  0.00    +0.000 HD
BRANCH  23  34
ATOM     31  C   UNL     1       9.773  15.621  23.135  0.00  0.00    +0.000 A 
ATOM     32  C   UNL     1      10.552  15.814  22.000  0.00  0.00    +0.000 A 
ATOM     33  C   UNL     1      10.508  14.899  20.932  0.00  0.00    +0.000 A 
ATOM     34  C   UNL     1       9.702  13.736  20.966  0.00  0.00    +0.000 A 
ATOM     35  C   UNL     1       8.938  13.563  22.134  0.00  0.00    +0.000 A 
ATOM     36  C   UNL     1       8.971  14.486  23.202  0.00  0.00    +0.000 A 
BRANCH  31  38
ATOM     37  C   UNL     1       9.610  16.144  25.441  0.00  0.00    +0.000 C 
ATOM     38  O   UNL     1       9.912  16.566  24.114  0.00  0.00    +0.000 OA
ENDBRANCH  31  38
ENDBRANCH  23  34
ENDBRANCH   1  28
TORSDOF 4
ENDMDL
MODEL 8
REMARK VINA RESULT:      -7.8      4.311      6.035
REMARK  Name = 
REMARK  6 active torsions:
REMARK  status: ('A' for Active; 'I' for Inactive)
REMARK    1  A    between atoms: C_1  and  O_2
REMARK    2  A    between atoms: O_2  and  C_3
REMARK    3  A    between atoms: C_6  and  C_7
REMARK    4  A    between atoms: N_12  and  C_13
REMARK    5  A    between atoms: C_19  and  C_20
REMARK    6  A    between atoms: N_32  and  C_33
REMARK                            x       y       z     vdW  Elec       q    Type
REMARK                         _______ _______ _______ _____ _____    ______ ____
ROOT
ATOM      1  C   UNL     1       0.258  10.630  21.452  0.00  0.00    +0.000 A 
ATOM      2  C   UNL     1       1.233  11.591  21.126  0.00  0.00    +0.000 A 
ATOM      3  C   UNL     1       0.923  12.952  21.065  0.00  0.00    +0.000 A 
ATOM      4  C   UNL     1      -0.402  13.265  21.369  0.00  0.00    +0.000 A 
ATOM      5  C   UNL     1      -1.196  12.510  22.244  0.00  0.00    +0.000 A 
ATOM      6  C   UNL     1      -0.934  11.089  22.087  0.00  0.00    +0.000 A 
ATOM      7  C   UNL     1      -2.375  13.386  22.429  0.00  0.00    +0.000 A 
ATOM      8  C   UNL     1      -2.601  13.605  21.066  0.00  0.00    +0.000 A 
ATOM      9  N   UNL     1      -1.313  14.146  20.815  0.00  0.00    +0.000 N 
ATOM     10  C   UNL     1      -1.057  15.180  19.844  0.00  0.00    +0.000 C 
ENDROOT
BRANCH   7  11
ATOM     11  C   UNL     1      -2.715  14.583  23.270  0.00  0.00    +0.000 C 
ATOM     12  C   UNL     1      -3.888  15.136  23.662  0.00  0.00    +0.000 C 
ATOM     13  C   UNL     1      -5.191  14.492  23.319  0.00  0.00    +0.000 C 
ATOM     14  O   UNL     1      -5.529  13.364  23.633  0.00  0.00    +0.000 OA
ATOM     15  N   UNL     1      -6.062  15.531  23.100  0.00  0.00    +0.000 N 
ATOM     16  C   UNL     1      -5.600  16.660  23.809  0.00  0.00    +0.000 A 
ATOM     17  C   UNL     1      -6.403  17.741  24.129  0.00  0.00    +0.000 A 
ATOM     18  C   UNL     1      -5.918  18.631  25.068  0.00  0.00    +0.000 A 
ATOM     19  C   UNL     1      -4.632  18.443  25.626  0.00  0.00    +0.000 A 
ATOM     20  C   UNL     1      -3.806  17.372  25.228  0.00  0.00    +0.000 A 
ATOM     21  C   UNL     1      -4.280  16.433  24.301  0.00  0.00    +0.000 A 
ATOM     22  H   UNL     1      -6.222  15.738  22.119  0.00  0.00    +0.000 HD
ENDBRANCH   7  11
BRANCH   1  28
ATOM     23  C   UNL     1       2.545   6.972  19.114  0.00  0.00    +0.000 A 
ATOM     24  C   UNL     1       2.684   7.639  17.913  0.00  0.00    +0.000 A 
ATOM     25  C   UNL     1       2.100   8.881  17.826  0.00  0.00    +0.000 A 
ATOM     26  N   UNL     1       1.406   9.466  18.815  0.00  0.00    +0.000 NA
ATOM     27  C   UNL     1       1.267   8.768  19.950  0.00  0.00    +0.000 A 
ATOM     28  N   UNL     1       0.534   9.296  21.027  0.00  0.00    +0.000 N 
ATOM     29  N   UNL     1       1.815   7.528  20.128  0.00  0.00    +0.000 NA
ATOM     30  H   UNL     1       0.659   8.641  21.789  0.00  0.00    +0.000 HD
BRANCH  23  34
ATOM     31  C   UNL     1       4.348   3.033  19.742  0.00  0.00    +0.000 A 
ATOM     32  C   UNL     1       5.083   4.069  19.179  0.00  0.00    +0.000 A 
ATOM     33  C   UNL     1       4.512   5.341  18.994  0.00  0.00    +0.000 A 
ATOM     34  C   UNL     1       3.170   5.625  19.343  0.00  0.00    +0.000 A 
ATOM     35  C   UNL     1       2.449   4.552  19.897  0.00  0.00    +0.000 A 
ATOM     36  C   UNL     1       3.024   3.277  20.094  0.00  0.00    +0.000 A 
BRANCH  31  38
ATOM     37  C   UNL     1       5.120   1.308  21.174  0.00  0.00    +0.000 C 
ATOM     38  O   UNL     1       5.003   1.837  19.856  0.00  0.00    +0.000 OA
ENDBRANCH  31  38
ENDBRANCH  23  34
ENDBRANCH   1  28
TORSDOF 4
ENDMDL
MODEL 9
REMARK VINA RESULT:      -7.7      6.500      7.961
REMARK  Name = 
REMARK  6 active torsions:
REMARK  status: ('A' for Active; 'I' for Inactive)
REMARK    1  A    between atoms: C_1  and  O_2
REMARK    2  A    between atoms: O_2  and  C_3
REMARK    3  A    between atoms: C_6  and  C_7
REMARK    4  A    between atoms: N_12  and  C_13
REMARK    5  A    between atoms: C_19  and  C_20
REMARK    6  A    between atoms: N_32  and  C_33
REMARK                            x       y       z     vdW  Elec       q    Type
REMARK                         _______ _______ _______ _____ _____    ______ ____
ROOT
ATOM      1  C   UNL     1       1.168  12.342  19.120  0.00  0.00    +0.000 A 
ATOM      2  C   UNL     1       0.818  11.016  18.809  0.00  0.00    +0.000 A 
ATOM      3  C   UNL     1      -0.055  10.283  19.618  0.00  0.00    +0.000 A 
ATOM      4  C   UNL     1      -0.552  10.976  20.721  0.00  0.00    +0.000 A 
ATOM      5  C   UNL     1      -0.740  12.366  20.744  0.00  0.00    +0.000 A 
ATOM      6  C   UNL     1       0.334  13.046  20.039  0.00  0.00    +0.000 A 
ATOM      7  C   UNL     1      -1.514  12.555  21.992  0.00  0.00    +0.000 A 
ATOM      8  C   UNL     1      -0.653  11.810  22.805  0.00  0.00    +0.000 A 
ATOM      9  N   UNL     1      -0.766  10.619  22.041  0.00  0.00    +0.000 N 
ATOM     10  C   UNL     1      -0.717   9.296  22.611  0.00  0.00    +0.000 C 
ENDROOT
BRANCH   7  11
ATOM     11  C   UNL     1      -2.953  12.427  22.405  0.00  0.00    +0.000 C 
ATOM     12  C   UNL     1      -3.988  13.300  22.440  0.00  0.00    +0.000 C 
ATOM     13  C   UNL     1      -3.830  14.695  21.929  0.00  0.00    +0.000 C 
ATOM     14  O   UNL     1      -3.507  15.003  20.795  0.00  0.00    +0.000 OA
ATOM     15  N   UNL     1      -4.604  15.473  22.754  0.00  0.00    +0.000 N 
ATOM     16  C   UNL     1      -5.618  14.664  23.311  0.00  0.00    +0.000 A 
ATOM     17  C   UNL     1      -6.781  15.171  23.865  0.00  0.00    +0.000 A 
ATOM     18  C   UNL     1      -7.808  14.277  24.100  0.00  0.00    +0.000 A 
ATOM     19  C   UNL     1      -7.632  12.903  23.819  0.00  0.00    +0.000 A 
ATOM     20  C   UNL     1      -6.411  12.403  23.322  0.00  0.00    +0.000 A 
ATOM     21  C   UNL     1      -5.358  13.287  23.042  0.00  0.00    +0.000 A 
ATOM     22  H   UNL     1      -4.081  15.970  23.468  0.00  0.00    +0.000 HD
ENDBRANCH   7  11
BRANCH   1  28
ATOM     23  C   UNL     1       4.921  15.382  18.254  0.00  0.00    +0.000 A 
ATOM     24  C   UNL     1       4.157  16.529  18.179  0.00  0.00    +0.000 A 
ATOM     25  C   UNL     1       2.793  16.370  18.261  0.00  0.00    +0.000 A 
ATOM     26  N   UNL     1       2.174  15.186  18.395  0.00  0.00    +0.000 NA
ATOM     27  C   UNL     1       2.952  14.097  18.429  0.00  0.00    +0.000 A 
ATOM     28  N   UNL     1       2.384  12.816  18.542  0.00  0.00    +0.000 N 
ATOM     29  N   UNL     1       4.316  14.160  18.357  0.00  0.00    +0.000 NA
ATOM     30  H   UNL     1       3.163  12.180  18.650  0.00  0.00    +0.000 HD
BRANCH  23  34
ATOM     31  C   UNL     1       9.296  15.523  18.181  0.00  0.00    +0.000 A 
ATOM     32  C   UNL     1       8.619  14.333  17.941  0.00  0.00    +0.000 A 
ATOM     33  C   UNL     1       7.213  14.289  17.944  0.00  0.00    +0.000 A 
ATOM     34  C   UNL     1       6.423  15.432  18.213  0.00  0.00    +0.000 A 
ATOM     35  C   UNL     1       7.137  16.616  18.466  0.00  0.00    +0.000 A 
ATOM     36  C   UNL     1       8.549  16.665  18.452  0.00  0.00    +0.000 A 
BRANCH  31  38
ATOM     37  C   UNL     1      11.228  14.548  17.213  0.00  0.00    +0.000 C 
ATOM     38  O   UNL     1      10.661  15.439  18.170  0.00  0.00    +0.000 OA
ENDBRANCH  31  38
ENDBRANCH  23  34
ENDBRANCH   1  28
TORSDOF 4
ENDMDL
