MODEL 1
REMARK VINA RESULT:      -7.4      0.000      0.000
REMARK  Name = 
REMARK  6 active torsions:
REMARK  status: ('A' for Active; 'I' for Inactive)
REMARK    1  A    between atoms: C_1  and  N_2
REMARK    2  A    between atoms: N_2  and  C_3
REMARK    3  A    between atoms: N_2  and  C_4
REMARK    4  A    between atoms: C_7  and  C_8
REMARK    5  A    between atoms: C_10  and  C_11
REMARK    6  A    between atoms: N_18  and  C_19
REMARK                            x       y       z     vdW  Elec       q    Type
REMARK                         _______ _______ _______ _____ _____    ______ ____
ROOT
ATOM      1  C   UNL     1       0.524  11.546  19.745  0.00  0.00    +0.000 C 
ATOM      2  C   UNL     1       1.630  12.596  19.748  0.00  0.00    +0.000 C 
ATOM      3  C   UNL     1       1.070  13.589  18.772  0.00  0.00    +0.000 C 
ATOM      4  N   UNL     1      -0.036  13.245  18.186  0.00  0.00    +0.000 NA
ATOM      5  N   UNL     1      -0.387  12.027  18.705  0.00  0.00    +0.000 N 
ENDROOT
BRANCH   1   9
ATOM      6  C   UNL     1       2.220   7.579  18.992  0.00  0.00    +0.000 A 
ATOM      7  C   UNL     1       1.620   7.918  20.216  0.00  0.00    +0.000 A 
ATOM      8  C   UNL     1       1.079   9.189  20.457  0.00  0.00    +0.000 A 
ATOM      9  C   UNL     1       1.098  10.171  19.463  0.00  0.00    +0.000 A 
ATOM     10  C   UNL     1       1.679   9.845  18.233  0.00  0.00    +0.000 A 
ATOM     11  C   UNL     1       2.211   8.574  18.003  0.00  0.00    +0.000 A 
BRANCH   6  13
ATOM     12  C   UNL     1       2.693   5.280  19.772  0.00  0.00    +0.000 C 
ATOM     13  N   UNL     1       2.781   6.323  18.756  0.00  0.00    +0.000 N 
ATOM     14  C   UNL     1       3.878   6.224  17.796  0.00  0.00    +0.000 C 
ENDBRANCH   6  13
ENDBRANCH   1   9
BRANCH   3  15
ATOM     15  C   UNL     1       1.762  14.872  18.524  0.00  0.00    +0.000 A 
ATOM     16  C   UNL     1       1.126  16.086  18.772  0.00  0.00    +0.000 A 
ATOM     17  C   UNL     1       1.812  17.254  18.490  0.00  0.00    +0.000 A 
ATOM     18  N   UNL     1       3.063  17.282  17.991  0.00  0.00    +0.000 NA
ATOM     19  C   UNL     1       3.661  16.090  17.765  0.00  0.00    +0.000 A 
ATOM     20  C   UNL     1       3.062  14.867  18.014  0.00  0.00    +0.000 A 
ENDBRANCH   3  15
BRANCH   5  21
ATOM     21  C   UNL     1      -1.601  11.431  18.374  0.00  0.00    +0.000 A 
ATOM     22  C   UNL     1      -2.807  11.946  18.877  0.00  0.00    +0.000 A 
ATOM     23  C   UNL     1      -4.044  11.401  18.517  0.00  0.00    +0.000 A 
ATOM     24  C   UNL     1      -4.099  10.310  17.658  0.00  0.00    +0.000 A 
ATOM     25  C   UNL     1      -2.920   9.772  17.152  0.00  0.00    +0.000 A 
ATOM     26  C   UNL     1      -1.689  10.335  17.502  0.00  0.00    +0.000 A 
ENDBRANCH   5  21
TORSDOF 4
ENDMDL
MODEL 2
REMARK VINA RESULT:      -7.4      0.358      1.202
REMARK  Name = 
REMARK  6 active torsions:
REMARK  status: ('A' for Active; 'I' for Inactive)
REMARK    1  A    between atoms: C_1  and  N_2
REMARK    2  A    between atoms: N_2  and  C_3
REMARK    3  A    between atoms: N_2  and  C_4
REMARK    4  A    between atoms: C_7  and  C_8
REMARK    5  A    between atoms: C_10  and  C_11
REMARK    6  A    between atoms: N_18  and  C_19
REMARK                            x       y       z     vdW  Elec       q    Type
REMARK                         _______ _______ _______ _____ _____    ______ ____
ROOT
ATOM      1  C   UNL     1       0.456  11.581  19.897  0.00  0.00    +0.000 C 
ATOM      2  C   UNL     1       1.595  12.595  19.891  0.00  0.00    +0.000 C 
ATOM      3  C   UNL     1       1.116  13.539  18.826  0.00  0.00    +0.000 C 
ATOM      4  N   UNL     1       0.030  13.191  18.207  0.00  0.00    +0.000 NA
ATOM      5  N   UNL     1      -0.385  12.019  18.784  0.00  0.00    +0.000 N 
ENDROOT
BRANCH   1   9
ATOM      6  C   UNL     1       2.060   7.526  19.484  0.00  0.00    +0.000 A 
ATOM      7  C   UNL     1       1.464   7.980  20.672  0.00  0.00    +0.000 A 
ATOM      8  C   UNL     1       0.953   9.279  20.805  0.00  0.00    +0.000 A 
ATOM      9  C   UNL     1       0.998  10.174  19.734  0.00  0.00    +0.000 A 
ATOM     10  C   UNL     1       1.576   9.734  18.537  0.00  0.00    +0.000 A 
ATOM     11  C   UNL     1       2.078   8.436  18.417  0.00  0.00    +0.000 A 
BRANCH   6  13
ATOM     12  C   UNL     1       3.038   5.763  18.052  0.00  0.00    +0.000 C 
ATOM     13  N   UNL     1       2.591   6.242  19.355  0.00  0.00    +0.000 N 
ATOM     14  C   UNL     1       2.205   5.232  20.338  0.00  0.00    +0.000 C 
ENDBRANCH   6  13
ENDBRANCH   1   9
BRANCH   3  15
ATOM     15  C   UNL     1       1.862  14.783  18.534  0.00  0.00    +0.000 A 
ATOM     16  C   UNL     1       3.170  14.736  18.059  0.00  0.00    +0.000 A 
ATOM     17  C   UNL     1       3.829  15.932  17.835  0.00  0.00    +0.000 A 
ATOM     18  N   UNL     1       3.273  17.140  18.049  0.00  0.00    +0.000 NA
ATOM     19  C   UNL     1       1.999  17.159  18.505  0.00  0.00    +0.000 A 
ATOM     20  C   UNL     1       1.255  16.020  18.759  0.00  0.00    +0.000 A 
ENDBRANCH   3  15
BRANCH   5  21
ATOM     21  C   UNL     1      -1.601  11.440  18.429  0.00  0.00    +0.000 A 
ATOM     22  C   UNL     1      -2.809  11.969  18.909  0.00  0.00    +0.000 A 
ATOM     23  C   UNL     1      -4.046  11.441  18.525  0.00  0.00    +0.000 A 
ATOM     24  C   UNL     1      -4.098  10.351  17.664  0.00  0.00    +0.000 A 
ATOM     25  C   UNL     1      -2.917   9.798  17.181  0.00  0.00    +0.000 A 
ATOM     26  C   UNL     1      -1.686  10.345  17.555  0.00  0.00    +0.000 A 
ENDBRANCH   5  21
TORSDOF 4
ENDMDL
MODEL 3
REMARK VINA RESULT:      -7.2      0.477      1.565
REMARK  Name = 
REMARK  6 active torsions:
REMARK  status: ('A' for Active; 'I' for Inactive)
REMARK    1  A    between atoms: C_1  and  N_2
REMARK    2  A    between atoms: N_2  and  C_3
REMARK    3  A    between atoms: N_2  and  C_4
REMARK    4  A    between atoms: C_7  and  C_8
REMARK    5  A    between atoms: C_10  and  C_11
REMARK    6  A    between atoms: N_18  and  C_19
REMARK                            x       y       z     vdW  Elec       q    Type
REMARK                         _______ _______ _______ _____ _____    ______ ____
ROOT
ATOM      1  C   UNL     1       0.407  11.668  19.971  0.00  0.00    +0.000 C 
ATOM      2  C   UNL     1       1.548  12.678  19.981  0.00  0.00    +0.000 C 
ATOM      3  C   UNL     1       1.120  13.589  18.868  0.00  0.00    +0.000 C 
ATOM      4  N   UNL     1       0.060  13.224  18.214  0.00  0.00    +0.000 NA
ATOM      5  N   UNL     1      -0.385  12.073  18.809  0.00  0.00    +0.000 N 
ENDROOT
BRANCH   1   9
ATOM      6  C   UNL     1       1.936   7.577  19.634  0.00  0.00    +0.000 A 
ATOM      7  C   UNL     1       2.013   8.496  18.575  0.00  0.00    +0.000 A 
ATOM      8  C   UNL     1       1.521   9.805  18.682  0.00  0.00    +0.000 A 
ATOM      9  C   UNL     1       0.949  10.254  19.875  0.00  0.00    +0.000 A 
ATOM     10  C   UNL     1       0.877   9.356  20.945  0.00  0.00    +0.000 A 
ATOM     11  C   UNL     1       1.374   8.055  20.827  0.00  0.00    +0.000 A 
BRANCH   6  13
ATOM     12  C   UNL     1       2.860   5.759  18.235  0.00  0.00    +0.000 C 
ATOM     13  N   UNL     1       2.402   6.266  19.524  0.00  0.00    +0.000 N 
ATOM     14  C   UNL     1       1.935   5.281  20.497  0.00  0.00    +0.000 C 
ENDBRANCH   6  13
ENDBRANCH   1   9
BRANCH   3  15
ATOM     15  C   UNL     1       1.883  14.821  18.569  0.00  0.00    +0.000 A 
ATOM     16  C   UNL     1       1.305  16.076  18.736  0.00  0.00    +0.000 A 
ATOM     17  C   UNL     1       2.055  17.192  18.408  0.00  0.00    +0.000 A 
ATOM     18  N   UNL     1       3.316  17.129  17.939  0.00  0.00    +0.000 NA
ATOM     19  C   UNL     1       3.857  15.899  17.791  0.00  0.00    +0.000 A 
ATOM     20  C   UNL     1       3.191  14.723  18.090  0.00  0.00    +0.000 A 
ENDBRANCH   3  15
BRANCH   5  21
ATOM     21  C   UNL     1      -1.586  11.486  18.420  0.00  0.00    +0.000 A 
ATOM     22  C   UNL     1      -1.591  10.384  17.551  0.00  0.00    +0.000 A 
ATOM     23  C   UNL     1      -2.779   9.741  17.187  0.00  0.00    +0.000 A 
ATOM     24  C   UNL     1      -3.996  10.205  17.673  0.00  0.00    +0.000 A 
ATOM     25  C   UNL     1      -4.023  11.302  18.527  0.00  0.00    +0.000 A 
ATOM     26  C   UNL     1      -2.830  11.926  18.900  0.00  0.00    +0.000 A 
ENDBRANCH   5  21
TORSDOF 4
ENDMDL
MODEL 4
REMARK VINA RESULT:      -7.2      0.143      1.624
REMARK  Name = 
REMARK  6 active torsions:
REMARK  status: ('A' for Active; 'I' for Inactive)
REMARK    1  A    between atoms: C_1  and  N_2
REMARK    2  A    between atoms: N_2  and  C_3
REMARK    3  A    between atoms: N_2  and  C_4
REMARK    4  A    between atoms: C_7  and  C_8
REMARK    5  A    between atoms: C_10  and  C_11
REMARK    6  A    between atoms: N_18  and  C_19
REMARK                            x       y       z     vdW  Elec       q    Type
REMARK                         _______ _______ _______ _____ _____    ______ ____
ROOT
ATOM      1  C   UNL     1       0.476  11.627  19.799  0.00  0.00    +0.000 C 
ATOM      2  C   UNL     1       1.585  12.673  19.825  0.00  0.00    +0.000 C 
ATOM      3  C   UNL     1       1.076  13.640  18.796  0.00  0.00    +0.000 C 
ATOM      4  N   UNL     1      -0.002  13.282  18.168  0.00  0.00    +0.000 NA
ATOM      5  N   UNL     1      -0.382  12.080  18.704  0.00  0.00    +0.000 N 
ENDROOT
BRANCH   1   9
ATOM      6  C   UNL     1       2.118   7.624  19.118  0.00  0.00    +0.000 A 
ATOM      7  C   UNL     1       2.177   8.634  18.144  0.00  0.00    +0.000 A 
ATOM      8  C   UNL     1       1.649   9.915  18.362  0.00  0.00    +0.000 A 
ATOM      9  C   UNL     1       1.058  10.242  19.584  0.00  0.00    +0.000 A 
ATOM     10  C   UNL     1       1.003   9.252  20.571  0.00  0.00    +0.000 A 
ATOM     11  C   UNL     1       1.536   7.980  20.343  0.00  0.00    +0.000 A 
BRANCH   6  13
ATOM     12  C   UNL     1       2.591   5.349  19.966  0.00  0.00    +0.000 C 
ATOM     13  N   UNL     1       2.621   6.341  18.897  0.00  0.00    +0.000 N 
ATOM     14  C   UNL     1       3.629   6.162  17.854  0.00  0.00    +0.000 C 
ENDBRANCH   6  13
ENDBRANCH   1   9
BRANCH   3  15
ATOM     15  C   UNL     1       1.785  14.914  18.546  0.00  0.00    +0.000 A 
ATOM     16  C   UNL     1       3.079  14.922  18.032  0.00  0.00    +0.000 A 
ATOM     17  C   UNL     1       3.704  16.143  17.851  0.00  0.00    +0.000 A 
ATOM     18  N   UNL     1       3.127  17.325  18.142  0.00  0.00    +0.000 NA
ATOM     19  C   UNL     1       1.868  17.291  18.634  0.00  0.00    +0.000 A 
ATOM     20  C   UNL     1       1.157  16.124  18.851  0.00  0.00    +0.000 A 
ENDBRANCH   3  15
BRANCH   5  21
ATOM     21  C   UNL     1      -1.581  11.478  18.331  0.00  0.00    +0.000 A 
ATOM     22  C   UNL     1      -1.583  10.362  17.480  0.00  0.00    +0.000 A 
ATOM     23  C   UNL     1      -2.768   9.705  17.134  0.00  0.00    +0.000 A 
ATOM     24  C   UNL     1      -3.986  10.169  17.618  0.00  0.00    +0.000 A 
ATOM     25  C   UNL     1      -4.016  11.281  18.454  0.00  0.00    +0.000 A 
ATOM     26  C   UNL     1      -2.825  11.918  18.810  0.00  0.00    +0.000 A 
ENDBRANCH   5  21
TORSDOF 4
ENDMDL
MODEL 5
REMARK VINA RESULT:      -7.0      2.235      7.241
REMARK  Name = 
REMARK  6 active torsions:
REMARK  status: ('A' for Active; 'I' for Inactive)
REMARK    1  A    between atoms: C_1  and  N_2
REMARK    2  A    between atoms: N_2  and  C_3
REMARK    3  A    between atoms: N_2  and  C_4
REMARK    4  A    between atoms: C_7  and  C_8
REMARK    5  A    between atoms: C_10  and  C_11
REMARK    6  A    between atoms: N_18  and  C_19
REMARK                            x       y       z     vdW  Elec       q    Type
REMARK                         _______ _______ _______ _____ _____    ______ ____
ROOT
ATOM      1  C   UNL     1       0.771  10.041  18.521  0.00  0.00    +0.000 C 
ATOM      2  C   UNL     1       1.635   9.203  17.585  0.00  0.00    +0.000 C 
ATOM      3  C   UNL     1       2.108   8.136  18.528  0.00  0.00    +0.000 C 
ATOM      4  N   UNL     1       1.762   8.284  19.770  0.00  0.00    +0.000 NA
ATOM      5  N   UNL     1       0.992   9.416  19.825  0.00  0.00    +0.000 N 
ENDROOT
BRANCH   1   9
ATOM      6  C   UNL     1       2.021  14.237  18.407  0.00  0.00    +0.000 A 
ATOM      7  C   UNL     1       2.924  13.179  18.210  0.00  0.00    +0.000 A 
ATOM      8  C   UNL     1       2.524  11.836  18.250  0.00  0.00    +0.000 A 
ATOM      9  C   UNL     1       1.186  11.499  18.465  0.00  0.00    +0.000 A 
ATOM     10  C   UNL     1       0.269  12.540  18.648  0.00  0.00    +0.000 A 
ATOM     11  C   UNL     1       0.680  13.875  18.603  0.00  0.00    +0.000 A 
BRANCH   6  13
ATOM     12  C   UNL     1       1.467  16.625  18.737  0.00  0.00    +0.000 C 
ATOM     13  N   UNL     1       2.419  15.575  18.393  0.00  0.00    +0.000 N 
ATOM     14  C   UNL     1       3.546  15.953  17.543  0.00  0.00    +0.000 C 
ENDBRANCH   6  13
ENDBRANCH   1   9
BRANCH   3  15
ATOM     15  C   UNL     1       2.912   6.997  18.032  0.00  0.00    +0.000 A 
ATOM     16  C   UNL     1       4.116   7.210  17.366  0.00  0.00    +0.000 A 
ATOM     17  C   UNL     1       4.808   6.108  16.895  0.00  0.00    +0.000 A 
ATOM     18  N   UNL     1       4.382   4.840  17.050  0.00  0.00    +0.000 NA
ATOM     19  C   UNL     1       3.213   4.659  17.705  0.00  0.00    +0.000 A 
ATOM     20  C   UNL     1       2.446   5.693  18.214  0.00  0.00    +0.000 A 
ENDBRANCH   3  15
BRANCH   5  21
ATOM     21  C   UNL     1       0.355   9.791  21.005  0.00  0.00    +0.000 A 
ATOM     22  C   UNL     1      -0.609  10.811  21.001  0.00  0.00    +0.000 A 
ATOM     23  C   UNL     1      -1.303  11.170  22.160  0.00  0.00    +0.000 A 
ATOM     24  C   UNL     1      -1.029  10.525  23.361  0.00  0.00    +0.000 A 
ATOM     25  C   UNL     1      -0.070   9.518  23.398  0.00  0.00    +0.000 A 
ATOM     26  C   UNL     1       0.604   9.153  22.230  0.00  0.00    +0.000 A 
ENDBRANCH   5  21
TORSDOF 4
ENDMDL
MODEL 6
REMARK VINA RESULT:      -6.9      2.433      5.616
REMARK  Name = 
REMARK  6 active torsions:
REMARK  status: ('A' for Active; 'I' for Inactive)
REMARK    1  A    between atoms: C_1  and  N_2
REMARK    2  A    between atoms: N_2  and  C_3
REMARK    3  A    between atoms: N_2  and  C_4
REMARK    4  A    between atoms: C_7  and  C_8
REMARK    5  A    between atoms: C_10  and  C_11
REMARK    6  A    between atoms: N_18  and  C_19
REMARK                            x       y       z     vdW  Elec       q    Type
REMARK                         _______ _______ _______ _____ _____    ______ ____
ROOT
ATOM      1  C   UNL     1      -0.181  11.400  19.216  0.00  0.00    +0.000 C 
ATOM      2  C   UNL     1      -1.505  11.115  19.916  0.00  0.00    +0.000 C 
ATOM      3  C   UNL     1      -1.511  12.204  20.949  0.00  0.00    +0.000 C 
ATOM      4  N   UNL     1      -0.439  12.934  21.007  0.00  0.00    +0.000 NA
ATOM      5  N   UNL     1       0.394  12.478  20.020  0.00  0.00    +0.000 N 
ENDROOT
BRANCH   1   9
ATOM      6  C   UNL     1       2.256   7.766  19.030  0.00  0.00    +0.000 A 
ATOM      7  C   UNL     1       2.065   8.598  17.915  0.00  0.00    +0.000 A 
ATOM      8  C   UNL     1       1.283   9.761  17.975  0.00  0.00    +0.000 A 
ATOM      9  C   UNL     1       0.676  10.149  19.171  0.00  0.00    +0.000 A 
ATOM     10  C   UNL     1       0.867   9.339  20.296  0.00  0.00    +0.000 A 
ATOM     11  C   UNL     1       1.652   8.185  20.225  0.00  0.00    +0.000 A 
BRANCH   6  13
ATOM     12  C   UNL     1       3.762   6.270  17.760  0.00  0.00    +0.000 C 
ATOM     13  N   UNL     1       3.015   6.595  18.969  0.00  0.00    +0.000 N 
ATOM     14  C   UNL     1       2.639   5.482  19.838  0.00  0.00    +0.000 C 
ENDBRANCH   6  13
ENDBRANCH   1   9
BRANCH   3  15
ATOM     15  C   UNL     1      -2.687  12.405  21.823  0.00  0.00    +0.000 A 
ATOM     16  C   UNL     1      -2.601  12.187  23.196  0.00  0.00    +0.000 A 
ATOM     17  C   UNL     1      -3.743  12.358  23.958  0.00  0.00    +0.000 A 
ATOM     18  N   UNL     1      -4.932  12.728  23.446  0.00  0.00    +0.000 NA
ATOM     19  C   UNL     1      -4.989  12.939  22.111  0.00  0.00    +0.000 A 
ATOM     20  C   UNL     1      -3.905  12.795  21.262  0.00  0.00    +0.000 A 
ENDBRANCH   3  15
BRANCH   5  21
ATOM     21  C   UNL     1       1.589  13.134  19.734  0.00  0.00    +0.000 A 
ATOM     22  C   UNL     1       1.928  13.448  18.408  0.00  0.00    +0.000 A 
ATOM     23  C   UNL     1       3.094  14.155  18.097  0.00  0.00    +0.000 A 
ATOM     24  C   UNL     1       3.961  14.545  19.111  0.00  0.00    +0.000 A 
ATOM     25  C   UNL     1       3.657  14.237  20.433  0.00  0.00    +0.000 A 
ATOM     26  C   UNL     1       2.479  13.548  20.736  0.00  0.00    +0.000 A 
ENDBRANCH   5  21
TORSDOF 4
ENDMDL
MODEL 7
REMARK VINA RESULT:      -6.9      2.586      5.725
REMARK  Name = 
REMARK  6 active torsions:
REMARK  status: ('A' for Active; 'I' for Inactive)
REMARK    1  A    between atoms: C_1  and  N_2
REMARK    2  A    between atoms: N_2  and  C_3
REMARK    3  A    between atoms: N_2  and  C_4
REMARK    4  A    between atoms: C_7  and  C_8
REMARK    5  A    between atoms: C_10  and  C_11
REMARK    6  A    between atoms: N_18  and  C_19
REMARK                            x       y       z     vdW  Elec       q    Type
REMARK                         _______ _______ _______ _____ _____    ______ ____
ROOT
ATOM      1  C   UNL     1      -0.660  12.068  18.735  0.00  0.00    +0.000 C 
ATOM      2  C   UNL     1      -0.330  13.408  18.085  0.00  0.00    +0.000 C 
ATOM      3  C   UNL     1       0.443  14.066  19.189  0.00  0.00    +0.000 C 
ATOM      4  N   UNL     1       0.507  13.408  20.306  0.00  0.00    +0.000 NA
ATOM      5  N   UNL     1      -0.158  12.229  20.099  0.00  0.00    +0.000 N 
ENDROOT
BRANCH   1   9
ATOM      6  C   UNL     1      -4.962  11.293  18.455  0.00  0.00    +0.000 A 
ATOM      7  C   UNL     1      -4.028  10.649  17.627  0.00  0.00    +0.000 A 
ATOM      8  C   UNL     1      -2.651  10.899  17.715  0.00  0.00    +0.000 A 
ATOM      9  C   UNL     1      -2.151  11.796  18.662  0.00  0.00    +0.000 A 
ATOM     10  C   UNL     1      -3.065  12.436  19.505  0.00  0.00    +0.000 A 
ATOM     11  C   UNL     1      -4.435  12.176  19.409  0.00  0.00    +0.000 A 
BRANCH   6  13
ATOM     12  C   UNL     1      -7.231  12.152  17.972  0.00  0.00    +0.000 C 
ATOM     13  N   UNL     1      -6.335  11.066  18.354  0.00  0.00    +0.000 N 
ATOM     14  C   UNL     1      -6.914   9.970  19.128  0.00  0.00    +0.000 C 
ENDBRANCH   6  13
ENDBRANCH   1   9
BRANCH   3  15
ATOM     15  C   UNL     1       1.084  15.383  18.977  0.00  0.00    +0.000 A 
ATOM     16  C   UNL     1       2.456  15.545  19.149  0.00  0.00    +0.000 A 
ATOM     17  C   UNL     1       2.994  16.807  18.969  0.00  0.00    +0.000 A 
ATOM     18  N   UNL     1       2.263  17.887  18.634  0.00  0.00    +0.000 NA
ATOM     19  C   UNL     1       0.934  17.703  18.466  0.00  0.00    +0.000 A 
ATOM     20  C   UNL     1       0.299  16.482  18.622  0.00  0.00    +0.000 A 
ENDBRANCH   3  15
BRANCH   5  21
ATOM     21  C   UNL     1      -0.168  11.234  21.073  0.00  0.00    +0.000 A 
ATOM     22  C   UNL     1       0.622  10.083  20.923  0.00  0.00    +0.000 A 
ATOM     23  C   UNL     1       0.673   9.093  21.910  0.00  0.00    +0.000 A 
ATOM     24  C   UNL     1      -0.088   9.226  23.066  0.00  0.00    +0.000 A 
ATOM     25  C   UNL     1      -0.888  10.350  23.238  0.00  0.00    +0.000 A 
ATOM     26  C   UNL     1      -0.918  11.343  22.255  0.00  0.00    +0.000 A 
ENDBRANCH   5  21
TORSDOF 4
ENDMDL
MODEL 8
REMARK VINA RESULT:      -6.9      2.506      5.548
REMARK  Name = 
REMARK  6 active torsions:
REMARK  status: ('A' for Active; 'I' for Inactive)
REMARK    1  A    between atoms: C_1  and  N_2
REMARK    2  A    between atoms: N_2  and  C_3
REMARK    3  A    between atoms: N_2  and  C_4
REMARK    4  A    between atoms: C_7  and  C_8
REMARK    5  A    between atoms: C_10  and  C_11
REMARK    6  A    between atoms: N_18  and  C_19
REMARK                            x       y       z     vdW  Elec       q    Type
REMARK                         _______ _______ _______ _____ _____    ______ ____
ROOT
ATOM      1  C   UNL     1      -0.582  12.017  18.655  0.00  0.00    +0.000 C 
ATOM      2  C   UNL     1      -0.192  13.376  18.085  0.00  0.00    +0.000 C 
ATOM      3  C   UNL     1       0.572  13.951  19.243  0.00  0.00    +0.000 C 
ATOM      4  N   UNL     1       0.584  13.234  20.325  0.00  0.00    +0.000 NA
ATOM      5  N   UNL     1      -0.114  12.090  20.039  0.00  0.00    +0.000 N 
ENDROOT
BRANCH   1   9
ATOM      6  C   UNL     1      -4.904  11.367  18.361  0.00  0.00    +0.000 A 
ATOM      7  C   UNL     1      -4.332  12.162  19.367  0.00  0.00    +0.000 A 
ATOM      8  C   UNL     1      -2.948  12.368  19.463  0.00  0.00    +0.000 A 
ATOM      9  C   UNL     1      -2.078  11.799  18.530  0.00  0.00    +0.000 A 
ATOM     10  C   UNL     1      -2.632  11.015  17.511  0.00  0.00    +0.000 A 
ATOM     11  C   UNL     1      -4.013  10.820  17.425  0.00  0.00    +0.000 A 
BRANCH   6  13
ATOM     12  C   UNL     1      -7.175  12.219  17.879  0.00  0.00    +0.000 C 
ATOM     13  N   UNL     1      -6.278  11.140  18.276  0.00  0.00    +0.000 N 
ATOM     14  C   UNL     1      -6.852  10.061  19.077  0.00  0.00    +0.000 C 
ENDBRANCH   6  13
ENDBRANCH   1   9
BRANCH   3  15
ATOM     15  C   UNL     1       1.261  15.254  19.116  0.00  0.00    +0.000 A 
ATOM     16  C   UNL     1       2.475  15.357  18.443  0.00  0.00    +0.000 A 
ATOM     17  C   UNL     1       3.089  16.596  18.385  0.00  0.00    +0.000 A 
ATOM     18  N   UNL     1       2.574  17.708  18.944  0.00  0.00    +0.000 NA
ATOM     19  C   UNL     1       1.391  17.584  19.587  0.00  0.00    +0.000 A 
ATOM     20  C   UNL     1       0.698  16.391  19.700  0.00  0.00    +0.000 A 
ENDBRANCH   3  15
BRANCH   5  21
ATOM     21  C   UNL     1      -0.183  11.047  20.959  0.00  0.00    +0.000 A 
ATOM     22  C   UNL     1      -0.661  11.275  22.259  0.00  0.00    +0.000 A 
ATOM     23  C   UNL     1      -0.792  10.236  23.186  0.00  0.00    +0.000 A 
ATOM     24  C   UNL     1      -0.424   8.942  22.835  0.00  0.00    +0.000 A 
ATOM     25  C   UNL     1       0.064   8.688  21.557  0.00  0.00    +0.000 A 
ATOM     26  C   UNL     1       0.173   9.729  20.632  0.00  0.00    +0.000 A 
ENDBRANCH   5  21
TORSDOF 4
ENDMDL
MODEL 9
REMARK VINA RESULT:      -6.8      2.495      5.709
REMARK  Name = 
REMARK  6 active torsions:
REMARK  status: ('A' for Active; 'I' for Inactive)
REMARK    1  A    between atoms: C_1  and  N_2
REMARK    2  A    between atoms: N_2  and  C_3
REMARK    3  A    between atoms: N_2  and  C_4
REMARK    4  A    between atoms: C_7  and  C_8
REMARK    5  A    between atoms: C_10  and  C_11
REMARK    6  A    between atoms: N_18  and  C_19
REMARK                            x       y       z     vdW  Elec       q    Type
REMARK                         _______ _______ _______ _____ _____    ______ ____
ROOT
ATOM      1  C   UNL     1      -0.894  12.025  18.718  0.00  0.00    +0.000 C 
ATOM      2  C   UNL     1      -0.414  13.312  18.057  0.00  0.00    +0.000 C 
ATOM      3  C   UNL     1       0.639  13.748  19.033  0.00  0.00    +0.000 C 
ATOM      4  N   UNL     1       0.748  13.027  20.107  0.00  0.00    +0.000 NA
ATOM      5  N   UNL     1      -0.160  12.009  19.984  0.00  0.00    +0.000 N 
ENDROOT
BRANCH   1   9
ATOM      6  C   UNL     1      -5.238  12.059  19.275  0.00  0.00    +0.000 A 
ATOM      7  C   UNL     1      -4.364  12.722  20.152  0.00  0.00    +0.000 A 
ATOM      8  C   UNL     1      -2.973  12.709  19.975  0.00  0.00    +0.000 A 
ATOM      9  C   UNL     1      -2.401  12.044  18.888  0.00  0.00    +0.000 A 
ATOM     10  C   UNL     1      -3.258  11.390  17.996  0.00  0.00    +0.000 A 
ATOM     11  C   UNL     1      -4.643  11.414  18.182  0.00  0.00    +0.000 A 
BRANCH   6  13
ATOM     12  C   UNL     1      -7.235  11.054  20.334  0.00  0.00    +0.000 C 
ATOM     13  N   UNL     1      -6.621  12.049  19.462  0.00  0.00    +0.000 N 
ATOM     14  C   UNL     1      -7.464  12.627  18.417  0.00  0.00    +0.000 C 
ENDBRANCH   6  13
ENDBRANCH   1   9
BRANCH   3  15
ATOM     15  C   UNL     1       1.483  14.929  18.750  0.00  0.00    +0.000 A 
ATOM     16  C   UNL     1       1.002  16.218  18.962  0.00  0.00    +0.000 A 
ATOM     17  C   UNL     1       1.825  17.285  18.648  0.00  0.00    +0.000 A 
ATOM     18  N   UNL     1       3.069  17.144  18.151  0.00  0.00    +0.000 NA
ATOM     19  C   UNL     1       3.516  15.882  17.959  0.00  0.00    +0.000 A 
ATOM     20  C   UNL     1       2.772  14.749  18.242  0.00  0.00    +0.000 A 
ENDBRANCH   3  15
BRANCH   5  21
ATOM     21  C   UNL     1      -0.211  10.980  20.920  0.00  0.00    +0.000 A 
ATOM     22  C   UNL     1      -0.576  11.244  22.250  0.00  0.00    +0.000 A 
ATOM     23  C   UNL     1      -0.687  10.222  23.198  0.00  0.00    +0.000 A 
ATOM     24  C   UNL     1      -0.413   8.908  22.837  0.00  0.00    +0.000 A 
ATOM     25  C   UNL     1      -0.038   8.617  21.530  0.00  0.00    +0.000 A 
ATOM     26  C   UNL     1       0.051   9.642  20.585  0.00  0.00    +0.000 A 
ENDBRANCH   5  21
TORSDOF 4
ENDMDL
