MODEL 1
REMARK VINA RESULT:      -8.2      0.000      0.000
REMARK  Name = 
REMARK  3 active torsions:
REMARK  status: ('A' for Active; 'I' for Inactive)
REMARK    1  A    between atoms: C_1  and  N_2
REMARK    2  A    between atoms: C_5  and  C_7
REMARK    3  A    between atoms: C_12  and  C_13
REMARK                            x       y       z     vdW  Elec       q    Type
REMARK                         _______ _______ _______ _____ _____    ______ ____
ROOT
ATOM      1  C   UNL     1       6.572   6.398  16.748  0.00  0.00    +0.000 C 
ATOM      2  N   UNL     1       6.174   5.283  15.922  0.00  0.00    +0.000 N 
ATOM      3  C   UNL     1       5.121   4.423  16.127  0.00  0.00    +0.000 A 
ATOM      4  N   UNL     1       4.266   4.444  17.198  0.00  0.00    +0.000 N 
ATOM      5  C   UNL     1       4.724   4.087  18.456  0.00  0.00    +0.000 C 
ATOM      6  O   UNL     1       5.879   3.823  18.749  0.00  0.00    +0.000 OA
ATOM      7  N   UNL     1       4.888   3.686  15.066  0.00  0.00    +0.000 NA
ATOM      8  C   UNL     1       5.873   4.009  14.172  0.00  0.00    +0.000 A 
ATOM      9  C   UNL     1       6.128   3.478  12.900  0.00  0.00    +0.000 A 
ATOM     10  C   UNL     1       7.145   4.046  12.125  0.00  0.00    +0.000 A 
ATOM     11  C   UNL     1       7.891   5.124  12.606  0.00  0.00    +0.000 A 
ATOM     12  C   UNL     1       7.673   5.646  13.886  0.00  0.00    +0.000 A 
ATOM     13  C   UNL     1       6.664   5.049  14.653  0.00  0.00    +0.000 A 
ATOM     14  H   UNL     1       3.348   4.114  16.942  0.00  0.00    +0.000 HD
ENDROOT
BRANCH   5  15
ATOM     15  C   UNL     1       3.641   4.007  19.494  0.00  0.00    +0.000 A 
ATOM     16  C   UNL     1       3.490   2.795  20.206  0.00  0.00    +0.000 A 
ATOM     17  C   UNL     1       2.410   2.589  21.063  0.00  0.00    +0.000 A 
ATOM     18  C   UNL     1       1.484   3.602  21.258  0.00  0.00    +0.000 A 
ATOM     19  C   UNL     1       1.664   4.829  20.621  0.00  0.00    +0.000 A 
ATOM     20  C   UNL     1       2.743   5.062  19.731  0.00  0.00    +0.000 A 
BRANCH  20  21
ATOM     21  C   UNL     1       2.780   6.434  19.098  0.00  0.00    +0.000 C 
ATOM     22  F   UNL     1       3.976   6.939  18.720  0.00  0.00    +0.000 F 
ATOM     23  F   UNL     1       2.025   6.457  17.956  0.00  0.00    +0.000 F 
ATOM     24  F   UNL     1       2.214   7.375  19.910  0.00  0.00    +0.000 F 
ENDBRANCH  20  21
ENDBRANCH   5  15
TORSDOF 2
ENDMDL
MODEL 2
REMARK VINA RESULT:      -8.0      4.070      7.769
REMARK  Name = 
REMARK  3 active torsions:
REMARK  status: ('A' for Active; 'I' for Inactive)
REMARK    1  A    between atoms: C_1  and  N_2
REMARK    2  A    between atoms: C_5  and  C_7
REMARK    3  A    between atoms: C_12  and  C_13
REMARK                            x       y       z     vdW  Elec       q    Type
REMARK                         _______ _______ _______ _____ _____    ______ ____
ROOT
ATOM      1  C   UNL     1       1.664  10.077  18.359  0.00  0.00    +0.000 C 
ATOM      2  N   UNL     1       1.279   9.368  19.556  0.00  0.00    +0.000 N 
ATOM      3  C   UNL     1       1.760   8.161  20.006  0.00  0.00    +0.000 A 
ATOM      4  N   UNL     1       2.682   7.376  19.363  0.00  0.00    +0.000 N 
ATOM      5  C   UNL     1       2.341   6.733  18.184  0.00  0.00    +0.000 C 
ATOM      6  O   UNL     1       1.288   6.858  17.578  0.00  0.00    +0.000 OA
ATOM      7  N   UNL     1       1.387   7.924  21.242  0.00  0.00    +0.000 NA
ATOM      8  C   UNL     1       0.564   8.964  21.581  0.00  0.00    +0.000 A 
ATOM      9  C   UNL     1      -0.151   9.181  22.767  0.00  0.00    +0.000 A 
ATOM     10  C   UNL     1      -0.854  10.381  22.920  0.00  0.00    +0.000 A 
ATOM     11  C   UNL     1      -0.842  11.348  21.912  0.00  0.00    +0.000 A 
ATOM     12  C   UNL     1      -0.160  11.135  20.708  0.00  0.00    +0.000 A 
ATOM     13  C   UNL     1       0.519   9.918  20.568  0.00  0.00    +0.000 A 
ATOM     14  H   UNL     1       3.237   6.849  20.019  0.00  0.00    +0.000 HD
ENDROOT
BRANCH   5  15
ATOM     15  C   UNL     1       3.396   5.789  17.682  0.00  0.00    +0.000 A 
ATOM     16  C   UNL     1       4.510   6.335  17.004  0.00  0.00    +0.000 A 
ATOM     17  C   UNL     1       5.443   5.517  16.369  0.00  0.00    +0.000 A 
ATOM     18  C   UNL     1       5.306   4.139  16.434  0.00  0.00    +0.000 A 
ATOM     19  C   UNL     1       4.255   3.587  17.165  0.00  0.00    +0.000 A 
ATOM     20  C   UNL     1       3.281   4.393  17.806  0.00  0.00    +0.000 A 
BRANCH  20  21
ATOM     21  C   UNL     1       2.189   3.642  18.532  0.00  0.00    +0.000 C 
ATOM     22  F   UNL     1       1.886   4.006  19.798  0.00  0.00    +0.000 F 
ATOM     23  F   UNL     1       1.003   3.745  17.856  0.00  0.00    +0.000 F 
ATOM     24  F   UNL     1       2.449   2.302  18.578  0.00  0.00    +0.000 F 
ENDBRANCH  20  21
ENDBRANCH   5  15
TORSDOF 2
ENDMDL
MODEL 3
REMARK VINA RESULT:      -7.9      3.158      7.184
REMARK  Name = 
REMARK  3 active torsions:
REMARK  status: ('A' for Active; 'I' for Inactive)
REMARK    1  A    between atoms: C_1  and  N_2
REMARK    2  A    between atoms: C_5  and  C_7
REMARK    3  A    between atoms: C_12  and  C_13
REMARK                            x       y       z     vdW  Elec       q    Type
REMARK                         _______ _______ _______ _____ _____    ______ ____
ROOT
ATOM      1  C   UNL     1       1.861   5.727  20.590  0.00  0.00    +0.000 C 
ATOM      2  N   UNL     1       1.916   7.049  20.014  0.00  0.00    +0.000 N 
ATOM      3  C   UNL     1       2.439   7.411  18.795  0.00  0.00    +0.000 A 
ATOM      4  N   UNL     1       3.054   6.569  17.905  0.00  0.00    +0.000 N 
ATOM      5  C   UNL     1       4.293   6.027  18.209  0.00  0.00    +0.000 C 
ATOM      6  O   UNL     1       4.891   6.154  19.266  0.00  0.00    +0.000 OA
ATOM      7  N   UNL     1       2.104   8.638  18.472  0.00  0.00    +0.000 NA
ATOM      8  C   UNL     1       1.416   9.125  19.552  0.00  0.00    +0.000 A 
ATOM      9  C   UNL     1       0.880  10.404  19.760  0.00  0.00    +0.000 A 
ATOM     10  C   UNL     1       0.124  10.636  20.914  0.00  0.00    +0.000 A 
ATOM     11  C   UNL     1      -0.096   9.615  21.841  0.00  0.00    +0.000 A 
ATOM     12  C   UNL     1       0.459   8.342  21.666  0.00  0.00    +0.000 A 
ATOM     13  C   UNL     1       1.229   8.137  20.514  0.00  0.00    +0.000 A 
ATOM     14  H   UNL     1       2.917   6.875  16.954  0.00  0.00    +0.000 HD
ENDROOT
BRANCH   5  15
ATOM     15  C   UNL     1       4.909   5.255  17.078  0.00  0.00    +0.000 A 
ATOM     16  C   UNL     1       5.672   5.966  16.124  0.00  0.00    +0.000 A 
ATOM     17  C   UNL     1       6.135   5.350  14.962  0.00  0.00    +0.000 A 
ATOM     18  C   UNL     1       5.882   4.004  14.750  0.00  0.00    +0.000 A 
ATOM     19  C   UNL     1       5.197   3.273  15.720  0.00  0.00    +0.000 A 
ATOM     20  C   UNL     1       4.699   3.876  16.902  0.00  0.00    +0.000 A 
BRANCH  20  21
ATOM     21  C   UNL     1       3.952   2.954  17.838  0.00  0.00    +0.000 C 
ATOM     22  F   UNL     1       3.907   1.634  17.545  0.00  0.00    +0.000 F 
ATOM     23  F   UNL     1       4.492   3.004  19.095  0.00  0.00    +0.000 F 
ATOM     24  F   UNL     1       2.654   3.348  17.998  0.00  0.00    +0.000 F 
ENDBRANCH  20  21
ENDBRANCH   5  15
TORSDOF 2
ENDMDL
MODEL 4
REMARK VINA RESULT:      -7.9      2.031      2.534
REMARK  Name = 
REMARK  3 active torsions:
REMARK  status: ('A' for Active; 'I' for Inactive)
REMARK    1  A    between atoms: C_1  and  N_2
REMARK    2  A    between atoms: C_5  and  C_7
REMARK    3  A    between atoms: C_12  and  C_13
REMARK                            x       y       z     vdW  Elec       q    Type
REMARK                         _______ _______ _______ _____ _____    ______ ____
ROOT
ATOM      1  C   UNL     1       6.701   6.351  16.622  0.00  0.00    +0.000 C 
ATOM      2  N   UNL     1       6.233   5.305  15.745  0.00  0.00    +0.000 N 
ATOM      3  C   UNL     1       5.091   4.551  15.875  0.00  0.00    +0.000 A 
ATOM      4  N   UNL     1       4.191   4.631  16.906  0.00  0.00    +0.000 N 
ATOM      5  C   UNL     1       4.549   4.197  18.172  0.00  0.00    +0.000 C 
ATOM      6  O   UNL     1       5.657   3.810  18.510  0.00  0.00    +0.000 OA
ATOM      7  N   UNL     1       4.837   3.869  14.782  0.00  0.00    +0.000 NA
ATOM      8  C   UNL     1       5.892   4.114  13.945  0.00  0.00    +0.000 A 
ATOM      9  C   UNL     1       6.154   3.592  12.670  0.00  0.00    +0.000 A 
ATOM     10  C   UNL     1       7.259   4.073  11.960  0.00  0.00    +0.000 A 
ATOM     11  C   UNL     1       8.086   5.057  12.508  0.00  0.00    +0.000 A 
ATOM     12  C   UNL     1       7.858   5.566  13.792  0.00  0.00    +0.000 A 
ATOM     13  C   UNL     1       6.759   5.055  14.493  0.00  0.00    +0.000 A 
ATOM     14  H   UNL     1       3.258   4.403  16.598  0.00  0.00    +0.000 HD
ENDROOT
BRANCH   5  15
ATOM     15  C   UNL     1       3.415   4.201  19.156  0.00  0.00    +0.000 A 
ATOM     16  C   UNL     1       3.221   5.358  19.945  0.00  0.00    +0.000 A 
ATOM     17  C   UNL     1       2.298   5.376  20.990  0.00  0.00    +0.000 A 
ATOM     18  C   UNL     1       1.521   4.255  21.240  0.00  0.00    +0.000 A 
ATOM     19  C   UNL     1       1.648   3.135  20.420  0.00  0.00    +0.000 A 
ATOM     20  C   UNL     1       2.590   3.081  19.362  0.00  0.00    +0.000 A 
BRANCH  20  21
ATOM     21  C   UNL     1       2.624   1.784  18.586  0.00  0.00    +0.000 C 
ATOM     22  F   UNL     1       3.753   1.041  18.619  0.00  0.00    +0.000 F 
ATOM     23  F   UNL     1       1.645   0.934  19.028  0.00  0.00    +0.000 F 
ATOM     24  F   UNL     1       2.343   1.984  17.265  0.00  0.00    +0.000 F 
ENDBRANCH  20  21
ENDBRANCH   5  15
TORSDOF 2
ENDMDL
MODEL 5
REMARK VINA RESULT:      -7.6      4.218      7.026
REMARK  Name = 
REMARK  3 active torsions:
REMARK  status: ('A' for Active; 'I' for Inactive)
REMARK    1  A    between atoms: C_1  and  N_2
REMARK    2  A    between atoms: C_5  and  C_7
REMARK    3  A    between atoms: C_12  and  C_13
REMARK                            x       y       z     vdW  Elec       q    Type
REMARK                         _______ _______ _______ _____ _____    ______ ____
ROOT
ATOM      1  C   UNL     1       0.316   8.836  20.552  0.00  0.00    +0.000 C 
ATOM      2  N   UNL     1       1.134   9.548  19.600  0.00  0.00    +0.000 N 
ATOM      3  C   UNL     1       1.778   9.035  18.499  0.00  0.00    +0.000 A 
ATOM      4  N   UNL     1       1.793   7.717  18.122  0.00  0.00    +0.000 N 
ATOM      5  C   UNL     1       2.482   6.787  18.884  0.00  0.00    +0.000 C 
ATOM      6  O   UNL     1       3.035   7.004  19.951  0.00  0.00    +0.000 OA
ATOM      7  N   UNL     1       2.222   9.987  17.713  0.00  0.00    +0.000 NA
ATOM      8  C   UNL     1       1.940  11.159  18.363  0.00  0.00    +0.000 A 
ATOM      9  C   UNL     1       2.247  12.476  17.993  0.00  0.00    +0.000 A 
ATOM     10  C   UNL     1       1.762  13.526  18.779  0.00  0.00    +0.000 A 
ATOM     11  C   UNL     1       0.982  13.270  19.910  0.00  0.00    +0.000 A 
ATOM     12  C   UNL     1       0.693  11.961  20.312  0.00  0.00    +0.000 A 
ATOM     13  C   UNL     1       1.206  10.925  19.522  0.00  0.00    +0.000 A 
ATOM     14  H   UNL     1       1.866   7.622  17.121  0.00  0.00    +0.000 HD
ENDROOT
BRANCH   5  15
ATOM     15  C   UNL     1       2.540   5.421  18.264  0.00  0.00    +0.000 A 
ATOM     16  C   UNL     1       1.522   4.497  18.594  0.00  0.00    +0.000 A 
ATOM     17  C   UNL     1       1.596   3.164  18.191  0.00  0.00    +0.000 A 
ATOM     18  C   UNL     1       2.664   2.737  17.418  0.00  0.00    +0.000 A 
ATOM     19  C   UNL     1       3.635   3.656  17.022  0.00  0.00    +0.000 A 
ATOM     20  C   UNL     1       3.595   5.013  17.430  0.00  0.00    +0.000 A 
BRANCH  20  21
ATOM     21  C   UNL     1       4.738   5.874  16.941  0.00  0.00    +0.000 C 
ATOM     22  F   UNL     1       4.450   7.055  16.350  0.00  0.00    +0.000 F 
ATOM     23  F   UNL     1       5.568   6.206  17.978  0.00  0.00    +0.000 F 
ATOM     24  F   UNL     1       5.533   5.197  16.060  0.00  0.00    +0.000 F 
ENDBRANCH  20  21
ENDBRANCH   5  15
TORSDOF 2
ENDMDL
MODEL 6
REMARK VINA RESULT:      -7.4      3.027      7.264
REMARK  Name = 
REMARK  3 active torsions:
REMARK  status: ('A' for Active; 'I' for Inactive)
REMARK    1  A    between atoms: C_1  and  N_2
REMARK    2  A    between atoms: C_5  and  C_7
REMARK    3  A    between atoms: C_12  and  C_13
REMARK                            x       y       z     vdW  Elec       q    Type
REMARK                         _______ _______ _______ _____ _____    ______ ____
ROOT
ATOM      1  C   UNL     1       1.751   5.357  20.448  0.00  0.00    +0.000 C 
ATOM      2  N   UNL     1       1.865   6.747  20.076  0.00  0.00    +0.000 N 
ATOM      3  C   UNL     1       2.513   7.272  18.982  0.00  0.00    +0.000 A 
ATOM      4  N   UNL     1       3.219   6.556  18.051  0.00  0.00    +0.000 N 
ATOM      5  C   UNL     1       4.420   5.960  18.401  0.00  0.00    +0.000 C 
ATOM      6  O   UNL     1       4.903   5.927  19.522  0.00  0.00    +0.000 OA
ATOM      7  N   UNL     1       2.212   8.537  18.805  0.00  0.00    +0.000 NA
ATOM      8  C   UNL     1       1.413   8.875  19.865  0.00  0.00    +0.000 A 
ATOM      9  C   UNL     1       0.856  10.118  20.197  0.00  0.00    +0.000 A 
ATOM     10  C   UNL     1      -0.017  10.195  21.287  0.00  0.00    +0.000 A 
ATOM     11  C   UNL     1      -0.332   9.055  22.031  0.00  0.00    +0.000 A 
ATOM     12  C   UNL     1       0.240   7.812  21.734  0.00  0.00    +0.000 A 
ATOM     13  C   UNL     1       1.127   7.762  20.651  0.00  0.00    +0.000 A 
ATOM     14  H   UNL     1       3.183   6.996  17.144  0.00  0.00    +0.000 HD
ENDROOT
BRANCH   5  15
ATOM     15  C   UNL     1       5.153   5.348  17.242  0.00  0.00    +0.000 A 
ATOM     16  C   UNL     1       4.569   4.232  16.601  0.00  0.00    +0.000 A 
ATOM     17  C   UNL     1       5.263   3.511  15.629  0.00  0.00    +0.000 A 
ATOM     18  C   UNL     1       6.533   3.915  15.249  0.00  0.00    +0.000 A 
ATOM     19  C   UNL     1       7.088   5.060  15.819  0.00  0.00    +0.000 A 
ATOM     20  C   UNL     1       6.415   5.802  16.822  0.00  0.00    +0.000 A 
BRANCH  20  21
ATOM     21  C   UNL     1       7.165   6.999  17.359  0.00  0.00    +0.000 C 
ATOM     22  F   UNL     1       6.467   8.118  17.657  0.00  0.00    +0.000 F 
ATOM     23  F   UNL     1       7.808   6.680  18.525  0.00  0.00    +0.000 F 
ATOM     24  F   UNL     1       8.158   7.391  16.508  0.00  0.00    +0.000 F 
ENDBRANCH  20  21
ENDBRANCH   5  15
TORSDOF 2
ENDMDL
MODEL 7
REMARK VINA RESULT:      -7.3      4.227      7.321
REMARK  Name = 
REMARK  3 active torsions:
REMARK  status: ('A' for Active; 'I' for Inactive)
REMARK    1  A    between atoms: C_1  and  N_2
REMARK    2  A    between atoms: C_5  and  C_7
REMARK    3  A    between atoms: C_12  and  C_13
REMARK                            x       y       z     vdW  Elec       q    Type
REMARK                         _______ _______ _______ _____ _____    ______ ____
ROOT
ATOM      1  C   UNL     1       2.265   9.170  17.856  0.00  0.00    +0.000 C 
ATOM      2  N   UNL     1       1.494   9.083  19.072  0.00  0.00    +0.000 N 
ATOM      3  C   UNL     1       1.591   8.131  20.060  0.00  0.00    +0.000 A 
ATOM      4  N   UNL     1       2.429   7.046  20.046  0.00  0.00    +0.000 N 
ATOM      5  C   UNL     1       2.204   6.010  19.153  0.00  0.00    +0.000 C 
ATOM      6  O   UNL     1       1.354   5.991  18.277  0.00  0.00    +0.000 OA
ATOM      7  N   UNL     1       0.929   8.484  21.136  0.00  0.00    +0.000 NA
ATOM      8  C   UNL     1       0.305   9.659  20.813  0.00  0.00    +0.000 A 
ATOM      9  C   UNL     1      -0.573  10.439  21.579  0.00  0.00    +0.000 A 
ATOM     10  C   UNL     1      -1.008  11.664  21.064  0.00  0.00    +0.000 A 
ATOM     11  C   UNL     1      -0.574  12.107  19.812  0.00  0.00    +0.000 A 
ATOM     12  C   UNL     1       0.277  11.327  19.020  0.00  0.00    +0.000 A 
ATOM     13  C   UNL     1       0.683  10.095  19.546  0.00  0.00    +0.000 A 
ATOM     14  H   UNL     1       2.706   6.783  20.980  0.00  0.00    +0.000 HD
ENDROOT
BRANCH   5  15
ATOM     15  C   UNL     1       3.103   4.826  19.362  0.00  0.00    +0.000 A 
ATOM     16  C   UNL     1       4.450   4.931  18.944  0.00  0.00    +0.000 A 
ATOM     17  C   UNL     1       5.299   3.824  18.953  0.00  0.00    +0.000 A 
ATOM     18  C   UNL     1       4.834   2.604  19.418  0.00  0.00    +0.000 A 
ATOM     19  C   UNL     1       3.531   2.507  19.905  0.00  0.00    +0.000 A 
ATOM     20  C   UNL     1       2.640   3.609  19.892  0.00  0.00    +0.000 A 
BRANCH  20  21
ATOM     21  C   UNL     1       1.253   3.332  20.427  0.00  0.00    +0.000 C 
ATOM     22  F   UNL     1       1.125   2.508  21.491  0.00  0.00    +0.000 F 
ATOM     23  F   UNL     1       0.649   4.495  20.823  0.00  0.00    +0.000 F 
ATOM     24  F   UNL     1       0.435   2.825  19.458  0.00  0.00    +0.000 F 
ENDBRANCH  20  21
ENDBRANCH   5  15
TORSDOF 2
ENDMDL
MODEL 8
REMARK VINA RESULT:      -7.3      3.901      7.136
REMARK  Name = 
REMARK  3 active torsions:
REMARK  status: ('A' for Active; 'I' for Inactive)
REMARK    1  A    between atoms: C_1  and  N_2
REMARK    2  A    between atoms: C_5  and  C_7
REMARK    3  A    between atoms: C_12  and  C_13
REMARK                            x       y       z     vdW  Elec       q    Type
REMARK                         _______ _______ _______ _____ _____    ______ ____
ROOT
ATOM      1  C   UNL     1       2.477   8.913  17.853  0.00  0.00    +0.000 C 
ATOM      2  N   UNL     1       1.800   8.747  19.116  0.00  0.00    +0.000 N 
ATOM      3  C   UNL     1       1.851   7.660  19.958  0.00  0.00    +0.000 A 
ATOM      4  N   UNL     1       2.537   6.497  19.723  0.00  0.00    +0.000 N 
ATOM      5  C   UNL     1       2.111   5.631  18.729  0.00  0.00    +0.000 C 
ATOM      6  O   UNL     1       1.199   5.836  17.943  0.00  0.00    +0.000 OA
ATOM      7  N   UNL     1       1.327   7.933  21.130  0.00  0.00    +0.000 NA
ATOM      8  C   UNL     1       0.837   9.207  21.024  0.00  0.00    +0.000 A 
ATOM      9  C   UNL     1       0.130   9.969  21.965  0.00  0.00    +0.000 A 
ATOM     10  C   UNL     1      -0.182  11.297  21.658  0.00  0.00    +0.000 A 
ATOM     11  C   UNL     1       0.205  11.858  20.438  0.00  0.00    +0.000 A 
ATOM     12  C   UNL     1       0.882  11.103  19.473  0.00  0.00    +0.000 A 
ATOM     13  C   UNL     1       1.167   9.769  19.793  0.00  0.00    +0.000 A 
ATOM     14  H   UNL     1       2.851   6.075  20.583  0.00  0.00    +0.000 HD
ENDROOT
BRANCH   5  15
ATOM     15  C   UNL     1       2.863   4.332  18.694  0.00  0.00    +0.000 A 
ATOM     16  C   UNL     1       3.776   4.119  17.636  0.00  0.00    +0.000 A 
ATOM     17  C   UNL     1       4.386   2.880  17.444  0.00  0.00    +0.000 A 
ATOM     18  C   UNL     1       4.131   1.843  18.329  0.00  0.00    +0.000 A 
ATOM     19  C   UNL     1       3.292   2.064  19.421  0.00  0.00    +0.000 A 
ATOM     20  C   UNL     1       2.644   3.307  19.631  0.00  0.00    +0.000 A 
BRANCH  20  21
ATOM     21  C   UNL     1       1.745   3.375  20.844  0.00  0.00    +0.000 C 
ATOM     22  F   UNL     1       0.505   3.895  20.700  0.00  0.00    +0.000 F 
ATOM     23  F   UNL     1       1.531   2.123  21.355  0.00  0.00    +0.000 F 
ATOM     24  F   UNL     1       2.329   4.073  21.862  0.00  0.00    +0.000 F 
ENDBRANCH  20  21
ENDBRANCH   5  15
TORSDOF 2
ENDMDL
MODEL 9
REMARK VINA RESULT:      -7.3      3.969      6.703
REMARK  Name = 
REMARK  3 active torsions:
REMARK  status: ('A' for Active; 'I' for Inactive)
REMARK    1  A    between atoms: C_1  and  N_2
REMARK    2  A    between atoms: C_5  and  C_7
REMARK    3  A    between atoms: C_12  and  C_13
REMARK                            x       y       z     vdW  Elec       q    Type
REMARK                         _______ _______ _______ _____ _____    ______ ____
ROOT
ATOM      1  C   UNL     1       0.787   8.395  20.907  0.00  0.00    +0.000 C 
ATOM      2  N   UNL     1       1.419   9.007  19.763  0.00  0.00    +0.000 N 
ATOM      3  C   UNL     1       1.895   8.382  18.634  0.00  0.00    +0.000 A 
ATOM      4  N   UNL     1       1.893   7.030  18.406  0.00  0.00    +0.000 N 
ATOM      5  C   UNL     1       2.725   6.202  19.142  0.00  0.00    +0.000 C 
ATOM      6  O   UNL     1       3.434   6.546  20.075  0.00  0.00    +0.000 OA
ATOM      7  N   UNL     1       2.177   9.246  17.687  0.00  0.00    +0.000 NA
ATOM      8  C   UNL     1       1.964  10.479  18.243  0.00  0.00    +0.000 A 
ATOM      9  C   UNL     1       2.166  11.750  17.687  0.00  0.00    +0.000 A 
ATOM     10  C   UNL     1       1.778  12.875  18.423  0.00  0.00    +0.000 A 
ATOM     11  C   UNL     1       1.198  12.737  19.686  0.00  0.00    +0.000 A 
ATOM     12  C   UNL     1       1.019  11.477  20.270  0.00  0.00    +0.000 A 
ATOM     13  C   UNL     1       1.433  10.366  19.525  0.00  0.00    +0.000 A 
ATOM     14  H   UNL     1       1.808   6.824  17.422  0.00  0.00    +0.000 HD
ENDROOT
BRANCH   5  15
ATOM     15  C   UNL     1       2.728   4.776  18.674  0.00  0.00    +0.000 A 
ATOM     16  C   UNL     1       3.354   4.480  17.442  0.00  0.00    +0.000 A 
ATOM     17  C   UNL     1       3.255   3.215  16.864  0.00  0.00    +0.000 A 
ATOM     18  C   UNL     1       2.565   2.210  17.524  0.00  0.00    +0.000 A 
ATOM     19  C   UNL     1       2.008   2.467  18.776  0.00  0.00    +0.000 A 
ATOM     20  C   UNL     1       2.078   3.748  19.380  0.00  0.00    +0.000 A 
BRANCH  20  21
ATOM     21  C   UNL     1       1.398   3.871  20.724  0.00  0.00    +0.000 C 
ATOM     22  F   UNL     1       0.753   2.793  21.223  0.00  0.00    +0.000 F 
ATOM     23  F   UNL     1       2.307   4.201  21.694  0.00  0.00    +0.000 F 
ATOM     24  F   UNL     1       0.490   4.891  20.735  0.00  0.00    +0.000 F 
ENDBRANCH  20  21
ENDBRANCH   5  15
TORSDOF 2
ENDMDL
