MODEL 1
REMARK VINA RESULT:      -8.1      0.000      0.000
REMARK  Name = 
REMARK  5 active torsions:
REMARK  status: ('A' for Active; 'I' for Inactive)
REMARK    1  A    between atoms: C_2  and  C_3
REMARK    2  A    between atoms: C_3  and  N_4
REMARK    3  A    between atoms: N_4  and  C_18
REMARK    4  A    between atoms: N_7  and  C_8
REMARK    5  A    between atoms: C_13  and  C_14
REMARK                            x       y       z     vdW  Elec       q    Type
REMARK                         _______ _______ _______ _____ _____    ______ ____
ROOT
ATOM      1  N   UNL     1       4.101   4.825  17.571  0.00  0.00    +0.000 N 
ATOM      2  C   UNL     1       2.922   5.535  17.955  0.00  0.00    +0.000 C 
ATOM      3  O   UNL     1       1.799   5.098  17.809  0.00  0.00    +0.000 OA
ATOM      4  N   UNL     1       3.195   6.829  18.432  0.00  0.00    +0.000 N 
ATOM      5  H   UNL     1       4.127   7.177  18.265  0.00  0.00    +0.000 HD
ENDROOT
BRANCH   4   6
ATOM      6  C   UNL     1       2.281   7.812  18.885  0.00  0.00    +0.000 A 
ATOM      7  C   UNL     1       1.746   8.810  18.051  0.00  0.00    +0.000 A 
ATOM      8  C   UNL     1       0.862   9.791  18.537  0.00  0.00    +0.000 A 
ATOM      9  C   UNL     1       0.554   9.710  19.888  0.00  0.00    +0.000 A 
ATOM     10  O   UNL     1      -0.251  10.538  20.618  0.00  0.00    +0.000 OA
ATOM     11  C   UNL     1      -0.199  10.011  21.883  0.00  0.00    +0.000 A 
ATOM     12  C   UNL     1      -0.960  10.714  22.936  0.00  0.00    +0.000 C 
ATOM     13  N   UNL     1       0.547   8.930  22.005  0.00  0.00    +0.000 NA
ATOM     14  C   UNL     1       1.038   8.734  20.740  0.00  0.00    +0.000 A 
ATOM     15  C   UNL     1       1.902   7.752  20.234  0.00  0.00    +0.000 A 
ENDBRANCH   4   6
BRANCH   1  16
ATOM     16  C   UNL     1       5.402   5.337  17.856  0.00  0.00    +0.000 A 
ATOM     17  C   UNL     1       6.062   5.050  19.062  0.00  0.00    +0.000 A 
ATOM     18  C   UNL     1       7.269   5.675  19.373  0.00  0.00    +0.000 A 
ATOM     19  C   UNL     1       7.831   6.583  18.478  0.00  0.00    +0.000 A 
ATOM     20  C   UNL     1       7.196   6.851  17.269  0.00  0.00    +0.000 A 
ATOM     21  C   UNL     1       5.989   6.231  16.953  0.00  0.00    +0.000 A 
ENDBRANCH   1  16
BRANCH   1  22
ATOM     22  C   UNL     1       4.081   3.416  17.064  0.00  0.00    +0.000 C 
BRANCH  22  24
ATOM     23  C   UNL     1       3.897   2.156  19.265  0.00  0.00    +0.000 C 
ATOM     24  C   UNL     1       3.532   2.364  17.999  0.00  0.00    +0.000 C 
ENDBRANCH  22  24
ENDBRANCH   1  22
TORSDOF 4
ENDMDL
MODEL 2
REMARK VINA RESULT:      -8.1      0.378      1.089
REMARK  Name = 
REMARK  5 active torsions:
REMARK  status: ('A' for Active; 'I' for Inactive)
REMARK    1  A    between atoms: C_2  and  C_3
REMARK    2  A    between atoms: C_3  and  N_4
REMARK    3  A    between atoms: N_4  and  C_18
REMARK    4  A    between atoms: N_7  and  C_8
REMARK    5  A    between atoms: C_13  and  C_14
REMARK                            x       y       z     vdW  Elec       q    Type
REMARK                         _______ _______ _______ _____ _____    ______ ____
ROOT
ATOM      1  N   UNL     1       4.054   5.115  17.597  0.00  0.00    +0.000 N 
ATOM      2  C   UNL     1       2.850   5.786  17.975  0.00  0.00    +0.000 C 
ATOM      3  O   UNL     1       1.741   5.332  17.783  0.00  0.00    +0.000 OA
ATOM      4  N   UNL     1       3.082   7.066  18.507  0.00  0.00    +0.000 N 
ATOM      5  H   UNL     1       4.010   7.440  18.379  0.00  0.00    +0.000 HD
ENDROOT
BRANCH   4   6
ATOM      6  C   UNL     1       2.135   8.013  18.971  0.00  0.00    +0.000 A 
ATOM      7  C   UNL     1       1.545   8.983  18.141  0.00  0.00    +0.000 A 
ATOM      8  C   UNL     1       0.628   9.928  18.638  0.00  0.00    +0.000 A 
ATOM      9  C   UNL     1       0.347   9.842  19.995  0.00  0.00    +0.000 A 
ATOM     10  O   UNL     1      -0.479  10.639  20.734  0.00  0.00    +0.000 OA
ATOM     11  C   UNL     1      -0.384  10.122  22.000  0.00  0.00    +0.000 A 
ATOM     12  C   UNL     1      -1.156  10.798  23.063  0.00  0.00    +0.000 C 
ATOM     13  N   UNL     1       0.409   9.073  22.115  0.00  0.00    +0.000 NA
ATOM     14  C   UNL     1       0.887   8.891  20.843  0.00  0.00    +0.000 A 
ATOM     15  C   UNL     1       1.782   7.944  20.327  0.00  0.00    +0.000 A 
ENDBRANCH   4   6
BRANCH   1  16
ATOM     16  C   UNL     1       5.336   5.644  17.937  0.00  0.00    +0.000 A 
ATOM     17  C   UNL     1       6.042   6.488  17.066  0.00  0.00    +0.000 A 
ATOM     18  C   UNL     1       7.348   6.877  17.363  0.00  0.00    +0.000 A 
ATOM     19  C   UNL     1       7.955   6.434  18.536  0.00  0.00    +0.000 A 
ATOM     20  C   UNL     1       7.250   5.618  19.418  0.00  0.00    +0.000 A 
ATOM     21  C   UNL     1       5.945   5.225  19.126  0.00  0.00    +0.000 A 
ENDBRANCH   1  16
BRANCH   1  22
ATOM     22  C   UNL     1       4.078   3.727  17.039  0.00  0.00    +0.000 C 
BRANCH  22  24
ATOM     23  C   UNL     1       2.660   2.018  18.277  0.00  0.00    +0.000 C 
ATOM     24  C   UNL     1       3.832   2.597  18.010  0.00  0.00    +0.000 C 
ENDBRANCH  22  24
ENDBRANCH   1  22
TORSDOF 4
ENDMDL
MODEL 3
REMARK VINA RESULT:      -8.1      0.854      1.677
REMARK  Name = 
REMARK  5 active torsions:
REMARK  status: ('A' for Active; 'I' for Inactive)
REMARK    1  A    between atoms: C_2  and  C_3
REMARK    2  A    between atoms: C_3  and  N_4
REMARK    3  A    between atoms: N_4  and  C_18
REMARK    4  A    between atoms: N_7  and  C_8
REMARK    5  A    between atoms: C_13  and  C_14
REMARK                            x       y       z     vdW  Elec       q    Type
REMARK                         _______ _______ _______ _____ _____    ______ ____
ROOT
ATOM      1  N   UNL     1       4.310   5.301  17.518  0.00  0.00    +0.000 N 
ATOM      2  C   UNL     1       3.065   5.895  17.894  0.00  0.00    +0.000 C 
ATOM      3  O   UNL     1       1.986   5.395  17.657  0.00  0.00    +0.000 OA
ATOM      4  N   UNL     1       3.221   7.163  18.481  0.00  0.00    +0.000 N 
ATOM      5  H   UNL     1       4.132   7.587  18.389  0.00  0.00    +0.000 HD
ENDROOT
BRANCH   4   6
ATOM      6  C   UNL     1       2.217   8.042  18.959  0.00  0.00    +0.000 A 
ATOM      7  C   UNL     1       1.532   8.951  18.134  0.00  0.00    +0.000 A 
ATOM      8  C   UNL     1       0.559   9.831  18.644  0.00  0.00    +0.000 A 
ATOM      9  C   UNL     1       0.323   9.744  20.009  0.00  0.00    +0.000 A 
ATOM     10  O   UNL     1      -0.542  10.487  20.761  0.00  0.00    +0.000 OA
ATOM     11  C   UNL     1      -0.372   9.998  22.031  0.00  0.00    +0.000 A 
ATOM     12  C   UNL     1      -1.164  10.630  23.106  0.00  0.00    +0.000 C 
ATOM     13  N   UNL     1       0.501   9.015  22.136  0.00  0.00    +0.000 NA
ATOM     14  C   UNL     1       0.956   8.850  20.853  0.00  0.00    +0.000 A 
ATOM     15  C   UNL     1       1.908   7.967  20.325  0.00  0.00    +0.000 A 
ENDBRANCH   4   6
BRANCH   1  16
ATOM     16  C   UNL     1       5.556   5.879  17.909  0.00  0.00    +0.000 A 
ATOM     17  C   UNL     1       6.154   6.913  17.172  0.00  0.00    +0.000 A 
ATOM     18  C   UNL     1       7.434   7.363  17.497  0.00  0.00    +0.000 A 
ATOM     19  C   UNL     1       8.121   6.790  18.565  0.00  0.00    +0.000 A 
ATOM     20  C   UNL     1       7.522   5.782  19.317  0.00  0.00    +0.000 A 
ATOM     21  C   UNL     1       6.244   5.328  18.997  0.00  0.00    +0.000 A 
ENDBRANCH   1  16
BRANCH   1  22
ATOM     22  C   UNL     1       4.417   3.940  16.906  0.00  0.00    +0.000 C 
BRANCH  22  24
ATOM     23  C   UNL     1       5.533   4.190  14.636  0.00  0.00    +0.000 C 
ATOM     24  C   UNL     1       5.514   3.734  15.889  0.00  0.00    +0.000 C 
ENDBRANCH  22  24
ENDBRANCH   1  22
TORSDOF 4
ENDMDL
MODEL 4
REMARK VINA RESULT:      -7.9      1.296      3.203
REMARK  Name = 
REMARK  5 active torsions:
REMARK  status: ('A' for Active; 'I' for Inactive)
REMARK    1  A    between atoms: C_2  and  C_3
REMARK    2  A    between atoms: C_3  and  N_4
REMARK    3  A    between atoms: N_4  and  C_18
REMARK    4  A    between atoms: N_7  and  C_8
REMARK    5  A    between atoms: C_13  and  C_14
REMARK                            x       y       z     vdW  Elec       q    Type
REMARK                         _______ _______ _______ _____ _____    ______ ____
ROOT
ATOM      1  N   UNL     1       4.957   5.092  17.591  0.00  0.00    +0.000 N 
ATOM      2  C   UNL     1       4.402   6.405  17.699  0.00  0.00    +0.000 C 
ATOM      3  O   UNL     1       4.950   7.401  17.276  0.00  0.00    +0.000 OA
ATOM      4  N   UNL     1       3.202   6.431  18.430  0.00  0.00    +0.000 N 
ATOM      5  H   UNL     1       2.979   5.596  18.952  0.00  0.00    +0.000 HD
ENDROOT
BRANCH   4   6
ATOM      6  C   UNL     1       2.387   7.547  18.747  0.00  0.00    +0.000 A 
ATOM      7  C   UNL     1       1.993   8.507  17.798  0.00  0.00    +0.000 A 
ATOM      8  C   UNL     1       1.207   9.620  18.149  0.00  0.00    +0.000 A 
ATOM      9  C   UNL     1       0.848   9.708  19.487  0.00  0.00    +0.000 A 
ATOM     10  O   UNL     1       0.115  10.685  20.098  0.00  0.00    +0.000 OA
ATOM     11  C   UNL     1       0.067  10.285  21.409  0.00  0.00    +0.000 A 
ATOM     12  C   UNL     1      -0.646  11.167  22.355  0.00  0.00    +0.000 C 
ATOM     13  N   UNL     1       0.684   9.148  21.666  0.00  0.00    +0.000 NA
ATOM     14  C   UNL     1       1.193   8.775  20.449  0.00  0.00    +0.000 A 
ATOM     15  C   UNL     1       1.960   7.662  20.078  0.00  0.00    +0.000 A 
ENDBRANCH   4   6
BRANCH   1  16
ATOM     16  C   UNL     1       4.227   3.940  18.014  0.00  0.00    +0.000 A 
ATOM     17  C   UNL     1       3.247   3.348  17.202  0.00  0.00    +0.000 A 
ATOM     18  C   UNL     1       2.454   2.311  17.695  0.00  0.00    +0.000 A 
ATOM     19  C   UNL     1       2.641   1.853  18.997  0.00  0.00    +0.000 A 
ATOM     20  C   UNL     1       3.630   2.418  19.797  0.00  0.00    +0.000 A 
ATOM     21  C   UNL     1       4.425   3.455  19.312  0.00  0.00    +0.000 A 
ENDBRANCH   1  16
BRANCH   1  22
ATOM     22  C   UNL     1       6.212   4.793  16.833  0.00  0.00    +0.000 C 
BRANCH  22  24
ATOM     23  C   UNL     1       7.861   5.484  18.641  0.00  0.00    +0.000 C 
ATOM     24  C   UNL     1       7.486   4.689  17.639  0.00  0.00    +0.000 C 
ENDBRANCH  22  24
ENDBRANCH   1  22
TORSDOF 4
ENDMDL
MODEL 5
REMARK VINA RESULT:      -7.9      0.903      1.420
REMARK  Name = 
REMARK  5 active torsions:
REMARK  status: ('A' for Active; 'I' for Inactive)
REMARK    1  A    between atoms: C_2  and  C_3
REMARK    2  A    between atoms: C_3  and  N_4
REMARK    3  A    between atoms: N_4  and  C_18
REMARK    4  A    between atoms: N_7  and  C_8
REMARK    5  A    between atoms: C_13  and  C_14
REMARK                            x       y       z     vdW  Elec       q    Type
REMARK                         _______ _______ _______ _____ _____    ______ ____
ROOT
ATOM      1  N   UNL     1       4.572   5.114  17.377  0.00  0.00    +0.000 N 
ATOM      2  C   UNL     1       3.327   5.693  17.774  0.00  0.00    +0.000 C 
ATOM      3  O   UNL     1       2.251   5.168  17.577  0.00  0.00    +0.000 OA
ATOM      4  N   UNL     1       3.475   6.975  18.331  0.00  0.00    +0.000 N 
ATOM      5  H   UNL     1       4.375   7.413  18.207  0.00  0.00    +0.000 HD
ENDROOT
BRANCH   4   6
ATOM      6  C   UNL     1       2.468   7.845  18.820  0.00  0.00    +0.000 A 
ATOM      7  C   UNL     1       1.786   8.767  18.006  0.00  0.00    +0.000 A 
ATOM      8  C   UNL     1       0.810   9.638  18.526  0.00  0.00    +0.000 A 
ATOM      9  C   UNL     1       0.569   9.529  19.889  0.00  0.00    +0.000 A 
ATOM     10  O   UNL     1      -0.300  10.259  20.649  0.00  0.00    +0.000 OA
ATOM     11  C   UNL     1      -0.135   9.750  21.912  0.00  0.00    +0.000 A 
ATOM     12  C   UNL     1      -0.932  10.364  22.994  0.00  0.00    +0.000 C 
ATOM     13  N   UNL     1       0.738   8.766  22.005  0.00  0.00    +0.000 NA
ATOM     14  C   UNL     1       1.199   8.622  20.722  0.00  0.00    +0.000 A 
ATOM     15  C   UNL     1       2.153   7.748  20.183  0.00  0.00    +0.000 A 
ENDBRANCH   4   6
BRANCH   1  16
ATOM     16  C   UNL     1       5.817   5.721  17.722  0.00  0.00    +0.000 A 
ATOM     17  C   UNL     1       6.598   5.251  18.790  0.00  0.00    +0.000 A 
ATOM     18  C   UNL     1       7.738   5.947  19.191  0.00  0.00    +0.000 A 
ATOM     19  C   UNL     1       8.111   7.111  18.523  0.00  0.00    +0.000 A 
ATOM     20  C   UNL     1       7.356   7.568  17.446  0.00  0.00    +0.000 A 
ATOM     21  C   UNL     1       6.215   6.877  17.041  0.00  0.00    +0.000 A 
ENDBRANCH   1  16
BRANCH   1  22
ATOM     22  C   UNL     1       4.687   3.742  16.789  0.00  0.00    +0.000 C 
BRANCH  22  24
ATOM     23  C   UNL     1       5.580   4.270  14.467  0.00  0.00    +0.000 C 
ATOM     24  C   UNL     1       5.618   3.582  15.610  0.00  0.00    +0.000 C 
ENDBRANCH  22  24
ENDBRANCH   1  22
TORSDOF 4
ENDMDL
MODEL 6
REMARK VINA RESULT:      -7.8      1.284      2.010
REMARK  Name = 
REMARK  5 active torsions:
REMARK  status: ('A' for Active; 'I' for Inactive)
REMARK    1  A    between atoms: C_2  and  C_3
REMARK    2  A    between atoms: C_3  and  N_4
REMARK    3  A    between atoms: N_4  and  C_18
REMARK    4  A    between atoms: N_7  and  C_8
REMARK    5  A    between atoms: C_13  and  C_14
REMARK                            x       y       z     vdW  Elec       q    Type
REMARK                         _______ _______ _______ _____ _____    ______ ____
ROOT
ATOM      1  N   UNL     1       4.031   5.218  17.597  0.00  0.00    +0.000 N 
ATOM      2  C   UNL     1       2.827   5.810  18.089  0.00  0.00    +0.000 C 
ATOM      3  O   UNL     1       1.723   5.349  17.886  0.00  0.00    +0.000 OA
ATOM      4  N   UNL     1       3.049   7.029  18.752  0.00  0.00    +0.000 N 
ATOM      5  H   UNL     1       3.962   7.440  18.634  0.00  0.00    +0.000 HD
ENDROOT
BRANCH   4   6
ATOM      6  C   UNL     1       2.098   7.893  19.351  0.00  0.00    +0.000 A 
ATOM      7  C   UNL     1       1.621   7.722  20.662  0.00  0.00    +0.000 A 
ATOM      8  C   UNL     1       0.654   8.579  21.220  0.00  0.00    +0.000 A 
ATOM      9  C   UNL     1       0.204   9.599  20.393  0.00  0.00    +0.000 A 
ATOM     10  O   UNL     1      -0.738  10.550  20.669  0.00  0.00    +0.000 OA
ATOM     11  C   UNL     1      -0.800  11.291  19.517  0.00  0.00    +0.000 A 
ATOM     12  C   UNL     1      -1.769  12.405  19.484  0.00  0.00    +0.000 C 
ATOM     13  N   UNL     1       0.022  10.902  18.560  0.00  0.00    +0.000 NA
ATOM     14  C   UNL     1       0.661   9.819  19.107  0.00  0.00    +0.000 A 
ATOM     15  C   UNL     1       1.639   8.967  18.574  0.00  0.00    +0.000 A 
ENDBRANCH   4   6
BRANCH   1  16
ATOM     16  C   UNL     1       5.312   5.741  17.949  0.00  0.00    +0.000 A 
ATOM     17  C   UNL     1       5.992   6.650  17.122  0.00  0.00    +0.000 A 
ATOM     18  C   UNL     1       7.298   7.036  17.422  0.00  0.00    +0.000 A 
ATOM     19  C   UNL     1       7.931   6.526  18.553  0.00  0.00    +0.000 A 
ATOM     20  C   UNL     1       7.252   5.647  19.392  0.00  0.00    +0.000 A 
ATOM     21  C   UNL     1       5.947   5.255  19.098  0.00  0.00    +0.000 A 
ENDBRANCH   1  16
BRANCH   1  22
ATOM     22  C   UNL     1       4.067   3.902  16.887  0.00  0.00    +0.000 C 
BRANCH  22  24
ATOM     23  C   UNL     1       2.715   2.021  17.935  0.00  0.00    +0.000 C 
ATOM     24  C   UNL     1       3.865   2.666  17.731  0.00  0.00    +0.000 C 
ENDBRANCH  22  24
ENDBRANCH   1  22
TORSDOF 4
ENDMDL
MODEL 7
REMARK VINA RESULT:      -7.8      1.238      3.017
REMARK  Name = 
REMARK  5 active torsions:
REMARK  status: ('A' for Active; 'I' for Inactive)
REMARK    1  A    between atoms: C_2  and  C_3
REMARK    2  A    between atoms: C_3  and  N_4
REMARK    3  A    between atoms: N_4  and  C_18
REMARK    4  A    between atoms: N_7  and  C_8
REMARK    5  A    between atoms: C_13  and  C_14
REMARK                            x       y       z     vdW  Elec       q    Type
REMARK                         _______ _______ _______ _____ _____    ______ ____
ROOT
ATOM      1  N   UNL     1       4.827   5.204  17.519  0.00  0.00    +0.000 N 
ATOM      2  C   UNL     1       4.245   6.504  17.644  0.00  0.00    +0.000 C 
ATOM      3  O   UNL     1       4.731   7.505  17.160  0.00  0.00    +0.000 OA
ATOM      4  N   UNL     1       3.104   6.515  18.465  0.00  0.00    +0.000 N 
ATOM      5  H   UNL     1       2.946   5.686  19.018  0.00  0.00    +0.000 HD
ENDROOT
BRANCH   4   6
ATOM      6  C   UNL     1       2.285   7.615  18.821  0.00  0.00    +0.000 A 
ATOM      7  C   UNL     1       1.849   8.582  17.898  0.00  0.00    +0.000 A 
ATOM      8  C   UNL     1       1.059   9.680  18.288  0.00  0.00    +0.000 A 
ATOM      9  C   UNL     1       0.742   9.746  19.638  0.00  0.00    +0.000 A 
ATOM     10  O   UNL     1       0.017  10.706  20.285  0.00  0.00    +0.000 OA
ATOM     11  C   UNL     1       0.016  10.289  21.591  0.00  0.00    +0.000 A 
ATOM     12  C   UNL     1      -0.678  11.149  22.571  0.00  0.00    +0.000 C 
ATOM     13  N   UNL     1       0.657   9.157  21.814  0.00  0.00    +0.000 NA
ATOM     14  C   UNL     1       1.130   8.806  20.576  0.00  0.00    +0.000 A 
ATOM     15  C   UNL     1       1.899   7.708  20.167  0.00  0.00    +0.000 A 
ENDBRANCH   4   6
BRANCH   1  16
ATOM     16  C   UNL     1       4.164   4.044  18.020  0.00  0.00    +0.000 A 
ATOM     17  C   UNL     1       4.555   3.430  19.221  0.00  0.00    +0.000 A 
ATOM     18  C   UNL     1       3.982   2.220  19.614  0.00  0.00    +0.000 A 
ATOM     19  C   UNL     1       3.009   1.621  18.818  0.00  0.00    +0.000 A 
ATOM     20  C   UNL     1       2.597   2.239  17.640  0.00  0.00    +0.000 A 
ATOM     21  C   UNL     1       3.166   3.446  17.240  0.00  0.00    +0.000 A 
ENDBRANCH   1  16
BRANCH   1  22
ATOM     22  C   UNL     1       6.028   4.922  16.672  0.00  0.00    +0.000 C 
BRANCH  22  24
ATOM     23  C   UNL     1       7.740   5.370  18.497  0.00  0.00    +0.000 C 
ATOM     24  C   UNL     1       7.341   4.736  17.394  0.00  0.00    +0.000 C 
ENDBRANCH  22  24
ENDBRANCH   1  22
TORSDOF 4
ENDMDL
MODEL 8
REMARK VINA RESULT:      -7.8      1.550      3.058
REMARK  Name = 
REMARK  5 active torsions:
REMARK  status: ('A' for Active; 'I' for Inactive)
REMARK    1  A    between atoms: C_2  and  C_3
REMARK    2  A    between atoms: C_3  and  N_4
REMARK    3  A    between atoms: N_4  and  C_18
REMARK    4  A    between atoms: N_7  and  C_8
REMARK    5  A    between atoms: C_13  and  C_14
REMARK                            x       y       z     vdW  Elec       q    Type
REMARK                         _______ _______ _______ _____ _____    ______ ____
ROOT
ATOM      1  N   UNL     1       4.846   5.211  17.454  0.00  0.00    +0.000 N 
ATOM      2  C   UNL     1       4.261   6.507  17.595  0.00  0.00    +0.000 C 
ATOM      3  O   UNL     1       4.732   7.512  17.104  0.00  0.00    +0.000 OA
ATOM      4  N   UNL     1       3.138   6.510  18.440  0.00  0.00    +0.000 N 
ATOM      5  H   UNL     1       2.995   5.679  18.994  0.00  0.00    +0.000 HD
ENDROOT
BRANCH   4   6
ATOM      6  C   UNL     1       2.321   7.606  18.817  0.00  0.00    +0.000 A 
ATOM      7  C   UNL     1       1.912   8.607  17.919  0.00  0.00    +0.000 A 
ATOM      8  C   UNL     1       1.124   9.698  18.330  0.00  0.00    +0.000 A 
ATOM      9  C   UNL     1       0.781   9.722  19.675  0.00  0.00    +0.000 A 
ATOM     10  O   UNL     1       0.051  10.666  20.339  0.00  0.00    +0.000 OA
ATOM     11  C   UNL     1       0.021  10.206  21.631  0.00  0.00    +0.000 A 
ATOM     12  C   UNL     1      -0.685  11.039  22.625  0.00  0.00    +0.000 C 
ATOM     13  N   UNL     1       0.647   9.061  21.828  0.00  0.00    +0.000 NA
ATOM     14  C   UNL     1       1.142   8.748  20.589  0.00  0.00    +0.000 A 
ATOM     15  C   UNL     1       1.910   7.657  20.157  0.00  0.00    +0.000 A 
ENDBRANCH   4   6
BRANCH   1  16
ATOM     16  C   UNL     1       4.199   4.045  17.965  0.00  0.00    +0.000 A 
ATOM     17  C   UNL     1       4.628   3.420  19.147  0.00  0.00    +0.000 A 
ATOM     18  C   UNL     1       4.068   2.207  19.547  0.00  0.00    +0.000 A 
ATOM     19  C   UNL     1       3.070   1.615  18.777  0.00  0.00    +0.000 A 
ATOM     20  C   UNL     1       2.621   2.244  17.618  0.00  0.00    +0.000 A 
ATOM     21  C   UNL     1       3.178   3.455  17.212  0.00  0.00    +0.000 A 
ENDBRANCH   1  16
BRANCH   1  22
ATOM     22  C   UNL     1       6.030   4.937  16.581  0.00  0.00    +0.000 C 
BRANCH  22  24
ATOM     23  C   UNL     1       6.058   3.962  14.232  0.00  0.00    +0.000 C 
ATOM     24  C   UNL     1       5.794   4.951  15.089  0.00  0.00    +0.000 C 
ENDBRANCH  22  24
ENDBRANCH   1  22
TORSDOF 4
ENDMDL
MODEL 9
REMARK VINA RESULT:      -7.8      1.605      3.242
REMARK  Name = 
REMARK  5 active torsions:
REMARK  status: ('A' for Active; 'I' for Inactive)
REMARK    1  A    between atoms: C_2  and  C_3
REMARK    2  A    between atoms: C_3  and  N_4
REMARK    3  A    between atoms: N_4  and  C_18
REMARK    4  A    between atoms: N_7  and  C_8
REMARK    5  A    between atoms: C_13  and  C_14
REMARK                            x       y       z     vdW  Elec       q    Type
REMARK                         _______ _______ _______ _____ _____    ______ ____
ROOT
ATOM      1  N   UNL     1       4.757   5.048  17.508  0.00  0.00    +0.000 N 
ATOM      2  C   UNL     1       4.228   6.370  17.636  0.00  0.00    +0.000 C 
ATOM      3  O   UNL     1       4.755   7.352  17.157  0.00  0.00    +0.000 OA
ATOM      4  N   UNL     1       3.087   6.424  18.454  0.00  0.00    +0.000 N 
ATOM      5  H   UNL     1       2.894   5.600  19.005  0.00  0.00    +0.000 HD
ENDROOT
BRANCH   4   6
ATOM      6  C   UNL     1       2.312   7.555  18.813  0.00  0.00    +0.000 A 
ATOM      7  C   UNL     1       1.971   8.575  17.907  0.00  0.00    +0.000 A 
ATOM      8  C   UNL     1       1.224   9.701  18.300  0.00  0.00    +0.000 A 
ATOM      9  C   UNL     1       0.848   9.739  19.635  0.00  0.00    +0.000 A 
ATOM     10  O   UNL     1       0.145  10.715  20.283  0.00  0.00    +0.000 OA
ATOM     11  C   UNL     1       0.061  10.255  21.572  0.00  0.00    +0.000 A 
ATOM     12  C   UNL     1      -0.632  11.119  22.550  0.00  0.00    +0.000 C 
ATOM     13  N   UNL     1       0.629   9.083  21.783  0.00  0.00    +0.000 NA
ATOM     14  C   UNL     1       1.141   8.749  20.556  0.00  0.00    +0.000 A 
ATOM     15  C   UNL     1       1.869   7.624  20.142  0.00  0.00    +0.000 A 
ENDBRANCH   4   6
BRANCH   1  16
ATOM     16  C   UNL     1       4.047   3.913  18.003  0.00  0.00    +0.000 A 
ATOM     17  C   UNL     1       2.936   3.385  17.327  0.00  0.00    +0.000 A 
ATOM     18  C   UNL     1       2.178   2.365  17.903  0.00  0.00    +0.000 A 
ATOM     19  C   UNL     1       2.531   1.859  19.153  0.00  0.00    +0.000 A 
ATOM     20  C   UNL     1       3.648   2.361  19.816  0.00  0.00    +0.000 A 
ATOM     21  C   UNL     1       4.408   3.381  19.246  0.00  0.00    +0.000 A 
ENDBRANCH   1  16
BRANCH   1  22
ATOM     22  C   UNL     1       5.948   4.721  16.663  0.00  0.00    +0.000 C 
BRANCH  22  24
ATOM     23  C   UNL     1       6.282   3.962  14.259  0.00  0.00    +0.000 C 
ATOM     24  C   UNL     1       5.761   4.790  15.166  0.00  0.00    +0.000 C 
ENDBRANCH  22  24
ENDBRANCH   1  22
TORSDOF 4
ENDMDL
