MODEL 1
REMARK VINA RESULT:      -9.5      0.000      0.000
REMARK  Name = 
REMARK  6 active torsions:
REMARK  status: ('A' for Active; 'I' for Inactive)
REMARK    1  A    between atoms: C_1  and  C_2
REMARK    2  A    between atoms: C_2  and  O_3
REMARK    3  A    between atoms: O_3  and  C_4
REMARK    4  A    between atoms: C_7  and  N_8
REMARK    5  A    between atoms: C_10  and  C_11
REMARK    6  A    between atoms: C_14  and  C_15
REMARK                            x       y       z     vdW  Elec       q    Type
REMARK                         _______ _______ _______ _____ _____    ______ ____
ROOT
ATOM      1  N   UNL     1       3.686   5.548  17.986  0.00  0.00    +0.000 N 
ATOM      2  C   UNL     1       3.328   6.844  18.318  0.00  0.00    +0.000 A 
ATOM      3  C   UNL     1       2.455   6.812  19.379  0.00  0.00    +0.000 A 
ATOM      4  N   UNL     1       2.381   5.448  19.740  0.00  0.00    +0.000 N 
ATOM      5  C   UNL     1       3.160   4.705  18.907  0.00  0.00    +0.000 A 
ATOM      6  C   UNL     1       3.386   3.216  19.065  0.00  0.00    +0.000 C 
ATOM      7  C   UNL     1       2.098   2.443  19.292  0.00  0.00    +0.000 C 
ATOM      8  C   UNL     1       1.709   2.405  20.766  0.00  0.00    +0.000 C 
ATOM      9  C   UNL     1       2.084   3.660  21.552  0.00  0.00    +0.000 C 
ATOM     10  C   UNL     1       1.610   4.948  20.900  0.00  0.00    +0.000 C 
ENDROOT
BRANCH   1  14
ATOM     11  C   UNL     1       6.097   4.565  14.620  0.00  0.00    +0.000 A 
ATOM     12  C   UNL     1       5.723   5.889  14.858  0.00  0.00    +0.000 A 
ATOM     13  C   UNL     1       4.947   6.216  15.972  0.00  0.00    +0.000 A 
ATOM     14  C   UNL     1       4.526   5.200  16.828  0.00  0.00    +0.000 A 
ATOM     15  C   UNL     1       4.828   3.870  16.554  0.00  0.00    +0.000 A 
ATOM     16  C   UNL     1       5.650   3.556  15.469  0.00  0.00    +0.000 A 
BRANCH  11  17
ATOM     17  O   UNL     1       6.817   4.357  13.483  0.00  0.00    +0.000 OA
BRANCH  17  19
ATOM     18  C   UNL     1       5.060   3.638  12.046  0.00  0.00    +0.000 C 
ATOM     19  C   UNL     1       6.396   3.268  12.661  0.00  0.00    +0.000 C 
ENDBRANCH  17  19
ENDBRANCH  11  17
ENDBRANCH   1  14
BRANCH   3  20
ATOM     20  C   UNL     1       1.769   8.013  19.969  0.00  0.00    +0.000 A 
ATOM     21  C   UNL     1       1.503   8.091  21.334  0.00  0.00    +0.000 A 
ATOM     22  C   UNL     1       0.904   9.232  21.878  0.00  0.00    +0.000 A 
ATOM     23  C   UNL     1       0.541  10.328  21.079  0.00  0.00    +0.000 A 
ATOM     24  C   UNL     1       0.783  10.217  19.700  0.00  0.00    +0.000 A 
ATOM     25  C   UNL     1       1.378   9.073  19.146  0.00  0.00    +0.000 A 
BRANCH  23  26
ATOM     26  C   UNL     1      -0.088  11.530  21.674  0.00  0.00    +0.000 A 
ATOM     27  C   UNL     1       0.330  12.829  21.316  0.00  0.00    +0.000 A 
ATOM     28  C   UNL     1      -0.231  13.966  21.908  0.00  0.00    +0.000 A 
ATOM     29  C   UNL     1      -1.233  13.833  22.856  0.00  0.00    +0.000 A 
ATOM     30  C   UNL     1      -1.682  12.565  23.216  0.00  0.00    +0.000 A 
ATOM     31  C   UNL     1      -1.109  11.428  22.633  0.00  0.00    +0.000 A 
ENDBRANCH  23  26
ENDBRANCH   3  20
TORSDOF 5
ENDMDL
MODEL 2
REMARK VINA RESULT:      -9.4      0.996      1.366
REMARK  Name = 
REMARK  6 active torsions:
REMARK  status: ('A' for Active; 'I' for Inactive)
REMARK    1  A    between atoms: C_1  and  C_2
REMARK    2  A    between atoms: C_2  and  O_3
REMARK    3  A    between atoms: O_3  and  C_4
REMARK    4  A    between atoms: C_7  and  N_8
REMARK    5  A    between atoms: C_10  and  C_11
REMARK    6  A    between atoms: C_14  and  C_15
REMARK                            x       y       z     vdW  Elec       q    Type
REMARK                         _______ _______ _______ _____ _____    ______ ____
ROOT
ATOM      1  N   UNL     1       3.939   5.631  18.193  0.00  0.00    +0.000 N 
ATOM      2  C   UNL     1       3.485   6.907  18.485  0.00  0.00    +0.000 A 
ATOM      3  C   UNL     1       2.465   6.823  19.403  0.00  0.00    +0.000 A 
ATOM      4  N   UNL     1       2.390   5.451  19.730  0.00  0.00    +0.000 N 
ATOM      5  C   UNL     1       3.313   4.752  19.013  0.00  0.00    +0.000 A 
ATOM      6  C   UNL     1       3.570   3.270  19.183  0.00  0.00    +0.000 C 
ATOM      7  C   UNL     1       2.293   2.447  19.202  0.00  0.00    +0.000 C 
ATOM      8  C   UNL     1       1.690   2.367  20.601  0.00  0.00    +0.000 C 
ATOM      9  C   UNL     1       1.895   3.618  21.451  0.00  0.00    +0.000 C 
ATOM     10  C   UNL     1       1.474   4.901  20.754  0.00  0.00    +0.000 C 
ENDROOT
BRANCH   1  14
ATOM     11  C   UNL     1       6.882   4.812  15.232  0.00  0.00    +0.000 A 
ATOM     12  C   UNL     1       7.086   5.827  16.167  0.00  0.00    +0.000 A 
ATOM     13  C   UNL     1       6.129   6.085  17.152  0.00  0.00    +0.000 A 
ATOM     14  C   UNL     1       4.955   5.337  17.169  0.00  0.00    +0.000 A 
ATOM     15  C   UNL     1       4.710   4.377  16.193  0.00  0.00    +0.000 A 
ATOM     16  C   UNL     1       5.693   4.086  15.246  0.00  0.00    +0.000 A 
BRANCH  11  17
ATOM     17  O   UNL     1       7.860   4.676  14.293  0.00  0.00    +0.000 OA
BRANCH  17  19
ATOM     18  C   UNL     1       7.173   4.096  12.089  0.00  0.00    +0.000 C 
ATOM     19  C   UNL     1       7.582   5.231  13.009  0.00  0.00    +0.000 C 
ENDBRANCH  17  19
ENDBRANCH  11  17
ENDBRANCH   1  14
BRANCH   3  20
ATOM     20  C   UNL     1       1.653   7.987  19.899  0.00  0.00    +0.000 A 
ATOM     21  C   UNL     1       1.351   9.061  19.065  0.00  0.00    +0.000 A 
ATOM     22  C   UNL     1       0.558  10.118  19.524  0.00  0.00    +0.000 A 
ATOM     23  C   UNL     1       0.046  10.144  20.831  0.00  0.00    +0.000 A 
ATOM     24  C   UNL     1       0.390   9.070  21.669  0.00  0.00    +0.000 A 
ATOM     25  C   UNL     1       1.191   8.010  21.219  0.00  0.00    +0.000 A 
BRANCH  23  26
ATOM     26  C   UNL     1      -0.797  11.269  21.298  0.00  0.00    +0.000 A 
ATOM     27  C   UNL     1      -1.496  12.088  20.385  0.00  0.00    +0.000 A 
ATOM     28  C   UNL     1      -2.259  13.178  20.818  0.00  0.00    +0.000 A 
ATOM     29  C   UNL     1      -2.354  13.465  22.170  0.00  0.00    +0.000 A 
ATOM     30  C   UNL     1      -1.693  12.665  23.097  0.00  0.00    +0.000 A 
ATOM     31  C   UNL     1      -0.918  11.582  22.661  0.00  0.00    +0.000 A 
ENDBRANCH  23  26
ENDBRANCH   3  20
TORSDOF 5
ENDMDL
MODEL 3
REMARK VINA RESULT:      -9.4      0.970      1.539
REMARK  Name = 
REMARK  6 active torsions:
REMARK  status: ('A' for Active; 'I' for Inactive)
REMARK    1  A    between atoms: C_1  and  C_2
REMARK    2  A    between atoms: C_2  and  O_3
REMARK    3  A    between atoms: O_3  and  C_4
REMARK    4  A    between atoms: C_7  and  N_8
REMARK    5  A    between atoms: C_10  and  C_11
REMARK    6  A    between atoms: C_14  and  C_15
REMARK                            x       y       z     vdW  Elec       q    Type
REMARK                         _______ _______ _______ _____ _____    ______ ____
ROOT
ATOM      1  N   UNL     1       3.972   5.696  18.254  0.00  0.00    +0.000 N 
ATOM      2  C   UNL     1       3.524   6.962  18.592  0.00  0.00    +0.000 A 
ATOM      3  C   UNL     1       2.468   6.849  19.465  0.00  0.00    +0.000 A 
ATOM      4  N   UNL     1       2.362   5.464  19.720  0.00  0.00    +0.000 N 
ATOM      5  C   UNL     1       3.303   4.788  19.005  0.00  0.00    +0.000 A 
ATOM      6  C   UNL     1       3.533   3.295  19.111  0.00  0.00    +0.000 C 
ATOM      7  C   UNL     1       2.246   2.491  19.041  0.00  0.00    +0.000 C 
ATOM      8  C   UNL     1       1.588   2.352  20.410  0.00  0.00    +0.000 C 
ATOM      9  C   UNL     1       1.776   3.557  21.328  0.00  0.00    +0.000 C 
ATOM     10  C   UNL     1       1.400   4.878  20.679  0.00  0.00    +0.000 C 
ENDROOT
BRANCH   1  14
ATOM     11  C   UNL     1       6.987   4.938  15.350  0.00  0.00    +0.000 A 
ATOM     12  C   UNL     1       5.781   5.533  14.976  0.00  0.00    +0.000 A 
ATOM     13  C   UNL     1       4.798   5.799  15.931  0.00  0.00    +0.000 A 
ATOM     14  C   UNL     1       5.023   5.436  17.257  0.00  0.00    +0.000 A 
ATOM     15  C   UNL     1       6.189   4.772  17.623  0.00  0.00    +0.000 A 
ATOM     16  C   UNL     1       7.191   4.559  16.675  0.00  0.00    +0.000 A 
BRANCH  11  17
ATOM     17  O   UNL     1       7.856   4.687  14.331  0.00  0.00    +0.000 OA
BRANCH  17  19
ATOM     18  C   UNL     1       6.994   3.794  12.299  0.00  0.00    +0.000 C 
ATOM     19  C   UNL     1       7.418   5.058  13.024  0.00  0.00    +0.000 C 
ENDBRANCH  17  19
ENDBRANCH  11  17
ENDBRANCH   1  14
BRANCH   3  20
ATOM     20  C   UNL     1       1.652   8.000  19.986  0.00  0.00    +0.000 A 
ATOM     21  C   UNL     1       1.260   9.042  19.148  0.00  0.00    +0.000 A 
ATOM     22  C   UNL     1       0.465  10.085  19.634  0.00  0.00    +0.000 A 
ATOM     23  C   UNL     1       0.040  10.129  20.972  0.00  0.00    +0.000 A 
ATOM     24  C   UNL     1       0.474   9.088  21.810  0.00  0.00    +0.000 A 
ATOM     25  C   UNL     1       1.277   8.042  21.332  0.00  0.00    +0.000 A 
BRANCH  23  26
ATOM     26  C   UNL     1      -0.807  11.239  21.466  0.00  0.00    +0.000 A 
ATOM     27  C   UNL     1      -1.247  11.284  22.806  0.00  0.00    +0.000 A 
ATOM     28  C   UNL     1      -2.083  12.307  23.266  0.00  0.00    +0.000 A 
ATOM     29  C   UNL     1      -2.483  13.316  22.406  0.00  0.00    +0.000 A 
ATOM     30  C   UNL     1      -2.050  13.312  21.083  0.00  0.00    +0.000 A 
ATOM     31  C   UNL     1      -1.224  12.278  20.620  0.00  0.00    +0.000 A 
ENDBRANCH  23  26
ENDBRANCH   3  20
TORSDOF 5
ENDMDL
MODEL 4
REMARK VINA RESULT:      -9.4      1.090      1.460
REMARK  Name = 
REMARK  6 active torsions:
REMARK  status: ('A' for Active; 'I' for Inactive)
REMARK    1  A    between atoms: C_1  and  C_2
REMARK    2  A    between atoms: C_2  and  O_3
REMARK    3  A    between atoms: O_3  and  C_4
REMARK    4  A    between atoms: C_7  and  N_8
REMARK    5  A    between atoms: C_10  and  C_11
REMARK    6  A    between atoms: C_14  and  C_15
REMARK                            x       y       z     vdW  Elec       q    Type
REMARK                         _______ _______ _______ _____ _____    ______ ____
ROOT
ATOM      1  N   UNL     1       3.805   5.816  18.263  0.00  0.00    +0.000 N 
ATOM      2  C   UNL     1       3.445   7.066  18.739  0.00  0.00    +0.000 A 
ATOM      3  C   UNL     1       2.351   6.937  19.561  0.00  0.00    +0.000 A 
ATOM      4  N   UNL     1       2.128   5.545  19.643  0.00  0.00    +0.000 N 
ATOM      5  C   UNL     1       3.040   4.883  18.879  0.00  0.00    +0.000 A 
ATOM      6  C   UNL     1       3.147   3.374  18.810  0.00  0.00    +0.000 C 
ATOM      7  C   UNL     1       1.805   2.693  18.607  0.00  0.00    +0.000 C 
ATOM      8  C   UNL     1       1.086   2.448  19.929  0.00  0.00    +0.000 C 
ATOM      9  C   UNL     1       1.333   3.516  20.992  0.00  0.00    +0.000 C 
ATOM     10  C   UNL     1       1.087   4.932  20.497  0.00  0.00    +0.000 C 
ENDROOT
BRANCH   1  14
ATOM     11  C   UNL     1       6.893   5.195  15.402  0.00  0.00    +0.000 A 
ATOM     12  C   UNL     1       7.114   6.011  16.512  0.00  0.00    +0.000 A 
ATOM     13  C   UNL     1       6.107   6.202  17.462  0.00  0.00    +0.000 A 
ATOM     14  C   UNL     1       4.870   5.590  17.272  0.00  0.00    +0.000 A 
ATOM     15  C   UNL     1       4.618   4.839  16.129  0.00  0.00    +0.000 A 
ATOM     16  C   UNL     1       5.644   4.608  15.212  0.00  0.00    +0.000 A 
BRANCH  11  17
ATOM     17  O   UNL     1       7.928   5.115  14.521  0.00  0.00    +0.000 OA
BRANCH  17  19
ATOM     18  C   UNL     1       8.351   5.988  12.347  0.00  0.00    +0.000 C 
ATOM     19  C   UNL     1       7.575   4.959  13.146  0.00  0.00    +0.000 C 
ENDBRANCH  17  19
ENDBRANCH  11  17
ENDBRANCH   1  14
BRANCH   3  20
ATOM     20  C   UNL     1       1.609   8.081  20.194  0.00  0.00    +0.000 A 
ATOM     21  C   UNL     1       1.390   8.123  21.570  0.00  0.00    +0.000 A 
ATOM     22  C   UNL     1       0.737   9.213  22.154  0.00  0.00    +0.000 A 
ATOM     23  C   UNL     1       0.272  10.294  21.387  0.00  0.00    +0.000 A 
ATOM     24  C   UNL     1       0.470  10.218  19.998  0.00  0.00    +0.000 A 
ATOM     25  C   UNL     1       1.119   9.125  19.404  0.00  0.00    +0.000 A 
BRANCH  23  26
ATOM     26  C   UNL     1      -0.412  11.442  22.024  0.00  0.00    +0.000 A 
ATOM     27  C   UNL     1      -1.497  11.251  22.906  0.00  0.00    +0.000 A 
ATOM     28  C   UNL     1      -2.174  12.334  23.477  0.00  0.00    +0.000 A 
ATOM     29  C   UNL     1      -1.774  13.630  23.194  0.00  0.00    +0.000 A 
ATOM     30  C   UNL     1      -0.695  13.852  22.343  0.00  0.00    +0.000 A 
ATOM     31  C   UNL     1      -0.027  12.766  21.762  0.00  0.00    +0.000 A 
ENDBRANCH  23  26
ENDBRANCH   3  20
TORSDOF 5
ENDMDL
MODEL 5
REMARK VINA RESULT:      -9.4      0.300      1.260
REMARK  Name = 
REMARK  6 active torsions:
REMARK  status: ('A' for Active; 'I' for Inactive)
REMARK    1  A    between atoms: C_1  and  C_2
REMARK    2  A    between atoms: C_2  and  O_3
REMARK    3  A    between atoms: O_3  and  C_4
REMARK    4  A    between atoms: C_7  and  N_8
REMARK    5  A    between atoms: C_10  and  C_11
REMARK    6  A    between atoms: C_14  and  C_15
REMARK                            x       y       z     vdW  Elec       q    Type
REMARK                         _______ _______ _______ _____ _____    ______ ____
ROOT
ATOM      1  N   UNL     1       3.680   5.494  17.945  0.00  0.00    +0.000 N 
ATOM      2  C   UNL     1       3.361   6.797  18.291  0.00  0.00    +0.000 A 
ATOM      3  C   UNL     1       2.445   6.779  19.316  0.00  0.00    +0.000 A 
ATOM      4  N   UNL     1       2.301   5.413  19.644  0.00  0.00    +0.000 N 
ATOM      5  C   UNL     1       3.083   4.655  18.826  0.00  0.00    +0.000 A 
ATOM      6  C   UNL     1       3.241   3.156  18.961  0.00  0.00    +0.000 C 
ATOM      7  C   UNL     1       1.915   2.432  19.120  0.00  0.00    +0.000 C 
ATOM      8  C   UNL     1       1.466   2.381  20.576  0.00  0.00    +0.000 C 
ATOM      9  C   UNL     1       1.859   3.603  21.403  0.00  0.00    +0.000 C 
ATOM     10  C   UNL     1       1.464   4.922  20.761  0.00  0.00    +0.000 C 
ENDROOT
BRANCH   1  14
ATOM     11  C   UNL     1       6.212   4.434  14.695  0.00  0.00    +0.000 A 
ATOM     12  C   UNL     1       5.758   3.458  15.582  0.00  0.00    +0.000 A 
ATOM     13  C   UNL     1       4.912   3.801  16.639  0.00  0.00    +0.000 A 
ATOM     14  C   UNL     1       4.550   5.135  16.814  0.00  0.00    +0.000 A 
ATOM     15  C   UNL     1       5.062   6.124  15.980  0.00  0.00    +0.000 A 
ATOM     16  C   UNL     1       5.862   5.767  14.894  0.00  0.00    +0.000 A 
BRANCH  11  17
ATOM     17  O   UNL     1       7.065   3.994  13.728  0.00  0.00    +0.000 OA
BRANCH  17  19
ATOM     18  C   UNL     1       5.779   2.964  12.009  0.00  0.00    +0.000 C 
ATOM     19  C   UNL     1       6.631   4.164  12.379  0.00  0.00    +0.000 C 
ENDBRANCH  17  19
ENDBRANCH  11  17
ENDBRANCH   1  14
BRANCH   3  20
ATOM     20  C   UNL     1       1.784   7.996  19.903  0.00  0.00    +0.000 A 
ATOM     21  C   UNL     1       1.506   8.075  21.266  0.00  0.00    +0.000 A 
ATOM     22  C   UNL     1       0.931   9.230  21.809  0.00  0.00    +0.000 A 
ATOM     23  C   UNL     1       0.607  10.339  21.011  0.00  0.00    +0.000 A 
ATOM     24  C   UNL     1       0.862  10.227  19.634  0.00  0.00    +0.000 A 
ATOM     25  C   UNL     1       1.432   9.070  19.081  0.00  0.00    +0.000 A 
BRANCH  23  26
ATOM     26  C   UNL     1       0.004  11.554  21.605  0.00  0.00    +0.000 A 
ATOM     27  C   UNL     1      -1.003  11.466  22.590  0.00  0.00    +0.000 A 
ATOM     28  C   UNL     1      -1.605  12.611  23.123  0.00  0.00    +0.000 A 
ATOM     29  C   UNL     1      -1.206  13.867  22.698  0.00  0.00    +0.000 A 
ATOM     30  C   UNL     1      -0.201  13.989  21.742  0.00  0.00    +0.000 A 
ATOM     31  C   UNL     1       0.392  12.841  21.199  0.00  0.00    +0.000 A 
ENDBRANCH  23  26
ENDBRANCH   3  20
TORSDOF 5
ENDMDL
MODEL 6
REMARK VINA RESULT:      -9.4      0.369      1.277
REMARK  Name = 
REMARK  6 active torsions:
REMARK  status: ('A' for Active; 'I' for Inactive)
REMARK    1  A    between atoms: C_1  and  C_2
REMARK    2  A    between atoms: C_2  and  O_3
REMARK    3  A    between atoms: O_3  and  C_4
REMARK    4  A    between atoms: C_7  and  N_8
REMARK    5  A    between atoms: C_10  and  C_11
REMARK    6  A    between atoms: C_14  and  C_15
REMARK                            x       y       z     vdW  Elec       q    Type
REMARK                         _______ _______ _______ _____ _____    ______ ____
ROOT
ATOM      1  N   UNL     1       3.656   5.491  17.891  0.00  0.00    +0.000 N 
ATOM      2  C   UNL     1       3.388   6.790  18.289  0.00  0.00    +0.000 A 
ATOM      3  C   UNL     1       2.428   6.771  19.273  0.00  0.00    +0.000 A 
ATOM      4  N   UNL     1       2.201   5.399  19.524  0.00  0.00    +0.000 N 
ATOM      5  C   UNL     1       2.979   4.643  18.702  0.00  0.00    +0.000 A 
ATOM      6  C   UNL     1       3.056   3.132  18.766  0.00  0.00    +0.000 C 
ATOM      7  C   UNL     1       1.689   2.472  18.831  0.00  0.00    +0.000 C 
ATOM      8  C   UNL     1       1.174   2.373  20.263  0.00  0.00    +0.000 C 
ATOM      9  C   UNL     1       1.591   3.530  21.168  0.00  0.00    +0.000 C 
ATOM     10  C   UNL     1       1.292   4.899  20.579  0.00  0.00    +0.000 C 
ENDROOT
BRANCH   1  14
ATOM     11  C   UNL     1       6.276   4.464  14.700  0.00  0.00    +0.000 A 
ATOM     12  C   UNL     1       5.839   3.487  15.596  0.00  0.00    +0.000 A 
ATOM     13  C   UNL     1       4.964   3.819  16.633  0.00  0.00    +0.000 A 
ATOM     14  C   UNL     1       4.557   5.143  16.780  0.00  0.00    +0.000 A 
ATOM     15  C   UNL     1       5.051   6.135  15.940  0.00  0.00    +0.000 A 
ATOM     16  C   UNL     1       5.881   5.788  14.872  0.00  0.00    +0.000 A 
BRANCH  11  17
ATOM     17  O   UNL     1       7.159   4.037  13.754  0.00  0.00    +0.000 OA
BRANCH  17  19
ATOM     18  C   UNL     1       5.664   3.222  12.091  0.00  0.00    +0.000 C 
ATOM     19  C   UNL     1       6.764   4.221  12.395  0.00  0.00    +0.000 C 
ENDBRANCH  17  19
ENDBRANCH  11  17
ENDBRANCH   1  14
BRANCH   3  20
ATOM     20  C   UNL     1       1.804   7.990  19.895  0.00  0.00    +0.000 A 
ATOM     21  C   UNL     1       1.441   9.087  19.117  0.00  0.00    +0.000 A 
ATOM     22  C   UNL     1       0.821  10.198  19.700  0.00  0.00    +0.000 A 
ATOM     23  C   UNL     1       0.551  10.256  21.076  0.00  0.00    +0.000 A 
ATOM     24  C   UNL     1       0.957   9.156  21.850  0.00  0.00    +0.000 A 
ATOM     25  C   UNL     1       1.585   8.041  21.274  0.00  0.00    +0.000 A 
BRANCH  23  26
ATOM     26  C   UNL     1      -0.111  11.439  21.674  0.00  0.00    +0.000 A 
ATOM     27  C   UNL     1       0.266  12.750  21.312  0.00  0.00    +0.000 A 
ATOM     28  C   UNL     1      -0.327  13.870  21.906  0.00  0.00    +0.000 A 
ATOM     29  C   UNL     1      -1.319  13.707  22.859  0.00  0.00    +0.000 A 
ATOM     30  C   UNL     1      -1.727  12.427  23.222  0.00  0.00    +0.000 A 
ATOM     31  C   UNL     1      -1.123  11.306  22.637  0.00  0.00    +0.000 A 
ENDBRANCH  23  26
ENDBRANCH   3  20
TORSDOF 5
ENDMDL
MODEL 7
REMARK VINA RESULT:      -9.1      4.442     11.198
REMARK  Name = 
REMARK  6 active torsions:
REMARK  status: ('A' for Active; 'I' for Inactive)
REMARK    1  A    between atoms: C_1  and  C_2
REMARK    2  A    between atoms: C_2  and  O_3
REMARK    3  A    between atoms: O_3  and  C_4
REMARK    4  A    between atoms: C_7  and  N_8
REMARK    5  A    between atoms: C_10  and  C_11
REMARK    6  A    between atoms: C_14  and  C_15
REMARK                            x       y       z     vdW  Elec       q    Type
REMARK                         _______ _______ _______ _____ _____    ______ ____
ROOT
ATOM      1  N   UNL     1      -1.129  12.069  20.998  0.00  0.00    +0.000 N 
ATOM      2  C   UNL     1      -0.719  10.767  20.760  0.00  0.00    +0.000 A 
ATOM      3  C   UNL     1       0.411  10.786  19.979  0.00  0.00    +0.000 A 
ATOM      4  N   UNL     1       0.726  12.157  19.838  0.00  0.00    +0.000 N 
ATOM      5  C   UNL     1      -0.199  12.914  20.491  0.00  0.00    +0.000 A 
ATOM      6  C   UNL     1      -0.116  14.419  20.623  0.00  0.00    +0.000 C 
ATOM      7  C   UNL     1       0.191  15.113  19.306  0.00  0.00    +0.000 C 
ATOM      8  C   UNL     1       1.690  15.188  19.039  0.00  0.00    +0.000 C 
ATOM      9  C   UNL     1       2.487  13.997  19.566  0.00  0.00    +0.000 C 
ATOM     10  C   UNL     1       1.928  12.653  19.132  0.00  0.00    +0.000 C 
ENDROOT
BRANCH   1  14
ATOM     11  C   UNL     1      -4.711  13.116  23.041  0.00  0.00    +0.000 A 
ATOM     12  C   UNL     1      -4.608  13.296  21.661  0.00  0.00    +0.000 A 
ATOM     13  C   UNL     1      -3.440  12.936  20.986  0.00  0.00    +0.000 A 
ATOM     14  C   UNL     1      -2.367  12.422  21.711  0.00  0.00    +0.000 A 
ATOM     15  C   UNL     1      -2.434  12.313  23.096  0.00  0.00    +0.000 A 
ATOM     16  C   UNL     1      -3.624  12.623  23.758  0.00  0.00    +0.000 A 
BRANCH  11  17
ATOM     17  O   UNL     1      -5.879  13.540  23.600  0.00  0.00    +0.000 OA
BRANCH  17  19
ATOM     18  C   UNL     1      -7.892  12.329  23.213  0.00  0.00    +0.000 C 
ATOM     19  C   UNL     1      -6.717  12.526  24.153  0.00  0.00    +0.000 C 
ENDBRANCH  17  19
ENDBRANCH  11  17
ENDBRANCH   1  14
BRANCH   3  20
ATOM     20  C   UNL     1       1.102   9.568  19.430  0.00  0.00    +0.000 A 
ATOM     21  C   UNL     1       1.416   9.468  18.077  0.00  0.00    +0.000 A 
ATOM     22  C   UNL     1       2.098   8.349  17.585  0.00  0.00    +0.000 A 
ATOM     23  C   UNL     1       2.481   7.290  18.424  0.00  0.00    +0.000 A 
ATOM     24  C   UNL     1       2.124   7.393  19.779  0.00  0.00    +0.000 A 
ATOM     25  C   UNL     1       1.435   8.508  20.278  0.00  0.00    +0.000 A 
BRANCH  23  26
ATOM     26  C   UNL     1       3.207   6.117  17.886  0.00  0.00    +0.000 A 
ATOM     27  C   UNL     1       2.612   4.838  17.856  0.00  0.00    +0.000 A 
ATOM     28  C   UNL     1       3.310   3.718  17.389  0.00  0.00    +0.000 A 
ATOM     29  C   UNL     1       4.608   3.854  16.926  0.00  0.00    +0.000 A 
ATOM     30  C   UNL     1       5.216   5.106  16.923  0.00  0.00    +0.000 A 
ATOM     31  C   UNL     1       4.522   6.223  17.405  0.00  0.00    +0.000 A 
ENDBRANCH  23  26
ENDBRANCH   3  20
TORSDOF 5
ENDMDL
MODEL 8
REMARK VINA RESULT:      -9.0      4.490     11.133
REMARK  Name = 
REMARK  6 active torsions:
REMARK  status: ('A' for Active; 'I' for Inactive)
REMARK    1  A    between atoms: C_1  and  C_2
REMARK    2  A    between atoms: C_2  and  O_3
REMARK    3  A    between atoms: O_3  and  C_4
REMARK    4  A    between atoms: C_7  and  N_8
REMARK    5  A    between atoms: C_10  and  C_11
REMARK    6  A    between atoms: C_14  and  C_15
REMARK                            x       y       z     vdW  Elec       q    Type
REMARK                         _______ _______ _______ _____ _____    ______ ____
ROOT
ATOM      1  N   UNL     1      -1.193  12.185  20.802  0.00  0.00    +0.000 N 
ATOM      2  C   UNL     1      -0.782  10.871  20.646  0.00  0.00    +0.000 A 
ATOM      3  C   UNL     1       0.374  10.846  19.902  0.00  0.00    +0.000 A 
ATOM      4  N   UNL     1       0.699  12.206  19.700  0.00  0.00    +0.000 N 
ATOM      5  C   UNL     1      -0.242  12.999  20.283  0.00  0.00    +0.000 A 
ATOM      6  C   UNL     1      -0.156  14.509  20.339  0.00  0.00    +0.000 C 
ATOM      7  C   UNL     1       0.196  15.133  18.999  0.00  0.00    +0.000 C 
ATOM      8  C   UNL     1       1.704  15.189  18.778  0.00  0.00    +0.000 C 
ATOM      9  C   UNL     1       2.478  14.024  19.391  0.00  0.00    +0.000 C 
ATOM     10  C   UNL     1       1.926  12.661  19.010  0.00  0.00    +0.000 C 
ENDROOT
BRANCH   1  14
ATOM     11  C   UNL     1      -4.826  13.299  22.714  0.00  0.00    +0.000 A 
ATOM     12  C   UNL     1      -3.738  12.860  23.469  0.00  0.00    +0.000 A 
ATOM     13  C   UNL     1      -2.538  12.511  22.845  0.00  0.00    +0.000 A 
ATOM     14  C   UNL     1      -2.451  12.579  21.456  0.00  0.00    +0.000 A 
ATOM     15  C   UNL     1      -3.556  12.940  20.692  0.00  0.00    +0.000 A 
ATOM     16  C   UNL     1      -4.734  13.339  21.325  0.00  0.00    +0.000 A 
BRANCH  11  17
ATOM     17  O   UNL     1      -5.958  13.571  23.423  0.00  0.00    +0.000 OA
BRANCH  17  19
ATOM     18  C   UNL     1      -7.838  12.124  23.225  0.00  0.00    +0.000 C 
ATOM     19  C   UNL     1      -6.600  12.455  24.038  0.00  0.00    +0.000 C 
ENDBRANCH  17  19
ENDBRANCH  11  17
ENDBRANCH   1  14
BRANCH   3  20
ATOM     20  C   UNL     1       1.076   9.599  19.440  0.00  0.00    +0.000 A 
ATOM     21  C   UNL     1       1.451   8.608  20.345  0.00  0.00    +0.000 A 
ATOM     22  C   UNL     1       2.065   7.433  19.899  0.00  0.00    +0.000 A 
ATOM     23  C   UNL     1       2.332   7.209  18.539  0.00  0.00    +0.000 A 
ATOM     24  C   UNL     1       1.978   8.234  17.645  0.00  0.00    +0.000 A 
ATOM     25  C   UNL     1       1.369   9.418  18.085  0.00  0.00    +0.000 A 
BRANCH  23  26
ATOM     26  C   UNL     1       2.977   5.955  18.085  0.00  0.00    +0.000 A 
ATOM     27  C   UNL     1       4.364   5.893  17.835  0.00  0.00    +0.000 A 
ATOM     28  C   UNL     1       4.970   4.723  17.365  0.00  0.00    +0.000 A 
ATOM     29  C   UNL     1       4.210   3.585  17.152  0.00  0.00    +0.000 A 
ATOM     30  C   UNL     1       2.842   3.607  17.409  0.00  0.00    +0.000 A 
ATOM     31  C   UNL     1       2.234   4.784  17.865  0.00  0.00    +0.000 A 
ENDBRANCH  23  26
ENDBRANCH   3  20
TORSDOF 5
ENDMDL
MODEL 9
REMARK VINA RESULT:      -9.0      4.407     11.233
REMARK  Name = 
REMARK  6 active torsions:
REMARK  status: ('A' for Active; 'I' for Inactive)
REMARK    1  A    between atoms: C_1  and  C_2
REMARK    2  A    between atoms: C_2  and  O_3
REMARK    3  A    between atoms: O_3  and  C_4
REMARK    4  A    between atoms: C_7  and  N_8
REMARK    5  A    between atoms: C_10  and  C_11
REMARK    6  A    between atoms: C_14  and  C_15
REMARK                            x       y       z     vdW  Elec       q    Type
REMARK                         _______ _______ _______ _____ _____    ______ ____
ROOT
ATOM      1  N   UNL     1      -1.169  12.078  21.024  0.00  0.00    +0.000 N 
ATOM      2  C   UNL     1      -0.706  10.789  20.815  0.00  0.00    +0.000 A 
ATOM      3  C   UNL     1       0.406  10.835  20.008  0.00  0.00    +0.000 A 
ATOM      4  N   UNL     1       0.655  12.213  19.820  0.00  0.00    +0.000 N 
ATOM      5  C   UNL     1      -0.289  12.948  20.472  0.00  0.00    +0.000 A 
ATOM      6  C   UNL     1      -0.272  14.459  20.558  0.00  0.00    +0.000 C 
ATOM      7  C   UNL     1      -0.025  15.126  19.216  0.00  0.00    +0.000 C 
ATOM      8  C   UNL     1       1.464  15.260  18.913  0.00  0.00    +0.000 C 
ATOM      9  C   UNL     1       2.325  14.122  19.456  0.00  0.00    +0.000 C 
ATOM     10  C   UNL     1       1.818  12.742  19.074  0.00  0.00    +0.000 C 
ENDROOT
BRANCH   1  14
ATOM     11  C   UNL     1      -4.752  13.023  23.115  0.00  0.00    +0.000 A 
ATOM     12  C   UNL     1      -4.703  13.111  21.723  0.00  0.00    +0.000 A 
ATOM     13  C   UNL     1      -3.534  12.783  21.034  0.00  0.00    +0.000 A 
ATOM     14  C   UNL     1      -2.406  12.397  21.755  0.00  0.00    +0.000 A 
ATOM     15  C   UNL     1      -2.423  12.383  23.145  0.00  0.00    +0.000 A 
ATOM     16  C   UNL     1      -3.611  12.658  23.826  0.00  0.00    +0.000 A 
BRANCH  11  17
ATOM     17  O   UNL     1      -5.928  13.407  23.685  0.00  0.00    +0.000 OA
BRANCH  17  19
ATOM     18  C   UNL     1      -5.748  15.755  24.031  0.00  0.00    +0.000 C 
ATOM     19  C   UNL     1      -6.457  14.661  23.255  0.00  0.00    +0.000 C 
ENDBRANCH  17  19
ENDBRANCH  11  17
ENDBRANCH   1  14
BRANCH   3  20
ATOM     20  C   UNL     1       1.139   9.634  19.479  0.00  0.00    +0.000 A 
ATOM     21  C   UNL     1       1.447   8.557  20.309  0.00  0.00    +0.000 A 
ATOM     22  C   UNL     1       2.091   7.426  19.797  0.00  0.00    +0.000 A 
ATOM     23  C   UNL     1       2.456   7.333  18.444  0.00  0.00    +0.000 A 
ATOM     24  C   UNL     1       2.170   8.442  17.631  0.00  0.00    +0.000 A 
ATOM     25  C   UNL     1       1.531   9.583  18.139  0.00  0.00    +0.000 A 
BRANCH  23  26
ATOM     26  C   UNL     1       3.132   6.124  17.919  0.00  0.00    +0.000 A 
ATOM     27  C   UNL     1       4.389   6.205  17.282  0.00  0.00    +0.000 A 
ATOM     28  C   UNL     1       5.011   5.072  16.747  0.00  0.00    +0.000 A 
ATOM     29  C   UNL     1       4.402   3.832  16.850  0.00  0.00    +0.000 A 
ATOM     30  C   UNL     1       3.172   3.715  17.491  0.00  0.00    +0.000 A 
ATOM     31  C   UNL     1       2.544   4.852  18.014  0.00  0.00    +0.000 A 
ENDBRANCH  23  26
ENDBRANCH   3  20
TORSDOF 5
ENDMDL
