MODEL 1
REMARK VINA RESULT:      -6.8      0.000      0.000
REMARK  Name = 
REMARK  4 active torsions:
REMARK  status: ('A' for Active; 'I' for Inactive)
REMARK    1  A    between atoms: N_3  and  O_4
REMARK    2  A    between atoms: N_5  and  N_6
REMARK    3  A    between atoms: C_7  and  C_8
REMARK    4  A    between atoms: C_12  and  N_13
REMARK                            x       y       z     vdW  Elec       q    Type
REMARK                         _______ _______ _______ _____ _____    ______ ____
ROOT
ATOM      1  N   UNL     1       5.259   4.277  17.353  0.00  0.00    +0.000 NA
ATOM      2  C   UNL     1       4.240   4.958  17.764  0.00  0.00    +0.000 C 
ENDROOT
BRANCH   1   6
ATOM      3  N   UNL     1       5.984   3.996  14.792  0.00  0.00    +0.000 N 
ATOM      4  C   UNL     1       6.698   4.903  15.517  0.00  0.00    +0.000 C 
ATOM      5  N   UNL     1       7.658   5.637  15.035  0.00  0.00    +0.000 NA
ATOM      6  N   UNL     1       6.297   4.985  16.827  0.00  0.00    +0.000 N 
ATOM      7  H   UNL     1       6.069   4.166  13.798  0.00  0.00    +0.000 HD
ATOM      8  H   UNL     1       5.037   3.914  15.141  0.00  0.00    +0.000 HD
ATOM      9  H   UNL     1       6.836   5.639  17.386  0.00  0.00    +0.000 HD
BRANCH   5  10
ATOM     10  O   UNL     1       7.834   5.368  13.665  0.00  0.00    +0.000 OA
ATOM     11  H   UNL     1       7.272   4.584  13.535  0.00  0.00    +0.000 HD
ENDBRANCH   5  10
ENDBRANCH   1   6
BRANCH   2  12
ATOM     12  C   UNL     1       3.094   4.256  18.378  0.00  0.00    +0.000 A 
ATOM     13  C   UNL     1       1.907   4.095  17.658  0.00  0.00    +0.000 A 
ATOM     14  C   UNL     1       0.830   3.419  18.241  0.00  0.00    +0.000 A 
ATOM     15  C   UNL     1       0.936   2.909  19.538  0.00  0.00    +0.000 A 
ATOM     16  C   UNL     1       2.128   3.083  20.255  0.00  0.00    +0.000 A 
ATOM     17  C   UNL     1       3.209   3.757  19.681  0.00  0.00    +0.000 A 
BRANCH  16  18
ATOM     18  N   UNL     1       2.248   2.551  21.618  0.00  0.00    +0.000 N 
ATOM     19  O   UNL     1       3.362   2.148  21.981  0.00  0.00    +0.000 OA
ATOM     20  O   UNL     1       1.230   2.537  22.325  0.00  0.00    +0.000 OA
ENDBRANCH  16  18
ENDBRANCH   2  12
TORSDOF 4
ENDMDL
MODEL 2
REMARK VINA RESULT:      -6.6      1.448      1.769
REMARK  Name = 
REMARK  4 active torsions:
REMARK  status: ('A' for Active; 'I' for Inactive)
REMARK    1  A    between atoms: N_3  and  O_4
REMARK    2  A    between atoms: N_5  and  N_6
REMARK    3  A    between atoms: C_7  and  C_8
REMARK    4  A    between atoms: C_12  and  N_13
REMARK                            x       y       z     vdW  Elec       q    Type
REMARK                         _______ _______ _______ _____ _____    ______ ____
ROOT
ATOM      1  N   UNL     1       5.373   4.133  16.302  0.00  0.00    +0.000 NA
ATOM      2  C   UNL     1       4.260   4.749  16.536  0.00  0.00    +0.000 C 
ENDROOT
BRANCH   1   6
ATOM      3  N   UNL     1       7.471   5.713  15.783  0.00  0.00    +0.000 N 
ATOM      4  C   UNL     1       6.971   5.019  14.722  0.00  0.00    +0.000 C 
ATOM      5  N   UNL     1       7.464   5.060  13.520  0.00  0.00    +0.000 NA
ATOM      6  N   UNL     1       5.882   4.247  15.045  0.00  0.00    +0.000 N 
ATOM      7  H   UNL     1       8.422   6.015  15.614  0.00  0.00    +0.000 HD
ATOM      8  H   UNL     1       7.320   5.212  16.651  0.00  0.00    +0.000 HD
ATOM      9  H   UNL     1       5.484   3.744  14.258  0.00  0.00    +0.000 HD
BRANCH   5  10
ATOM     10  O   UNL     1       8.590   5.904  13.484  0.00  0.00    +0.000 OA
ATOM     11  H   UNL     1       9.243   5.356  13.017  0.00  0.00    +0.000 HD
ENDBRANCH   5  10
ENDBRANCH   1   6
BRANCH   2  12
ATOM     12  C   UNL     1       3.669   4.697  17.889  0.00  0.00    +0.000 A 
ATOM     13  C   UNL     1       2.776   5.691  18.299  0.00  0.00    +0.000 A 
ATOM     14  C   UNL     1       2.211   5.631  19.578  0.00  0.00    +0.000 A 
ATOM     15  C   UNL     1       2.538   4.583  20.444  0.00  0.00    +0.000 A 
ATOM     16  C   UNL     1       3.440   3.595  20.027  0.00  0.00    +0.000 A 
ATOM     17  C   UNL     1       4.010   3.647  18.751  0.00  0.00    +0.000 A 
BRANCH  16  18
ATOM     18  N   UNL     1       3.789   2.491  20.930  0.00  0.00    +0.000 N 
ATOM     19  O   UNL     1       4.825   1.856  20.686  0.00  0.00    +0.000 OA
ATOM     20  O   UNL     1       3.029   2.261  21.881  0.00  0.00    +0.000 OA
ENDBRANCH  16  18
ENDBRANCH   2  12
TORSDOF 4
ENDMDL
MODEL 3
REMARK VINA RESULT:      -6.6      1.210      1.776
REMARK  Name = 
REMARK  4 active torsions:
REMARK  status: ('A' for Active; 'I' for Inactive)
REMARK    1  A    between atoms: N_3  and  O_4
REMARK    2  A    between atoms: N_5  and  N_6
REMARK    3  A    between atoms: C_7  and  C_8
REMARK    4  A    between atoms: C_12  and  N_13
REMARK                            x       y       z     vdW  Elec       q    Type
REMARK                         _______ _______ _______ _____ _____    ______ ____
ROOT
ATOM      1  N   UNL     1       4.878   5.143  16.797  0.00  0.00    +0.000 NA
ATOM      2  C   UNL     1       3.928   4.360  17.191  0.00  0.00    +0.000 C 
ENDROOT
BRANCH   1   6
ATOM      3  N   UNL     1       7.222   6.207  16.062  0.00  0.00    +0.000 N 
ATOM      4  C   UNL     1       6.642   5.365  15.161  0.00  0.00    +0.000 C 
ATOM      5  N   UNL     1       7.166   5.039  14.016  0.00  0.00    +0.000 NA
ATOM      6  N   UNL     1       5.432   4.871  15.583  0.00  0.00    +0.000 N 
ATOM      7  H   UNL     1       8.214   6.308  15.889  0.00  0.00    +0.000 HD
ATOM      8  H   UNL     1       6.968   5.958  17.010  0.00  0.00    +0.000 HD
ATOM      9  H   UNL     1       4.976   4.262  14.911  0.00  0.00    +0.000 HD
BRANCH   5  10
ATOM     10  O   UNL     1       8.417   5.665  13.858  0.00  0.00    +0.000 OA
ATOM     11  H   UNL     1       8.484   5.748  12.891  0.00  0.00    +0.000 HD
ENDBRANCH   5  10
ENDBRANCH   1   6
BRANCH   2  12
ATOM     12  C   UNL     1       3.259   4.619  18.482  0.00  0.00    +0.000 A 
ATOM     13  C   UNL     1       2.741   5.887  18.759  0.00  0.00    +0.000 A 
ATOM     14  C   UNL     1       2.099   6.123  19.979  0.00  0.00    +0.000 A 
ATOM     15  C   UNL     1       1.975   5.096  20.920  0.00  0.00    +0.000 A 
ATOM     16  C   UNL     1       2.503   3.829  20.637  0.00  0.00    +0.000 A 
ATOM     17  C   UNL     1       3.148   3.585  19.421  0.00  0.00    +0.000 A 
BRANCH  16  18
ATOM     18  N   UNL     1       2.378   2.746  21.620  0.00  0.00    +0.000 N 
ATOM     19  O   UNL     1       1.262   2.551  22.120  0.00  0.00    +0.000 OA
ATOM     20  O   UNL     1       3.395   2.091  21.890  0.00  0.00    +0.000 OA
ENDBRANCH  16  18
ENDBRANCH   2  12
TORSDOF 4
ENDMDL
MODEL 4
REMARK VINA RESULT:      -6.6      0.681      1.028
REMARK  Name = 
REMARK  4 active torsions:
REMARK  status: ('A' for Active; 'I' for Inactive)
REMARK    1  A    between atoms: N_3  and  O_4
REMARK    2  A    between atoms: N_5  and  N_6
REMARK    3  A    between atoms: C_7  and  C_8
REMARK    4  A    between atoms: C_12  and  N_13
REMARK                            x       y       z     vdW  Elec       q    Type
REMARK                         _______ _______ _______ _____ _____    ______ ____
ROOT
ATOM      1  N   UNL     1       5.236   4.347  16.520  0.00  0.00    +0.000 NA
ATOM      2  C   UNL     1       4.524   4.998  17.380  0.00  0.00    +0.000 C 
ENDROOT
BRANCH   1   6
ATOM      3  N   UNL     1       6.079   3.738  14.053  0.00  0.00    +0.000 N 
ATOM      4  C   UNL     1       6.716   4.779  14.660  0.00  0.00    +0.000 C 
ATOM      5  N   UNL     1       7.657   5.487  14.108  0.00  0.00    +0.000 NA
ATOM      6  N   UNL     1       6.257   5.028  15.930  0.00  0.00    +0.000 N 
ATOM      7  H   UNL     1       6.196   3.766  13.048  0.00  0.00    +0.000 HD
ATOM      8  H   UNL     1       5.124   3.655  14.378  0.00  0.00    +0.000 HD
ATOM      9  H   UNL     1       6.740   5.785  16.404  0.00  0.00    +0.000 HD
BRANCH   5  10
ATOM     10  O   UNL     1       7.903   5.033  12.799  0.00  0.00    +0.000 OA
ATOM     11  H   UNL     1       7.557   4.124  12.829  0.00  0.00    +0.000 HD
ENDBRANCH   5  10
ENDBRANCH   1   6
BRANCH   2  12
ATOM     12  C   UNL     1       3.422   4.310  18.084  0.00  0.00    +0.000 A 
ATOM     13  C   UNL     1       2.174   4.183  17.470  0.00  0.00    +0.000 A 
ATOM     14  C   UNL     1       1.137   3.520  18.136  0.00  0.00    +0.000 A 
ATOM     15  C   UNL     1       1.347   2.989  19.412  0.00  0.00    +0.000 A 
ATOM     16  C   UNL     1       2.600   3.128  20.024  0.00  0.00    +0.000 A 
ATOM     17  C   UNL     1       3.641   3.789  19.365  0.00  0.00    +0.000 A 
BRANCH  16  18
ATOM     18  N   UNL     1       2.828   2.573  21.363  0.00  0.00    +0.000 N 
ATOM     19  O   UNL     1       1.912   2.675  22.191  0.00  0.00    +0.000 OA
ATOM     20  O   UNL     1       3.923   2.036  21.588  0.00  0.00    +0.000 OA
ENDBRANCH  16  18
ENDBRANCH   2  12
TORSDOF 4
ENDMDL
MODEL 5
REMARK VINA RESULT:      -6.5      7.202     10.226
REMARK  Name = 
REMARK  4 active torsions:
REMARK  status: ('A' for Active; 'I' for Inactive)
REMARK    1  A    between atoms: N_3  and  O_4
REMARK    2  A    between atoms: N_5  and  N_6
REMARK    3  A    between atoms: C_7  and  C_8
REMARK    4  A    between atoms: C_12  and  N_13
REMARK                            x       y       z     vdW  Elec       q    Type
REMARK                         _______ _______ _______ _____ _____    ______ ____
ROOT
ATOM      1  N   UNL     1       8.552   8.306  18.532  0.00  0.00    +0.000 NA
ATOM      2  C   UNL     1       8.441   9.527  18.122  0.00  0.00    +0.000 C 
ENDROOT
BRANCH   1   6
ATOM      3  N   UNL     1       8.121   5.887  19.594  0.00  0.00    +0.000 N 
ATOM      4  C   UNL     1       7.520   6.127  18.394  0.00  0.00    +0.000 C 
ATOM      5  N   UNL     1       6.749   5.281  17.776  0.00  0.00    +0.000 NA
ATOM      6  N   UNL     1       7.798   7.373  17.889  0.00  0.00    +0.000 N 
ATOM      7  H   UNL     1       7.673   5.125  20.087  0.00  0.00    +0.000 HD
ATOM      8  H   UNL     1       8.233   6.743  20.123  0.00  0.00    +0.000 HD
ATOM      9  H   UNL     1       7.378   7.557  16.983  0.00  0.00    +0.000 HD
BRANCH   5  10
ATOM     10  O   UNL     1       6.616   4.102  18.533  0.00  0.00    +0.000 OA
ATOM     11  H   UNL     1       6.253   3.479  17.879  0.00  0.00    +0.000 HD
ENDBRANCH   5  10
ENDBRANCH   1   6
BRANCH   2  12
ATOM     12  C   UNL     1       9.258  10.585  18.753  0.00  0.00    +0.000 A 
ATOM     13  C   UNL     1       9.367  10.646  20.145  0.00  0.00    +0.000 A 
ATOM     14  C   UNL     1      10.150  11.643  20.735  0.00  0.00    +0.000 A 
ATOM     15  C   UNL     1      10.820  12.577  19.939  0.00  0.00    +0.000 A 
ATOM     16  C   UNL     1      10.699  12.512  18.545  0.00  0.00    +0.000 A 
ATOM     17  C   UNL     1       9.918  11.520  17.946  0.00  0.00    +0.000 A 
BRANCH  16  18
ATOM     18  N   UNL     1      11.399  13.489  17.701  0.00  0.00    +0.000 N 
ATOM     19  O   UNL     1      11.834  14.512  18.248  0.00  0.00    +0.000 OA
ATOM     20  O   UNL     1      11.514  13.233  16.494  0.00  0.00    +0.000 OA
ENDBRANCH  16  18
ENDBRANCH   2  12
TORSDOF 4
ENDMDL
MODEL 6
REMARK VINA RESULT:      -6.4      1.398      1.491
REMARK  Name = 
REMARK  4 active torsions:
REMARK  status: ('A' for Active; 'I' for Inactive)
REMARK    1  A    between atoms: N_3  and  O_4
REMARK    2  A    between atoms: N_5  and  N_6
REMARK    3  A    between atoms: C_7  and  C_8
REMARK    4  A    between atoms: C_12  and  N_13
REMARK                            x       y       z     vdW  Elec       q    Type
REMARK                         _______ _______ _______ _____ _____    ______ ____
ROOT
ATOM      1  N   UNL     1       5.845   4.200  16.659  0.00  0.00    +0.000 NA
ATOM      2  C   UNL     1       4.693   4.727  16.916  0.00  0.00    +0.000 C 
ENDROOT
BRANCH   1   6
ATOM      3  N   UNL     1       6.337   3.652  14.085  0.00  0.00    +0.000 N 
ATOM      4  C   UNL     1       6.985   4.736  14.598  0.00  0.00    +0.000 C 
ATOM      5  N   UNL     1       7.778   5.509  13.916  0.00  0.00    +0.000 NA
ATOM      6  N   UNL     1       6.713   4.951  15.927  0.00  0.00    +0.000 N 
ATOM      7  H   UNL     1       6.295   3.689  13.075  0.00  0.00    +0.000 HD
ATOM      8  H   UNL     1       5.451   3.501  14.553  0.00  0.00    +0.000 HD
ATOM      9  H   UNL     1       7.208   5.741  16.329  0.00  0.00    +0.000 HD
BRANCH   5  10
ATOM     10  O   UNL     1       7.849   5.073  12.579  0.00  0.00    +0.000 OA
ATOM     11  H   UNL     1       6.943   5.231  12.263  0.00  0.00    +0.000 HD
ENDBRANCH   5  10
ENDBRANCH   1   6
BRANCH   2  12
ATOM     12  C   UNL     1       3.717   3.981  17.736  0.00  0.00    +0.000 A 
ATOM     13  C   UNL     1       3.116   2.826  17.228  0.00  0.00    +0.000 A 
ATOM     14  C   UNL     1       2.201   2.117  18.014  0.00  0.00    +0.000 A 
ATOM     15  C   UNL     1       1.885   2.562  19.301  0.00  0.00    +0.000 A 
ATOM     16  C   UNL     1       2.487   3.725  19.800  0.00  0.00    +0.000 A 
ATOM     17  C   UNL     1       3.402   4.440  19.021  0.00  0.00    +0.000 A 
BRANCH  16  18
ATOM     18  N   UNL     1       2.160   4.199  21.150  0.00  0.00    +0.000 N 
ATOM     19  O   UNL     1       1.843   5.390  21.279  0.00  0.00    +0.000 OA
ATOM     20  O   UNL     1       2.220   3.382  22.080  0.00  0.00    +0.000 OA
ENDBRANCH  16  18
ENDBRANCH   2  12
TORSDOF 4
ENDMDL
MODEL 7
REMARK VINA RESULT:      -6.4      1.567      2.128
REMARK  Name = 
REMARK  4 active torsions:
REMARK  status: ('A' for Active; 'I' for Inactive)
REMARK    1  A    between atoms: N_3  and  O_4
REMARK    2  A    between atoms: N_5  and  N_6
REMARK    3  A    between atoms: C_7  and  C_8
REMARK    4  A    between atoms: C_12  and  N_13
REMARK                            x       y       z     vdW  Elec       q    Type
REMARK                         _______ _______ _______ _____ _____    ______ ____
ROOT
ATOM      1  N   UNL     1       5.341   4.335  16.543  0.00  0.00    +0.000 NA
ATOM      2  C   UNL     1       4.125   4.772  16.523  0.00  0.00    +0.000 C 
ENDROOT
BRANCH   1   6
ATOM      3  N   UNL     1       7.288   6.044  15.867  0.00  0.00    +0.000 N 
ATOM      4  C   UNL     1       7.001   5.075  14.952  0.00  0.00    +0.000 C 
ATOM      5  N   UNL     1       7.625   4.924  13.821  0.00  0.00    +0.000 NA
ATOM      6  N   UNL     1       5.979   4.245  15.344  0.00  0.00    +0.000 N 
ATOM      7  H   UNL     1       8.210   6.433  15.719  0.00  0.00    +0.000 HD
ATOM      8  H   UNL     1       7.095   5.726  16.808  0.00  0.00    +0.000 HD
ATOM      9  H   UNL     1       5.738   3.534  14.661  0.00  0.00    +0.000 HD
BRANCH   5  10
ATOM     10  O   UNL     1       8.641   5.891  13.694  0.00  0.00    +0.000 OA
ATOM     11  H   UNL     1       9.422   5.411  14.021  0.00  0.00    +0.000 HD
ENDBRANCH   5  10
ENDBRANCH   1   6
BRANCH   2  12
ATOM     12  C   UNL     1       3.385   4.928  17.793  0.00  0.00    +0.000 A 
ATOM     13  C   UNL     1       3.493   6.115  18.522  0.00  0.00    +0.000 A 
ATOM     14  C   UNL     1       2.781   6.262  19.717  0.00  0.00    +0.000 A 
ATOM     15  C   UNL     1       1.967   5.225  20.184  0.00  0.00    +0.000 A 
ATOM     16  C   UNL     1       1.872   4.035  19.450  0.00  0.00    +0.000 A 
ATOM     17  C   UNL     1       2.580   3.880  18.255  0.00  0.00    +0.000 A 
BRANCH  16  18
ATOM     18  N   UNL     1       1.020   2.941  19.934  0.00  0.00    +0.000 N 
ATOM     19  O   UNL     1       0.279   2.384  19.111  0.00  0.00    +0.000 OA
ATOM     20  O   UNL     1       1.092   2.639  21.133  0.00  0.00    +0.000 OA
ENDBRANCH  16  18
ENDBRANCH   2  12
TORSDOF 4
ENDMDL
MODEL 8
REMARK VINA RESULT:      -6.3      1.899      2.396
REMARK  Name = 
REMARK  4 active torsions:
REMARK  status: ('A' for Active; 'I' for Inactive)
REMARK    1  A    between atoms: N_3  and  O_4
REMARK    2  A    between atoms: N_5  and  N_6
REMARK    3  A    between atoms: C_7  and  C_8
REMARK    4  A    between atoms: C_12  and  N_13
REMARK                            x       y       z     vdW  Elec       q    Type
REMARK                         _______ _______ _______ _____ _____    ______ ____
ROOT
ATOM      1  N   UNL     1       6.032   5.060  16.489  0.00  0.00    +0.000 NA
ATOM      2  C   UNL     1       5.048   5.867  16.715  0.00  0.00    +0.000 C 
ENDROOT
BRANCH   1   6
ATOM      3  N   UNL     1       6.173   4.168  13.969  0.00  0.00    +0.000 N 
ATOM      4  C   UNL     1       7.106   5.096  14.326  0.00  0.00    +0.000 C 
ATOM      5  N   UNL     1       8.009   5.576  13.523  0.00  0.00    +0.000 NA
ATOM      6  N   UNL     1       6.998   5.495  15.635  0.00  0.00    +0.000 N 
ATOM      7  H   UNL     1       6.063   4.121  12.964  0.00  0.00    +0.000 HD
ATOM      8  H   UNL     1       5.316   4.291  14.495  0.00  0.00    +0.000 HD
ATOM      9  H   UNL     1       7.703   6.168  15.923  0.00  0.00    +0.000 HD
BRANCH   5  10
ATOM     10  O   UNL     1       7.868   5.014  12.240  0.00  0.00    +0.000 OA
ATOM     11  H   UNL     1       8.348   4.172  12.331  0.00  0.00    +0.000 HD
ENDBRANCH   5  10
ENDBRANCH   1   6
BRANCH   2  12
ATOM     12  C   UNL     1       3.982   5.472  17.659  0.00  0.00    +0.000 A 
ATOM     13  C   UNL     1       3.412   6.426  18.506  0.00  0.00    +0.000 A 
ATOM     14  C   UNL     1       2.395   6.049  19.389  0.00  0.00    +0.000 A 
ATOM     15  C   UNL     1       1.951   4.724  19.428  0.00  0.00    +0.000 A 
ATOM     16  C   UNL     1       2.534   3.773  18.580  0.00  0.00    +0.000 A 
ATOM     17  C   UNL     1       3.551   4.141  17.694  0.00  0.00    +0.000 A 
BRANCH  16  18
ATOM     18  N   UNL     1       2.074   2.379  18.614  0.00  0.00    +0.000 N 
ATOM     19  O   UNL     1       0.855   2.179  18.714  0.00  0.00    +0.000 OA
ATOM     20  O   UNL     1       2.930   1.486  18.541  0.00  0.00    +0.000 OA
ENDBRANCH  16  18
ENDBRANCH   2  12
TORSDOF 4
ENDMDL
MODEL 9
REMARK VINA RESULT:      -6.3      1.456      1.737
REMARK  Name = 
REMARK  4 active torsions:
REMARK  status: ('A' for Active; 'I' for Inactive)
REMARK    1  A    between atoms: N_3  and  O_4
REMARK    2  A    between atoms: N_5  and  N_6
REMARK    3  A    between atoms: C_7  and  C_8
REMARK    4  A    between atoms: C_12  and  N_13
REMARK                            x       y       z     vdW  Elec       q    Type
REMARK                         _______ _______ _______ _____ _____    ______ ____
ROOT
ATOM      1  N   UNL     1       5.568   4.857  17.361  0.00  0.00    +0.000 NA
ATOM      2  C   UNL     1       5.178   5.791  18.165  0.00  0.00    +0.000 C 
ENDROOT
BRANCH   1   6
ATOM      3  N   UNL     1       5.545   4.759  14.686  0.00  0.00    +0.000 N 
ATOM      4  C   UNL     1       6.734   5.097  15.260  0.00  0.00    +0.000 C 
ATOM      5  N   UNL     1       7.812   5.395  14.595  0.00  0.00    +0.000 NA
ATOM      6  N   UNL     1       6.690   5.106  16.632  0.00  0.00    +0.000 N 
ATOM      7  H   UNL     1       5.503   5.053  13.719  0.00  0.00    +0.000 HD
ATOM      8  H   UNL     1       4.765   5.048  15.265  0.00  0.00    +0.000 HD
ATOM      9  H   UNL     1       7.577   5.332  17.074  0.00  0.00    +0.000 HD
BRANCH   5  10
ATOM     10  O   UNL     1       7.562   5.334  13.211  0.00  0.00    +0.000 OA
ATOM     11  H   UNL     1       6.751   5.865  13.126  0.00  0.00    +0.000 HD
ENDBRANCH   5  10
ENDBRANCH   1   6
BRANCH   2  12
ATOM     12  C   UNL     1       3.987   5.573  19.013  0.00  0.00    +0.000 A 
ATOM     13  C   UNL     1       3.122   6.635  19.287  0.00  0.00    +0.000 A 
ATOM     14  C   UNL     1       1.990   6.420  20.080  0.00  0.00    +0.000 A 
ATOM     15  C   UNL     1       1.725   5.149  20.600  0.00  0.00    +0.000 A 
ATOM     16  C   UNL     1       2.603   4.092  20.327  0.00  0.00    +0.000 A 
ATOM     17  C   UNL     1       3.736   4.298  19.535  0.00  0.00    +0.000 A 
BRANCH  16  18
ATOM     18  N   UNL     1       2.333   2.755  20.869  0.00  0.00    +0.000 N 
ATOM     19  O   UNL     1       1.823   1.919  20.110  0.00  0.00    +0.000 OA
ATOM     20  O   UNL     1       2.632   2.540  22.053  0.00  0.00    +0.000 OA
ENDBRANCH  16  18
ENDBRANCH   2  12
TORSDOF 4
ENDMDL
