MODEL 1
REMARK VINA RESULT:      -6.6      0.000      0.000
REMARK  Name = 
REMARK  3 active torsions:
REMARK  status: ('A' for Active; 'I' for Inactive)
REMARK    1  A    between atoms: O_1  and  C_2
REMARK    2  A    between atoms: C_5  and  N_6
REMARK    3  A    between atoms: N_7  and  C_8
REMARK                            x       y       z     vdW  Elec       q    Type
REMARK                         _______ _______ _______ _____ _____    ______ ____
ROOT
ATOM      1  C   UNL     1       6.871   4.988  14.759  0.00  0.00    +0.000 A 
ATOM      2  C   UNL     1       5.593   4.444  14.709  0.00  0.00    +0.000 A 
ATOM      3  C   UNL     1       4.947   4.101  15.902  0.00  0.00    +0.000 A 
ATOM      4  C   UNL     1       5.569   4.289  17.145  0.00  0.00    +0.000 A 
ATOM      5  C   UNL     1       6.853   4.859  17.165  0.00  0.00    +0.000 A 
ATOM      6  C   UNL     1       7.504   5.201  15.977  0.00  0.00    +0.000 A 
ENDROOT
BRANCH   1   7
ATOM      7  O   UNL     1       7.544   5.330  13.625  0.00  0.00    +0.000 OA
ATOM      8  H   UNL     1       8.462   5.546  13.859  0.00  0.00    +0.000 HD
ENDBRANCH   1   7
BRANCH   4   9
ATOM      9  N   UNL     1       4.852   3.908  18.300  0.00  0.00    +0.000 NA
ATOM     10  N   UNL     1       3.669   3.598  18.050  0.00  0.00    +0.000 NA
BRANCH  10  11
ATOM     11  C   UNL     1       2.912   3.346  19.213  0.00  0.00    +0.000 A 
ATOM     12  C   UNL     1       1.550   3.673  19.185  0.00  0.00    +0.000 A 
ATOM     13  C   UNL     1       0.732   3.459  20.297  0.00  0.00    +0.000 A 
ATOM     14  C   UNL     1       1.268   2.902  21.456  0.00  0.00    +0.000 A 
ATOM     15  C   UNL     1       2.616   2.553  21.498  0.00  0.00    +0.000 A 
ATOM     16  C   UNL     1       3.431   2.769  20.382  0.00  0.00    +0.000 A 
ENDBRANCH  10  11
ENDBRANCH   4   9
TORSDOF 3
ENDMDL
MODEL 2
REMARK VINA RESULT:      -6.5      0.589      1.821
REMARK  Name = 
REMARK  3 active torsions:
REMARK  status: ('A' for Active; 'I' for Inactive)
REMARK    1  A    between atoms: O_1  and  C_2
REMARK    2  A    between atoms: C_5  and  N_6
REMARK    3  A    between atoms: N_7  and  C_8
REMARK                            x       y       z     vdW  Elec       q    Type
REMARK                         _______ _______ _______ _____ _____    ______ ____
ROOT
ATOM      1  C   UNL     1       7.116   5.042  14.740  0.00  0.00    +0.000 A 
ATOM      2  C   UNL     1       7.234   5.306  16.100  0.00  0.00    +0.000 A 
ATOM      3  C   UNL     1       6.293   4.771  16.986  0.00  0.00    +0.000 A 
ATOM      4  C   UNL     1       5.230   3.981  16.527  0.00  0.00    +0.000 A 
ATOM      5  C   UNL     1       5.147   3.714  15.150  0.00  0.00    +0.000 A 
ATOM      6  C   UNL     1       6.082   4.248  14.260  0.00  0.00    +0.000 A 
ENDROOT
BRANCH   1   7
ATOM      7  O   UNL     1       8.002   5.547  13.838  0.00  0.00    +0.000 OA
ATOM      8  H   UNL     1       7.825   6.496  13.723  0.00  0.00    +0.000 HD
ENDBRANCH   1   7
BRANCH   4   9
ATOM      9  N   UNL     1       4.319   3.488  17.486  0.00  0.00    +0.000 NA
ATOM     10  N   UNL     1       3.683   4.399  18.057  0.00  0.00    +0.000 NA
BRANCH  10  11
ATOM     11  C   UNL     1       2.871   3.923  19.108  0.00  0.00    +0.000 A 
ATOM     12  C   UNL     1       3.488   3.168  20.114  0.00  0.00    +0.000 A 
ATOM     13  C   UNL     1       2.753   2.657  21.187  0.00  0.00    +0.000 A 
ATOM     14  C   UNL     1       1.385   2.906  21.273  0.00  0.00    +0.000 A 
ATOM     15  C   UNL     1       0.757   3.671  20.293  0.00  0.00    +0.000 A 
ATOM     16  C   UNL     1       1.496   4.181  19.220  0.00  0.00    +0.000 A 
ENDBRANCH  10  11
ENDBRANCH   4   9
TORSDOF 3
ENDMDL
MODEL 3
REMARK VINA RESULT:      -6.4      0.980      1.348
REMARK  Name = 
REMARK  3 active torsions:
REMARK  status: ('A' for Active; 'I' for Inactive)
REMARK    1  A    between atoms: O_1  and  C_2
REMARK    2  A    between atoms: C_5  and  N_6
REMARK    3  A    between atoms: N_7  and  C_8
REMARK                            x       y       z     vdW  Elec       q    Type
REMARK                         _______ _______ _______ _____ _____    ______ ____
ROOT
ATOM      1  C   UNL     1       7.227   5.104  14.593  0.00  0.00    +0.000 A 
ATOM      2  C   UNL     1       6.140   4.396  14.092  0.00  0.00    +0.000 A 
ATOM      3  C   UNL     1       5.151   3.947  14.973  0.00  0.00    +0.000 A 
ATOM      4  C   UNL     1       5.239   4.191  16.351  0.00  0.00    +0.000 A 
ATOM      5  C   UNL     1       6.337   4.926  16.826  0.00  0.00    +0.000 A 
ATOM      6  C   UNL     1       7.331   5.375  15.952  0.00  0.00    +0.000 A 
ENDROOT
BRANCH   1   7
ATOM      7  O   UNL     1       8.220   5.555  13.777  0.00  0.00    +0.000 OA
ATOM      8  H   UNL     1       8.965   5.851  14.326  0.00  0.00    +0.000 HD
ENDBRANCH   1   7
BRANCH   4   9
ATOM      9  N   UNL     1       4.202   3.694  17.171  0.00  0.00    +0.000 NA
ATOM     10  N   UNL     1       3.694   4.579  17.891  0.00  0.00    +0.000 NA
BRANCH  10  11
ATOM     11  C   UNL     1       2.753   4.066  18.806  0.00  0.00    +0.000 A 
ATOM     12  C   UNL     1       2.817   4.524  20.129  0.00  0.00    +0.000 A 
ATOM     13  C   UNL     1       1.923   4.062  21.098  0.00  0.00    +0.000 A 
ATOM     14  C   UNL     1       0.941   3.136  20.752  0.00  0.00    +0.000 A 
ATOM     15  C   UNL     1       0.849   2.681  19.438  0.00  0.00    +0.000 A 
ATOM     16  C   UNL     1       1.746   3.148  18.471  0.00  0.00    +0.000 A 
ENDBRANCH  10  11
ENDBRANCH   4   9
TORSDOF 3
ENDMDL
MODEL 4
REMARK VINA RESULT:      -6.4      1.244      1.780
REMARK  Name = 
REMARK  3 active torsions:
REMARK  status: ('A' for Active; 'I' for Inactive)
REMARK    1  A    between atoms: O_1  and  C_2
REMARK    2  A    between atoms: C_5  and  N_6
REMARK    3  A    between atoms: N_7  and  C_8
REMARK                            x       y       z     vdW  Elec       q    Type
REMARK                         _______ _______ _______ _____ _____    ______ ____
ROOT
ATOM      1  C   UNL     1       7.273   5.168  14.600  0.00  0.00    +0.000 A 
ATOM      2  C   UNL     1       7.076   5.609  15.904  0.00  0.00    +0.000 A 
ATOM      3  C   UNL     1       5.967   5.152  16.622  0.00  0.00    +0.000 A 
ATOM      4  C   UNL     1       5.046   4.263  16.048  0.00  0.00    +0.000 A 
ATOM      5  C   UNL     1       5.280   3.819  14.737  0.00  0.00    +0.000 A 
ATOM      6  C   UNL     1       6.386   4.275  14.013  0.00  0.00    +0.000 A 
ENDROOT
BRANCH   1   7
ATOM      7  O   UNL     1       8.333   5.592  13.858  0.00  0.00    +0.000 OA
ATOM      8  H   UNL     1       9.151   5.250  14.257  0.00  0.00    +0.000 HD
ENDBRANCH   1   7
BRANCH   4   9
ATOM      9  N   UNL     1       3.948   3.858  16.838  0.00  0.00    +0.000 NA
ATOM     10  N   UNL     1       3.675   4.679  17.739  0.00  0.00    +0.000 NA
BRANCH  10  11
ATOM     11  C   UNL     1       2.669   4.218  18.613  0.00  0.00    +0.000 A 
ATOM     12  C   UNL     1       1.939   3.088  18.223  0.00  0.00    +0.000 A 
ATOM     13  C   UNL     1       0.922   2.570  19.030  0.00  0.00    +0.000 A 
ATOM     14  C   UNL     1       0.629   3.175  20.250  0.00  0.00    +0.000 A 
ATOM     15  C   UNL     1       1.356   4.289  20.664  0.00  0.00    +0.000 A 
ATOM     16  C   UNL     1       2.373   4.803  19.853  0.00  0.00    +0.000 A 
ENDBRANCH  10  11
ENDBRANCH   4   9
TORSDOF 3
ENDMDL
MODEL 5
REMARK VINA RESULT:      -6.4      0.589      1.369
REMARK  Name = 
REMARK  3 active torsions:
REMARK  status: ('A' for Active; 'I' for Inactive)
REMARK    1  A    between atoms: O_1  and  C_2
REMARK    2  A    between atoms: C_5  and  N_6
REMARK    3  A    between atoms: N_7  and  C_8
REMARK                            x       y       z     vdW  Elec       q    Type
REMARK                         _______ _______ _______ _____ _____    ______ ____
ROOT
ATOM      1  C   UNL     1       7.124   5.070  14.982  0.00  0.00    +0.000 A 
ATOM      2  C   UNL     1       7.232   5.208  16.360  0.00  0.00    +0.000 A 
ATOM      3  C   UNL     1       6.154   4.839  17.172  0.00  0.00    +0.000 A 
ATOM      4  C   UNL     1       4.965   4.341  16.620  0.00  0.00    +0.000 A 
ATOM      5  C   UNL     1       4.892   4.193  15.225  0.00  0.00    +0.000 A 
ATOM      6  C   UNL     1       5.965   4.563  14.408  0.00  0.00    +0.000 A 
ENDROOT
BRANCH   1   7
ATOM      7  O   UNL     1       8.143   5.423  14.149  0.00  0.00    +0.000 OA
ATOM      8  H   UNL     1       8.929   5.621  14.684  0.00  0.00    +0.000 HD
ENDBRANCH   1   7
BRANCH   4   9
ATOM      9  N   UNL     1       3.922   4.001  17.508  0.00  0.00    +0.000 NA
ATOM     10  N   UNL     1       4.222   4.210  18.702  0.00  0.00    +0.000 NA
BRANCH  10  11
ATOM     11  C   UNL     1       3.238   3.748  19.602  0.00  0.00    +0.000 A 
ATOM     12  C   UNL     1       1.929   4.215  19.427  0.00  0.00    +0.000 A 
ATOM     13  C   UNL     1       0.897   3.809  20.277  0.00  0.00    +0.000 A 
ATOM     14  C   UNL     1       1.163   2.917  21.314  0.00  0.00    +0.000 A 
ATOM     15  C   UNL     1       2.455   2.428  21.494  0.00  0.00    +0.000 A 
ATOM     16  C   UNL     1       3.484   2.836  20.639  0.00  0.00    +0.000 A 
ENDBRANCH  10  11
ENDBRANCH   4   9
TORSDOF 3
ENDMDL
MODEL 6
REMARK VINA RESULT:      -6.2      0.734      1.436
REMARK  Name = 
REMARK  3 active torsions:
REMARK  status: ('A' for Active; 'I' for Inactive)
REMARK    1  A    between atoms: O_1  and  C_2
REMARK    2  A    between atoms: C_5  and  N_6
REMARK    3  A    between atoms: N_7  and  C_8
REMARK                            x       y       z     vdW  Elec       q    Type
REMARK                         _______ _______ _______ _____ _____    ______ ____
ROOT
ATOM      1  C   UNL     1       6.995   5.203  14.986  0.00  0.00    +0.000 A 
ATOM      2  C   UNL     1       6.051   4.188  14.874  0.00  0.00    +0.000 A 
ATOM      3  C   UNL     1       5.053   4.070  15.847  0.00  0.00    +0.000 A 
ATOM      4  C   UNL     1       4.993   4.950  16.937  0.00  0.00    +0.000 A 
ATOM      5  C   UNL     1       5.948   5.977  17.014  0.00  0.00    +0.000 A 
ATOM      6  C   UNL     1       6.949   6.099  16.047  0.00  0.00    +0.000 A 
ENDROOT
BRANCH   1   7
ATOM      7  O   UNL     1       7.990   5.354  14.069  0.00  0.00    +0.000 OA
ATOM      8  H   UNL     1       8.176   6.302  13.962  0.00  0.00    +0.000 HD
ENDBRANCH   1   7
BRANCH   4   9
ATOM      9  N   UNL     1       3.960   4.755  17.880  0.00  0.00    +0.000 NA
ATOM     10  N   UNL     1       4.262   3.919  18.756  0.00  0.00    +0.000 NA
BRANCH  10  11
ATOM     11  C   UNL     1       3.188   3.621  19.620  0.00  0.00    +0.000 A 
ATOM     12  C   UNL     1       3.423   2.707  20.657  0.00  0.00    +0.000 A 
ATOM     13  C   UNL     1       2.411   2.355  21.553  0.00  0.00    +0.000 A 
ATOM     14  C   UNL     1       1.145   2.925  21.429  0.00  0.00    +0.000 A 
ATOM     15  C   UNL     1       0.896   3.849  20.417  0.00  0.00    +0.000 A 
ATOM     16  C   UNL     1       1.913   4.198  19.522  0.00  0.00    +0.000 A 
ENDBRANCH  10  11
ENDBRANCH   4   9
TORSDOF 3
ENDMDL
MODEL 7
REMARK VINA RESULT:      -6.2      1.278      1.438
REMARK  Name = 
REMARK  3 active torsions:
REMARK  status: ('A' for Active; 'I' for Inactive)
REMARK    1  A    between atoms: O_1  and  C_2
REMARK    2  A    between atoms: C_5  and  N_6
REMARK    3  A    between atoms: N_7  and  C_8
REMARK                            x       y       z     vdW  Elec       q    Type
REMARK                         _______ _______ _______ _____ _____    ______ ____
ROOT
ATOM      1  C   UNL     1       7.214   5.189  14.423  0.00  0.00    +0.000 A 
ATOM      2  C   UNL     1       6.289   4.264  13.952  0.00  0.00    +0.000 A 
ATOM      3  C   UNL     1       5.217   3.890  14.769  0.00  0.00    +0.000 A 
ATOM      4  C   UNL     1       5.064   4.425  16.057  0.00  0.00    +0.000 A 
ATOM      5  C   UNL     1       6.003   5.372  16.498  0.00  0.00    +0.000 A 
ATOM      6  C   UNL     1       7.078   5.747  15.687  0.00  0.00    +0.000 A 
ENDROOT
BRANCH   1   7
ATOM      7  O   UNL     1       8.278   5.578  13.667  0.00  0.00    +0.000 OA
ATOM      8  H   UNL     1       8.141   6.498  13.384  0.00  0.00    +0.000 HD
ENDBRANCH   1   7
BRANCH   4   9
ATOM      9  N   UNL     1       3.961   3.987  16.820  0.00  0.00    +0.000 NA
ATOM     10  N   UNL     1       3.730   4.727  17.800  0.00  0.00    +0.000 NA
BRANCH  10  11
ATOM     11  C   UNL     1       2.717   4.222  18.640  0.00  0.00    +0.000 A 
ATOM     12  C   UNL     1       2.202   2.953  18.346  0.00  0.00    +0.000 A 
ATOM     13  C   UNL     1       1.193   2.383  19.128  0.00  0.00    +0.000 A 
ATOM     14  C   UNL     1       0.691   3.077  20.227  0.00  0.00    +0.000 A 
ATOM     15  C   UNL     1       1.203   4.332  20.547  0.00  0.00    +0.000 A 
ATOM     16  C   UNL     1       2.213   4.898  19.762  0.00  0.00    +0.000 A 
ENDBRANCH  10  11
ENDBRANCH   4   9
TORSDOF 3
ENDMDL
MODEL 8
REMARK VINA RESULT:      -6.1      2.988      6.587
REMARK  Name = 
REMARK  3 active torsions:
REMARK  status: ('A' for Active; 'I' for Inactive)
REMARK    1  A    between atoms: O_1  and  C_2
REMARK    2  A    between atoms: C_5  and  N_6
REMARK    3  A    between atoms: N_7  and  C_8
REMARK                            x       y       z     vdW  Elec       q    Type
REMARK                         _______ _______ _______ _____ _____    ______ ____
ROOT
ATOM      1  C   UNL     1       1.572   2.662  21.338  0.00  0.00    +0.000 A 
ATOM      2  C   UNL     1       1.043   3.084  20.124  0.00  0.00    +0.000 A 
ATOM      3  C   UNL     1       1.888   3.220  19.018  0.00  0.00    +0.000 A 
ATOM      4  C   UNL     1       3.261   2.946  19.114  0.00  0.00    +0.000 A 
ATOM      5  C   UNL     1       3.764   2.504  20.348  0.00  0.00    +0.000 A 
ATOM      6  C   UNL     1       2.925   2.369  21.458  0.00  0.00    +0.000 A 
ENDROOT
BRANCH   1   7
ATOM      7  O   UNL     1       0.791   2.523  22.445  0.00  0.00    +0.000 OA
ATOM      8  H   UNL     1       0.089   1.879  22.253  0.00  0.00    +0.000 HD
ENDBRANCH   1   7
BRANCH   4   9
ATOM      9  N   UNL     1       4.045   3.118  17.954  0.00  0.00    +0.000 NA
ATOM     10  N   UNL     1       4.890   4.030  18.076  0.00  0.00    +0.000 NA
BRANCH  10  11
ATOM     11  C   UNL     1       5.585   4.296  16.878  0.00  0.00    +0.000 A 
ATOM     12  C   UNL     1       4.865   4.213  15.678  0.00  0.00    +0.000 A 
ATOM     13  C   UNL     1       5.481   4.458  14.448  0.00  0.00    +0.000 A 
ATOM     14  C   UNL     1       6.830   4.802  14.403  0.00  0.00    +0.000 A 
ATOM     15  C   UNL     1       7.558   4.908  15.585  0.00  0.00    +0.000 A 
ATOM     16  C   UNL     1       6.938   4.662  16.815  0.00  0.00    +0.000 A 
ENDBRANCH  10  11
ENDBRANCH   4   9
TORSDOF 3
ENDMDL
MODEL 9
REMARK VINA RESULT:      -6.1      5.729      8.421
REMARK  Name = 
REMARK  3 active torsions:
REMARK  status: ('A' for Active; 'I' for Inactive)
REMARK    1  A    between atoms: O_1  and  C_2
REMARK    2  A    between atoms: C_5  and  N_6
REMARK    3  A    between atoms: N_7  and  C_8
REMARK                            x       y       z     vdW  Elec       q    Type
REMARK                         _______ _______ _______ _____ _____    ______ ____
ROOT
ATOM      1  C   UNL     1       6.581   5.069  18.260  0.00  0.00    +0.000 A 
ATOM      2  C   UNL     1       7.688   5.501  18.982  0.00  0.00    +0.000 A 
ATOM      3  C   UNL     1       8.177   6.795  18.777  0.00  0.00    +0.000 A 
ATOM      4  C   UNL     1       7.577   7.661  17.852  0.00  0.00    +0.000 A 
ATOM      5  C   UNL     1       6.448   7.204  17.151  0.00  0.00    +0.000 A 
ATOM      6  C   UNL     1       5.957   5.911  17.349  0.00  0.00    +0.000 A 
ENDROOT
BRANCH   1   7
ATOM      7  O   UNL     1       6.073   3.815  18.419  0.00  0.00    +0.000 OA
ATOM      8  H   UNL     1       5.344   3.852  19.061  0.00  0.00    +0.000 HD
ENDBRANCH   1   7
BRANCH   4   9
ATOM      9  N   UNL     1       8.139   8.947  17.698  0.00  0.00    +0.000 NA
ATOM     10  N   UNL     1       8.791   9.308  18.700  0.00  0.00    +0.000 NA
BRANCH  10  11
ATOM     11  C   UNL     1       9.241  10.642  18.607  0.00  0.00    +0.000 A 
ATOM     12  C   UNL     1       8.510  11.519  17.796  0.00  0.00    +0.000 A 
ATOM     13  C   UNL     1       8.891  12.855  17.648  0.00  0.00    +0.000 A 
ATOM     14  C   UNL     1      10.012  13.335  18.322  0.00  0.00    +0.000 A 
ATOM     15  C   UNL     1      10.742  12.484  19.148  0.00  0.00    +0.000 A 
ATOM     16  C   UNL     1      10.356  11.147  19.294  0.00  0.00    +0.000 A 
ENDBRANCH  10  11
ENDBRANCH   4   9
TORSDOF 3
ENDMDL
