MODEL 1
REMARK VINA RESULT:      -7.3      0.000      0.000
REMARK  Name = 
REMARK  5 active torsions:
REMARK  status: ('A' for Active; 'I' for Inactive)
REMARK    1  A    between atoms: C_2  and  C_11
REMARK    2  A    between atoms: N_3  and  C_4
REMARK    3  A    between atoms: N_19  and  O_20
REMARK    4  A    between atoms: O_20  and  S_21
REMARK    5  A    between atoms: S_21  and  O_24
REMARK                            x       y       z     vdW  Elec       q    Type
REMARK                         _______ _______ _______ _____ _____    ______ ____
ROOT
ATOM      1  C   UNL     1       5.864   5.552  17.588  0.00  0.00    +0.000 C 
ATOM      2  C   UNL     1       5.057   6.661  16.840  0.00  0.00    +0.000 C 
ATOM      3  C   UNL     1       5.285   6.610  15.318  0.00  0.00    +0.000 C 
ATOM      4  C   UNL     1       5.188   5.150  14.763  0.00  0.00    +0.000 C 
ATOM      5  C   UNL     1       4.811   4.183  15.884  0.00  0.00    +0.000 C 
ATOM      6  N   UNL     1       5.980   4.364  16.713  0.00  0.00    +0.000 N 
ATOM      7  C   UNL     1       7.101   4.419  15.783  0.00  0.00    +0.000 C 
ATOM      8  O   UNL     1       8.275   4.555  16.068  0.00  0.00    +0.000 OA
ATOM      9  N   UNL     1       6.540   4.684  14.456  0.00  0.00    +0.000 N 
ENDROOT
BRANCH   1  11
ATOM     10  O   UNL     1       5.638   5.356  20.013  0.00  0.00    +0.000 OA
ATOM     11  C   UNL     1       5.133   5.196  18.904  0.00  0.00    +0.000 C 
ATOM     12  N   UNL     1       3.918   4.571  18.735  0.00  0.00    +0.000 N 
ATOM     13  H   UNL     1       3.499   4.646  17.812  0.00  0.00    +0.000 HD
BRANCH  12  14
ATOM     14  C   UNL     1       3.035   4.284  19.870  0.00  0.00    +0.000 C 
ATOM     15  C   UNL     1       3.256   2.854  20.363  0.00  0.00    +0.000 C 
ATOM     16  C   UNL     1       2.342   2.543  21.546  0.00  0.00    +0.000 C 
ATOM     17  N   UNL     1       0.935   2.719  21.195  0.00  0.00    +0.000 NA
ATOM     18  C   UNL     1       0.650   4.069  20.695  0.00  0.00    +0.000 C 
ATOM     19  C   UNL     1       1.557   4.503  19.530  0.00  0.00    +0.000 C 
ATOM     20  F   UNL     1       1.239   3.765  18.422  0.00  0.00    +0.000 F 
ATOM     21  H   UNL     1       0.349   2.517  22.005  0.00  0.00    +0.000 HD
ENDBRANCH  12  14
ENDBRANCH   1  11
BRANCH   9  22
ATOM     22  O   UNL     1       6.307   3.404  13.801  0.00  0.00    +0.000 OA
BRANCH  22  23
ATOM     23  S   UNL     1       6.259   3.379  12.166  0.00  0.00    +0.000 S 
ATOM     24  O   UNL     1       4.883   3.399  11.748  0.00  0.00    +0.000 OA
ATOM     25  O   UNL     1       7.203   4.371  11.686  0.00  0.00    +0.000 OA
BRANCH  23  26
ATOM     26  O   UNL     1       6.832   1.934  11.743  0.00  0.00    +0.000 OA
ATOM     27  H   UNL     1       7.543   2.103  11.088  0.00  0.00    +0.000 HD
ENDBRANCH  23  26
ENDBRANCH  22  23
ENDBRANCH   9  22
TORSDOF 5
ENDMDL
MODEL 2
REMARK VINA RESULT:      -7.1      4.243      5.454
REMARK  Name = 
REMARK  5 active torsions:
REMARK  status: ('A' for Active; 'I' for Inactive)
REMARK    1  A    between atoms: C_2  and  C_11
REMARK    2  A    between atoms: N_3  and  C_4
REMARK    3  A    between atoms: N_19  and  O_20
REMARK    4  A    between atoms: O_20  and  S_21
REMARK    5  A    between atoms: S_21  and  O_24
REMARK                            x       y       z     vdW  Elec       q    Type
REMARK                         _______ _______ _______ _____ _____    ______ ____
ROOT
ATOM      1  C   UNL     1       2.475   6.500  18.663  0.00  0.00    +0.000 C 
ATOM      2  C   UNL     1       1.633   5.220  18.357  0.00  0.00    +0.000 C 
ATOM      3  C   UNL     1       2.453   4.162  17.597  0.00  0.00    +0.000 C 
ATOM      4  C   UNL     1       3.870   3.958  18.230  0.00  0.00    +0.000 C 
ATOM      5  C   UNL     1       4.016   4.817  19.484  0.00  0.00    +0.000 C 
ATOM      6  N   UNL     1       3.890   6.114  18.861  0.00  0.00    +0.000 N 
ATOM      7  C   UNL     1       4.658   6.020  17.627  0.00  0.00    +0.000 C 
ATOM      8  O   UNL     1       4.820   6.899  16.803  0.00  0.00    +0.000 OA
ATOM      9  N   UNL     1       4.858   4.594  17.358  0.00  0.00    +0.000 N 
ENDROOT
BRANCH   1  11
ATOM     10  O   UNL     1       1.728   6.588  20.988  0.00  0.00    +0.000 OA
ATOM     11  C   UNL     1       1.909   7.185  19.929  0.00  0.00    +0.000 C 
ATOM     12  N   UNL     1       1.509   8.491  19.746  0.00  0.00    +0.000 N 
ATOM     13  H   UNL     1       1.860   8.955  18.913  0.00  0.00    +0.000 HD
BRANCH  12  14
ATOM     14  C   UNL     1       1.074   9.328  20.869  0.00  0.00    +0.000 C 
ATOM     15  C   UNL     1      -0.129   8.693  21.566  0.00  0.00    +0.000 C 
ATOM     16  C   UNL     1      -0.591   9.555  22.738  0.00  0.00    +0.000 C 
ATOM     17  N   UNL     1      -0.944  10.904  22.302  0.00  0.00    +0.000 NA
ATOM     18  C   UNL     1       0.162  11.572  21.606  0.00  0.00    +0.000 C 
ATOM     19  C   UNL     1       0.740  10.759  20.435  0.00  0.00    +0.000 C 
ATOM     20  F   UNL     1      -0.187  10.715  19.427  0.00  0.00    +0.000 F 
ATOM     21  H   UNL     1      -1.237  11.461  23.105  0.00  0.00    +0.000 HD
ENDBRANCH  12  14
ENDBRANCH   1  11
BRANCH   9  22
ATOM     22  O   UNL     1       6.127   4.196  17.953  0.00  0.00    +0.000 OA
BRANCH  22  23
ATOM     23  S   UNL     1       7.504   4.710  17.235  0.00  0.00    +0.000 S 
ATOM     24  O   UNL     1       8.618   4.038  17.850  0.00  0.00    +0.000 OA
ATOM     25  O   UNL     1       7.295   4.655  15.801  0.00  0.00    +0.000 OA
BRANCH  23  26
ATOM     26  O   UNL     1       7.643   6.263  17.637  0.00  0.00    +0.000 OA
ATOM     27  H   UNL     1       6.766   6.670  17.466  0.00  0.00    +0.000 HD
ENDBRANCH  23  26
ENDBRANCH  22  23
ENDBRANCH   9  22
TORSDOF 5
ENDMDL
MODEL 3
REMARK VINA RESULT:      -6.9      4.639      5.950
REMARK  Name = 
REMARK  5 active torsions:
REMARK  status: ('A' for Active; 'I' for Inactive)
REMARK    1  A    between atoms: C_2  and  C_11
REMARK    2  A    between atoms: N_3  and  C_4
REMARK    3  A    between atoms: N_19  and  O_20
REMARK    4  A    between atoms: O_20  and  S_21
REMARK    5  A    between atoms: S_21  and  O_24
REMARK                            x       y       z     vdW  Elec       q    Type
REMARK                         _______ _______ _______ _____ _____    ______ ____
ROOT
ATOM      1  C   UNL     1       2.520   6.847  18.077  0.00  0.00    +0.000 C 
ATOM      2  C   UNL     1       1.672   5.536  18.122  0.00  0.00    +0.000 C 
ATOM      3  C   UNL     1       2.489   4.308  17.680  0.00  0.00    +0.000 C 
ATOM      4  C   UNL     1       3.902   4.276  18.353  0.00  0.00    +0.000 C 
ATOM      5  C   UNL     1       4.047   5.440  19.331  0.00  0.00    +0.000 C 
ATOM      6  N   UNL     1       3.932   6.522  18.381  0.00  0.00    +0.000 N 
ATOM      7  C   UNL     1       4.705   6.096  17.222  0.00  0.00    +0.000 C 
ATOM      8  O   UNL     1       4.876   6.720  16.193  0.00  0.00    +0.000 OA
ATOM      9  N   UNL     1       4.898   4.650  17.348  0.00  0.00    +0.000 N 
ENDROOT
BRANCH   1  11
ATOM     10  O   UNL     1       1.911   7.617  20.315  0.00  0.00    +0.000 OA
ATOM     11  C   UNL     1       1.953   7.851  19.109  0.00  0.00    +0.000 C 
ATOM     12  N   UNL     1       1.385   8.979  18.561  0.00  0.00    +0.000 N 
ATOM     13  H   UNL     1       1.625   9.178  17.593  0.00  0.00    +0.000 HD
BRANCH  12  14
ATOM     14  C   UNL     1       0.919  10.091  19.396  0.00  0.00    +0.000 C 
ATOM     15  C   UNL     1      -0.540  10.415  19.079  0.00  0.00    +0.000 C 
ATOM     16  C   UNL     1      -1.037  11.571  19.944  0.00  0.00    +0.000 C 
ATOM     17  N   UNL     1      -0.225  12.770  19.750  0.00  0.00    +0.000 NA
ATOM     18  C   UNL     1       1.197  12.530  20.021  0.00  0.00    +0.000 C 
ATOM     19  C   UNL     1       1.786  11.345  19.236  0.00  0.00    +0.000 C 
ATOM     20  F   UNL     1       1.847  11.679  17.909  0.00  0.00    +0.000 F 
ATOM     21  H   UNL     1      -0.570  13.521  20.347  0.00  0.00    +0.000 HD
ENDBRANCH  12  14
ENDBRANCH   1  11
BRANCH   9  22
ATOM     22  O   UNL     1       6.161   4.421  18.037  0.00  0.00    +0.000 OA
BRANCH  22  23
ATOM     23  S   UNL     1       7.545   4.694  17.208  0.00  0.00    +0.000 S 
ATOM     24  O   UNL     1       8.631   4.064  17.911  0.00  0.00    +0.000 OA
ATOM     25  O   UNL     1       7.284   4.397  15.813  0.00  0.00    +0.000 OA
BRANCH  23  26
ATOM     26  O   UNL     1       7.804   6.280  17.317  0.00  0.00    +0.000 OA
ATOM     27  H   UNL     1       8.519   6.395  17.980  0.00  0.00    +0.000 HD
ENDBRANCH  23  26
ENDBRANCH  22  23
ENDBRANCH   9  22
TORSDOF 5
ENDMDL
MODEL 4
REMARK VINA RESULT:      -6.7      4.382      5.421
REMARK  Name = 
REMARK  5 active torsions:
REMARK  status: ('A' for Active; 'I' for Inactive)
REMARK    1  A    between atoms: C_2  and  C_11
REMARK    2  A    between atoms: N_3  and  C_4
REMARK    3  A    between atoms: N_19  and  O_20
REMARK    4  A    between atoms: O_20  and  S_21
REMARK    5  A    between atoms: S_21  and  O_24
REMARK                            x       y       z     vdW  Elec       q    Type
REMARK                         _______ _______ _______ _____ _____    ______ ____
ROOT
ATOM      1  C   UNL     1       2.233   6.768  18.758  0.00  0.00    +0.000 C 
ATOM      2  C   UNL     1       1.755   5.281  18.745  0.00  0.00    +0.000 C 
ATOM      3  C   UNL     1       2.678   4.388  17.897  0.00  0.00    +0.000 C 
ATOM      4  C   UNL     1       4.190   4.656  18.202  0.00  0.00    +0.000 C 
ATOM      5  C   UNL     1       4.327   5.682  19.324  0.00  0.00    +0.000 C 
ATOM      6  N   UNL     1       3.709   6.804  18.655  0.00  0.00    +0.000 N 
ATOM      7  C   UNL     1       4.210   6.753  17.287  0.00  0.00    +0.000 C 
ATOM      8  O   UNL     1       3.944   7.525  16.387  0.00  0.00    +0.000 OA
ATOM      9  N   UNL     1       4.757   5.410  17.084  0.00  0.00    +0.000 N 
ENDROOT
BRANCH   1  11
ATOM     10  O   UNL     1       1.716   6.851  21.145  0.00  0.00    +0.000 OA
ATOM     11  C   UNL     1       1.757   7.441  20.066  0.00  0.00    +0.000 C 
ATOM     12  N   UNL     1       1.265   8.718  19.910  0.00  0.00    +0.000 N 
ATOM     13  H   UNL     1       1.505   9.188  19.041  0.00  0.00    +0.000 HD
BRANCH  12  14
ATOM     14  C   UNL     1       0.895   9.548  21.062  0.00  0.00    +0.000 C 
ATOM     15  C   UNL     1      -0.224   8.878  21.857  0.00  0.00    +0.000 C 
ATOM     16  C   UNL     1      -0.618   9.732  23.060  0.00  0.00    +0.000 C 
ATOM     17  N   UNL     1      -1.051  11.065  22.649  0.00  0.00    +0.000 NA
ATOM     18  C   UNL     1      -0.028  11.765  21.863  0.00  0.00    +0.000 C 
ATOM     19  C   UNL     1       0.479  10.964  20.651  0.00  0.00    +0.000 C 
ATOM     20  F   UNL     1      -0.525  10.883  19.723  0.00  0.00    +0.000 F 
ATOM     21  H   UNL     1      -1.295  11.618  23.471  0.00  0.00    +0.000 HD
ENDBRANCH  12  14
ENDBRANCH   1  11
BRANCH   9  22
ATOM     22  O   UNL     1       6.178   5.448  17.401  0.00  0.00    +0.000 OA
BRANCH  22  23
ATOM     23  S   UNL     1       7.209   4.674  16.394  0.00  0.00    +0.000 S 
ATOM     24  O   UNL     1       7.512   5.547  15.290  0.00  0.00    +0.000 OA
ATOM     25  O   UNL     1       8.265   4.100  17.206  0.00  0.00    +0.000 OA
BRANCH  23  26
ATOM     26  O   UNL     1       6.365   3.450  15.775  0.00  0.00    +0.000 OA
ATOM     27  H   UNL     1       6.469   2.702  16.404  0.00  0.00    +0.000 HD
ENDBRANCH  23  26
ENDBRANCH  22  23
ENDBRANCH   9  22
TORSDOF 5
ENDMDL
MODEL 5
REMARK VINA RESULT:      -6.6     10.748     12.971
REMARK  Name = 
REMARK  5 active torsions:
REMARK  status: ('A' for Active; 'I' for Inactive)
REMARK    1  A    between atoms: C_2  and  C_11
REMARK    2  A    between atoms: N_3  and  C_4
REMARK    3  A    between atoms: N_19  and  O_20
REMARK    4  A    between atoms: O_20  and  S_21
REMARK    5  A    between atoms: S_21  and  O_24
REMARK                            x       y       z     vdW  Elec       q    Type
REMARK                         _______ _______ _______ _____ _____    ______ ____
ROOT
ATOM      1  C   UNL     1       7.519  14.051  22.428  0.00  0.00    +0.000 C 
ATOM      2  C   UNL     1       8.770  13.963  23.361  0.00  0.00    +0.000 C 
ATOM      3  C   UNL     1       8.409  13.410  24.752  0.00  0.00    +0.000 C 
ATOM      4  C   UNL     1       7.489  12.147  24.657  0.00  0.00    +0.000 C 
ATOM      5  C   UNL     1       7.269  11.764  23.196  0.00  0.00    +0.000 C 
ATOM      6  N   UNL     1       6.580  12.960  22.771  0.00  0.00    +0.000 N 
ATOM      7  C   UNL     1       5.669  13.283  23.862  0.00  0.00    +0.000 C 
ATOM      8  O   UNL     1       4.893  14.217  23.909  0.00  0.00    +0.000 OA
ATOM      9  N   UNL     1       6.131  12.539  25.036  0.00  0.00    +0.000 N 
ENDROOT
BRANCH   1  11
ATOM     10  O   UNL     1       7.371  14.458  20.023  0.00  0.00    +0.000 OA
ATOM     11  C   UNL     1       7.979  13.937  20.956  0.00  0.00    +0.000 C 
ATOM     12  N   UNL     1       9.058  13.105  20.753  0.00  0.00    +0.000 N 
ATOM     13  H   UNL     1       9.604  12.870  21.578  0.00  0.00    +0.000 HD
BRANCH  12  14
ATOM     14  C   UNL     1       9.704  12.985  19.442  0.00  0.00    +0.000 C 
ATOM     15  C   UNL     1       9.828  11.514  19.047  0.00  0.00    +0.000 C 
ATOM     16  C   UNL     1      10.499  11.377  17.682  0.00  0.00    +0.000 C 
ATOM     17  N   UNL     1      11.824  11.991  17.674  0.00  0.00    +0.000 NA
ATOM     18  C   UNL     1      11.785  13.406  18.062  0.00  0.00    +0.000 C 
ATOM     19  C   UNL     1      11.078  13.662  19.405  0.00  0.00    +0.000 C 
ATOM     20  F   UNL     1      11.852  13.157  20.416  0.00  0.00    +0.000 F 
ATOM     21  H   UNL     1      12.244  11.896  16.749  0.00  0.00    +0.000 HD
ENDBRANCH  12  14
ENDBRANCH   1  11
BRANCH   9  22
ATOM     22  O   UNL     1       5.421  11.267  25.073  0.00  0.00    +0.000 OA
BRANCH  22  23
ATOM     23  S   UNL     1       4.759  10.801  26.494  0.00  0.00    +0.000 S 
ATOM     24  O   UNL     1       4.533  11.972  27.299  0.00  0.00    +0.000 OA
ATOM     25  O   UNL     1       3.680   9.880  26.192  0.00  0.00    +0.000 OA
BRANCH  23  26
ATOM     26  O   UNL     1       5.908   9.958  27.245  0.00  0.00    +0.000 OA
ATOM     27  H   UNL     1       5.450   9.425  27.932  0.00  0.00    +0.000 HD
ENDBRANCH  23  26
ENDBRANCH  22  23
ENDBRANCH   9  22
TORSDOF 5
ENDMDL
MODEL 6
REMARK VINA RESULT:      -6.6     11.183     13.904
REMARK  Name = 
REMARK  5 active torsions:
REMARK  status: ('A' for Active; 'I' for Inactive)
REMARK    1  A    between atoms: C_2  and  C_11
REMARK    2  A    between atoms: N_3  and  C_4
REMARK    3  A    between atoms: N_19  and  O_20
REMARK    4  A    between atoms: O_20  and  S_21
REMARK    5  A    between atoms: S_21  and  O_24
REMARK                            x       y       z     vdW  Elec       q    Type
REMARK                         _______ _______ _______ _____ _____    ______ ____
ROOT
ATOM      1  C   UNL     1      -1.731  13.901  22.015  0.00  0.00    +0.000 C 
ATOM      2  C   UNL     1      -1.472  14.450  23.455  0.00  0.00    +0.000 C 
ATOM      3  C   UNL     1      -2.772  14.552  24.273  0.00  0.00    +0.000 C 
ATOM      4  C   UNL     1      -3.646  13.260  24.141  0.00  0.00    +0.000 C 
ATOM      5  C   UNL     1      -2.922  12.217  23.293  0.00  0.00    +0.000 C 
ATOM      6  N   UNL     1      -2.872  12.958  22.054  0.00  0.00    +0.000 N 
ATOM      7  C   UNL     1      -4.175  13.599  21.941  0.00  0.00    +0.000 C 
ATOM      8  O   UNL     1      -4.557  14.314  21.036  0.00  0.00    +0.000 OA
ATOM      9  N   UNL     1      -4.784  13.562  23.273  0.00  0.00    +0.000 N 
ENDROOT
BRANCH   1  11
ATOM     10  O   UNL     1       0.648  13.342  22.036  0.00  0.00    +0.000 OA
ATOM     11  C   UNL     1      -0.452  13.196  21.506  0.00  0.00    +0.000 C 
ATOM     12  N   UNL     1      -0.614  12.485  20.338  0.00  0.00    +0.000 N 
ATOM     13  H   UNL     1      -1.571  12.264  20.076  0.00  0.00    +0.000 HD
BRANCH  12  14
ATOM     14  C   UNL     1       0.459  11.650  19.789  0.00  0.00    +0.000 C 
ATOM     15  C   UNL     1       1.220  12.413  18.705  0.00  0.00    +0.000 C 
ATOM     16  C   UNL     1       2.342  11.554  18.125  0.00  0.00    +0.000 C 
ATOM     17  N   UNL     1       1.824  10.309  17.564  0.00  0.00    +0.000 NA
ATOM     18  C   UNL     1       1.065   9.527  18.547  0.00  0.00    +0.000 C 
ATOM     19  C   UNL     1      -0.061  10.320  19.233  0.00  0.00    +0.000 C 
ATOM     20  F   UNL     1      -1.046  10.575  18.316  0.00  0.00    +0.000 F 
ATOM     21  H   UNL     1       2.594   9.750  17.196  0.00  0.00    +0.000 HD
ENDBRANCH  12  14
ENDBRANCH   1  11
BRANCH   9  22
ATOM     22  O   UNL     1      -5.597  12.357  23.364  0.00  0.00    +0.000 OA
BRANCH  22  23
ATOM     23  S   UNL     1      -7.219  12.534  23.482  0.00  0.00    +0.000 S 
ATOM     24  O   UNL     1      -7.688  13.233  22.314  0.00  0.00    +0.000 OA
ATOM     25  O   UNL     1      -7.772  11.247  23.857  0.00  0.00    +0.000 OA
BRANCH  23  26
ATOM     26  O   UNL     1      -7.453  13.533  24.723  0.00  0.00    +0.000 OA
ATOM     27  H   UNL     1      -8.153  13.123  25.276  0.00  0.00    +0.000 HD
ENDBRANCH  23  26
ENDBRANCH  22  23
ENDBRANCH   9  22
TORSDOF 5
ENDMDL
MODEL 7
REMARK VINA RESULT:      -6.5      7.644      9.374
REMARK  Name = 
REMARK  5 active torsions:
REMARK  status: ('A' for Active; 'I' for Inactive)
REMARK    1  A    between atoms: C_2  and  C_11
REMARK    2  A    between atoms: N_3  and  C_4
REMARK    3  A    between atoms: N_19  and  O_20
REMARK    4  A    between atoms: O_20  and  S_21
REMARK    5  A    between atoms: S_21  and  O_24
REMARK                            x       y       z     vdW  Elec       q    Type
REMARK                         _______ _______ _______ _____ _____    ______ ____
ROOT
ATOM      1  C   UNL     1       0.766   9.900  18.310  0.00  0.00    +0.000 C 
ATOM      2  C   UNL     1       1.434  11.275  18.637  0.00  0.00    +0.000 C 
ATOM      3  C   UNL     1       0.420  12.432  18.587  0.00  0.00    +0.000 C 
ATOM      4  C   UNL     1      -0.906  12.079  19.338  0.00  0.00    +0.000 C 
ATOM      5  C   UNL     1      -0.794  10.701  19.987  0.00  0.00    +0.000 C 
ATOM      6  N   UNL     1      -0.637   9.919  18.783  0.00  0.00    +0.000 N 
ATOM      7  C   UNL     1      -1.577  10.495  17.829  0.00  0.00    +0.000 C 
ATOM      8  O   UNL     1      -1.770  10.126  16.687  0.00  0.00    +0.000 OA
ATOM      9  N   UNL     1      -1.944  11.817  18.340  0.00  0.00    +0.000 N 
ENDROOT
BRANCH   1  11
ATOM     10  O   UNL     1       1.602   8.634  20.225  0.00  0.00    +0.000 OA
ATOM     11  C   UNL     1       1.564   8.772  19.004  0.00  0.00    +0.000 C 
ATOM     12  N   UNL     1       2.332   8.005  18.156  0.00  0.00    +0.000 N 
ATOM     13  H   UNL     1       2.102   8.064  17.167  0.00  0.00    +0.000 HD
BRANCH  12  14
ATOM     14  C   UNL     1       3.046   6.815  18.627  0.00  0.00    +0.000 C 
ATOM     15  C   UNL     1       4.232   6.513  17.712  0.00  0.00    +0.000 C 
ATOM     16  C   UNL     1       4.985   5.275  18.193  0.00  0.00    +0.000 C 
ATOM     17  N   UNL     1       4.110   4.106  18.249  0.00  0.00    +0.000 NA
ATOM     18  C   UNL     1       2.936   4.329  19.100  0.00  0.00    +0.000 C 
ATOM     19  C   UNL     1       2.132   5.589  18.732  0.00  0.00    +0.000 C 
ATOM     20  F   UNL     1       1.519   5.385  17.524  0.00  0.00    +0.000 F 
ATOM     21  H   UNL     1       4.634   3.298  18.585  0.00  0.00    +0.000 HD
ENDBRANCH  12  14
ENDBRANCH   1  11
BRANCH   9  22
ATOM     22  O   UNL     1      -3.147  11.671  19.148  0.00  0.00    +0.000 OA
BRANCH  22  23
ATOM     23  S   UNL     1      -4.592  11.707  18.382  0.00  0.00    +0.000 S 
ATOM     24  O   UNL     1      -5.110  10.365  18.320  0.00  0.00    +0.000 OA
ATOM     25  O   UNL     1      -5.369  12.784  18.965  0.00  0.00    +0.000 OA
BRANCH  23  26
ATOM     26  O   UNL     1      -4.262  12.127  16.863  0.00  0.00    +0.000 OA
ATOM     27  H   UNL     1      -4.617  13.036  16.747  0.00  0.00    +0.000 HD
ENDBRANCH  23  26
ENDBRANCH  22  23
ENDBRANCH   9  22
TORSDOF 5
ENDMDL
MODEL 8
REMARK VINA RESULT:      -6.4      5.354      7.745
REMARK  Name = 
REMARK  5 active torsions:
REMARK  status: ('A' for Active; 'I' for Inactive)
REMARK    1  A    between atoms: C_2  and  C_11
REMARK    2  A    between atoms: N_3  and  C_4
REMARK    3  A    between atoms: N_19  and  O_20
REMARK    4  A    between atoms: O_20  and  S_21
REMARK    5  A    between atoms: S_21  and  O_24
REMARK                            x       y       z     vdW  Elec       q    Type
REMARK                         _______ _______ _______ _____ _____    ______ ____
ROOT
ATOM      1  C   UNL     1       7.710   7.027  17.933  0.00  0.00    +0.000 C 
ATOM      2  C   UNL     1       7.693   6.380  16.510  0.00  0.00    +0.000 C 
ATOM      3  C   UNL     1       6.997   5.007  16.513  0.00  0.00    +0.000 C 
ATOM      4  C   UNL     1       5.649   5.038  17.307  0.00  0.00    +0.000 C 
ATOM      5  C   UNL     1       5.356   6.454  17.795  0.00  0.00    +0.000 C 
ATOM      6  N   UNL     1       6.496   6.610  18.670  0.00  0.00    +0.000 N 
ATOM      7  C   UNL     1       6.627   5.330  19.354  0.00  0.00    +0.000 C 
ATOM      8  O   UNL     1       7.461   5.035  20.188  0.00  0.00    +0.000 OA
ATOM      9  N   UNL     1       5.852   4.355  18.584  0.00  0.00    +0.000 N 
ENDROOT
BRANCH   1  11
ATOM     10  O   UNL     1       7.022   9.192  17.032  0.00  0.00    +0.000 OA
ATOM     11  C   UNL     1       7.763   8.566  17.787  0.00  0.00    +0.000 C 
ATOM     12  N   UNL     1       8.788   9.174  18.478  0.00  0.00    +0.000 N 
ATOM     13  H   UNL     1       9.227   8.620  19.209  0.00  0.00    +0.000 HD
BRANCH  12  14
ATOM     14  C   UNL     1       8.905  10.634  18.556  0.00  0.00    +0.000 C 
ATOM     15  C   UNL     1      10.124  11.109  17.766  0.00  0.00    +0.000 C 
ATOM     16  C   UNL     1      10.256  12.628  17.840  0.00  0.00    +0.000 C 
ATOM     17  N   UNL     1      10.369  13.088  19.222  0.00  0.00    +0.000 NA
ATOM     18  C   UNL     1       9.236  12.653  20.048  0.00  0.00    +0.000 C 
ATOM     19  C   UNL     1       8.982  11.136  20.002  0.00  0.00    +0.000 C 
ATOM     20  F   UNL     1      10.008  10.495  20.643  0.00  0.00    +0.000 F 
ATOM     21  H   UNL     1      10.443  14.105  19.242  0.00  0.00    +0.000 HD
ENDBRANCH  12  14
ENDBRANCH   1  11
BRANCH   9  22
ATOM     22  O   UNL     1       4.509   4.301  19.146  0.00  0.00    +0.000 OA
BRANCH  22  23
ATOM     23  S   UNL     1       3.861   2.828  19.441  0.00  0.00    +0.000 S 
ATOM     24  O   UNL     1       2.913   2.953  20.516  0.00  0.00    +0.000 OA
ATOM     25  O   UNL     1       3.476   2.257  18.165  0.00  0.00    +0.000 OA
BRANCH  23  26
ATOM     26  O   UNL     1       5.072   1.935  20.016  0.00  0.00    +0.000 OA
ATOM     27  H   UNL     1       4.707   1.443  20.785  0.00  0.00    +0.000 HD
ENDBRANCH  23  26
ENDBRANCH  22  23
ENDBRANCH   9  22
TORSDOF 5
ENDMDL
MODEL 9
REMARK VINA RESULT:      -6.4     11.329     13.102
REMARK  Name = 
REMARK  5 active torsions:
REMARK  status: ('A' for Active; 'I' for Inactive)
REMARK    1  A    between atoms: C_2  and  C_11
REMARK    2  A    between atoms: N_3  and  C_4
REMARK    3  A    between atoms: N_19  and  O_20
REMARK    4  A    between atoms: O_20  and  S_21
REMARK    5  A    between atoms: S_21  and  O_24
REMARK                            x       y       z     vdW  Elec       q    Type
REMARK                         _______ _______ _______ _____ _____    ______ ____
ROOT
ATOM      1  C   UNL     1       7.932  14.248  23.845  0.00  0.00    +0.000 C 
ATOM      2  C   UNL     1       8.696  14.331  25.205  0.00  0.00    +0.000 C 
ATOM      3  C   UNL     1       7.874  13.737  26.363  0.00  0.00    +0.000 C 
ATOM      4  C   UNL     1       7.236  12.361  25.978  0.00  0.00    +0.000 C 
ATOM      5  C   UNL     1       7.676  11.949  24.576  0.00  0.00    +0.000 C 
ATOM      6  N   UNL     1       7.076  13.040  23.843  0.00  0.00    +0.000 N 
ATOM      7  C   UNL     1       5.769  13.238  24.456  0.00  0.00    +0.000 C 
ATOM      8  O   UNL     1       4.932  14.058  24.134  0.00  0.00    +0.000 OA
ATOM      9  N   UNL     1       5.804  12.565  25.757  0.00  0.00    +0.000 N 
ENDROOT
BRANCH   1  11
ATOM     10  O   UNL     1       9.965  14.903  22.658  0.00  0.00    +0.000 OA
ATOM     11  C   UNL     1       8.960  14.196  22.690  0.00  0.00    +0.000 C 
ATOM     12  N   UNL     1       8.601  13.382  21.639  0.00  0.00    +0.000 N 
ATOM     13  H   UNL     1       7.866  12.705  21.825  0.00  0.00    +0.000 HD
BRANCH  12  14
ATOM     14  C   UNL     1       9.517  13.114  20.525  0.00  0.00    +0.000 C 
ATOM     15  C   UNL     1       8.762  13.162  19.197  0.00  0.00    +0.000 C 
ATOM     16  C   UNL     1       9.706  12.886  18.029  0.00  0.00    +0.000 C 
ATOM     17  N   UNL     1      10.357  11.585  18.165  0.00  0.00    +0.000 NA
ATOM     18  C   UNL     1      11.091  11.459  19.430  0.00  0.00    +0.000 C 
ATOM     19  C   UNL     1      10.241  11.771  20.674  0.00  0.00    +0.000 C 
ATOM     20  F   UNL     1       9.311  10.779  20.835  0.00  0.00    +0.000 F 
ATOM     21  H   UNL     1      10.990  11.432  17.380  0.00  0.00    +0.000 HD
ENDBRANCH  12  14
ENDBRANCH   1  11
BRANCH   9  22
ATOM     22  O   UNL     1       5.303  11.209  25.577  0.00  0.00    +0.000 OA
BRANCH  22  23
ATOM     23  S   UNL     1       4.474  10.529  26.812  0.00  0.00    +0.000 S 
ATOM     24  O   UNL     1       4.213  11.541  27.800  0.00  0.00    +0.000 OA
ATOM     25  O   UNL     1       3.394   9.749  26.236  0.00  0.00    +0.000 OA
BRANCH  23  26
ATOM     26  O   UNL     1       5.497   9.491  27.496  0.00  0.00    +0.000 OA
ATOM     27  H   UNL     1       5.342   8.625  27.058  0.00  0.00    +0.000 HD
ENDBRANCH  23  26
ENDBRANCH  22  23
ENDBRANCH   9  22
TORSDOF 5
ENDMDL
