MODEL 1
REMARK VINA RESULT:      -8.3      0.000      0.000
REMARK  Name = 
REMARK  7 active torsions:
REMARK  status: ('A' for Active; 'I' for Inactive)
REMARK    1  A    between atoms: C_1  and  O_2
REMARK    2  A    between atoms: O_2  and  C_3
REMARK    3  A    between atoms: C_6  and  N_7
REMARK    4  A    between atoms: N_7  and  C_8
REMARK    5  A    between atoms: C_13  and  C_14
REMARK    6  A    between atoms: C_21  and  O_22
REMARK    7  A    between atoms: O_22  and  C_23
REMARK                            x       y       z     vdW  Elec       q    Type
REMARK                         _______ _______ _______ _____ _____    ______ ____
ROOT
ATOM      1  C   UNL     1       4.004   3.062  18.749  0.00  0.00    +0.000 C 
ATOM      2  C   UNL     1       3.958   2.843  20.078  0.00  0.00    +0.000 C 
ATOM      3  C   UNL     1       2.678   2.805  20.824  0.00  0.00    +0.000 C 
ATOM      4  O   UNL     1       2.685   2.538  22.024  0.00  0.00    +0.000 OA
ATOM      5  C   UNL     1       1.388   3.011  20.063  0.00  0.00    +0.000 C 
ATOM      6  C   UNL     1       1.593   3.929  18.848  0.00  0.00    +0.000 C 
ATOM      7  C   UNL     1       2.722   3.333  17.977  0.00  0.00    +0.000 C 
ENDROOT
BRANCH   6   8
ATOM      8  C   UNL     1       1.760   5.391  19.266  0.00  0.00    +0.000 A 
ATOM      9  C   UNL     1       1.367   5.879  20.522  0.00  0.00    +0.000 A 
ATOM     10  C   UNL     1       1.451   7.241  20.827  0.00  0.00    +0.000 A 
ATOM     11  C   UNL     1       1.949   8.139  19.889  0.00  0.00    +0.000 A 
ATOM     12  C   UNL     1       2.392   7.671  18.657  0.00  0.00    +0.000 A 
ATOM     13  C   UNL     1       2.308   6.310  18.351  0.00  0.00    +0.000 A 
ENDBRANCH   6   8
BRANCH   1  14
ATOM     14  N   UNL     1       5.202   3.159  18.047  0.00  0.00    +0.000 N 
ATOM     15  H   UNL     1       5.913   2.480  18.315  0.00  0.00    +0.000 HD
BRANCH  14  19
ATOM     16  C   UNL     1       7.181   6.808  17.145  0.00  0.00    +0.000 A 
ATOM     17  C   UNL     1       7.249   6.263  18.426  0.00  0.00    +0.000 A 
ATOM     18  C   UNL     1       6.575   5.077  18.728  0.00  0.00    +0.000 A 
ATOM     19  C   UNL     1       5.849   4.391  17.744  0.00  0.00    +0.000 A 
ATOM     20  C   UNL     1       5.866   4.894  16.425  0.00  0.00    +0.000 A 
ATOM     21  C   UNL     1       6.474   6.131  16.155  0.00  0.00    +0.000 A 
BRANCH  16  23
ATOM     22  C   UNL     1       8.218   8.695  18.156  0.00  0.00    +0.000 C 
ATOM     23  O   UNL     1       7.866   7.979  16.976  0.00  0.00    +0.000 OA
ENDBRANCH  16  23
BRANCH  20  24
ATOM     24  O   UNL     1       5.265   4.133  15.447  0.00  0.00    +0.000 OA
ATOM     25  C   UNL     1       6.054   3.917  14.276  0.00  0.00    +0.000 C 
ENDBRANCH  20  24
ENDBRANCH  14  19
ENDBRANCH   1  14
TORSDOF 5
ENDMDL
MODEL 2
REMARK VINA RESULT:      -8.3      0.370      1.047
REMARK  Name = 
REMARK  7 active torsions:
REMARK  status: ('A' for Active; 'I' for Inactive)
REMARK    1  A    between atoms: C_1  and  O_2
REMARK    2  A    between atoms: O_2  and  C_3
REMARK    3  A    between atoms: C_6  and  N_7
REMARK    4  A    between atoms: N_7  and  C_8
REMARK    5  A    between atoms: C_13  and  C_14
REMARK    6  A    between atoms: C_21  and  O_22
REMARK    7  A    between atoms: O_22  and  C_23
REMARK                            x       y       z     vdW  Elec       q    Type
REMARK                         _______ _______ _______ _____ _____    ______ ____
ROOT
ATOM      1  C   UNL     1       4.182   3.000  19.036  0.00  0.00    +0.000 C 
ATOM      2  C   UNL     1       3.896   2.810  20.338  0.00  0.00    +0.000 C 
ATOM      3  C   UNL     1       2.500   2.752  20.836  0.00  0.00    +0.000 C 
ATOM      4  O   UNL     1       2.290   2.512  22.023  0.00  0.00    +0.000 OA
ATOM      5  C   UNL     1       1.369   2.905  19.844  0.00  0.00    +0.000 C 
ATOM      6  C   UNL     1       1.775   3.802  18.663  0.00  0.00    +0.000 C 
ATOM      7  C   UNL     1       3.060   3.218  18.032  0.00  0.00    +0.000 C 
ENDROOT
BRANCH   6   8
ATOM      8  C   UNL     1       1.828   5.277  19.065  0.00  0.00    +0.000 A 
ATOM      9  C   UNL     1       2.346   6.280  18.232  0.00  0.00    +0.000 A 
ATOM     10  C   UNL     1       2.463   7.600  18.677  0.00  0.00    +0.000 A 
ATOM     11  C   UNL     1       2.045   7.947  19.957  0.00  0.00    +0.000 A 
ATOM     12  C   UNL     1       1.481   6.980  20.781  0.00  0.00    +0.000 A 
ATOM     13  C   UNL     1       1.365   5.660  20.338  0.00  0.00    +0.000 A 
ENDBRANCH   6   8
BRANCH   1  14
ATOM     14  N   UNL     1       5.487   3.115  18.565  0.00  0.00    +0.000 N 
ATOM     15  H   UNL     1       6.186   2.612  19.110  0.00  0.00    +0.000 HD
BRANCH  14  19
ATOM     16  C   UNL     1       7.258   6.735  17.221  0.00  0.00    +0.000 A 
ATOM     17  C   UNL     1       7.154   6.460  18.584  0.00  0.00    +0.000 A 
ATOM     18  C   UNL     1       6.547   5.281  19.024  0.00  0.00    +0.000 A 
ATOM     19  C   UNL     1       6.064   4.334  18.109  0.00  0.00    +0.000 A 
ATOM     20  C   UNL     1       6.262   4.571  16.733  0.00  0.00    +0.000 A 
ATOM     21  C   UNL     1       6.794   5.798  16.302  0.00  0.00    +0.000 A 
BRANCH  16  23
ATOM     22  C   UNL     1       8.109   8.816  17.996  0.00  0.00    +0.000 C 
ATOM     23  O   UNL     1       7.855   7.926  16.915  0.00  0.00    +0.000 OA
ENDBRANCH  16  23
BRANCH  20  24
ATOM     24  O   UNL     1       5.908   3.568  15.858  0.00  0.00    +0.000 OA
ATOM     25  C   UNL     1       6.068   3.885  14.475  0.00  0.00    +0.000 C 
ENDBRANCH  20  24
ENDBRANCH  14  19
ENDBRANCH   1  14
TORSDOF 5
ENDMDL
MODEL 3
REMARK VINA RESULT:      -7.5      2.835      5.814
REMARK  Name = 
REMARK  7 active torsions:
REMARK  status: ('A' for Active; 'I' for Inactive)
REMARK    1  A    between atoms: C_1  and  O_2
REMARK    2  A    between atoms: O_2  and  C_3
REMARK    3  A    between atoms: C_6  and  N_7
REMARK    4  A    between atoms: N_7  and  C_8
REMARK    5  A    between atoms: C_13  and  C_14
REMARK    6  A    between atoms: C_21  and  O_22
REMARK    7  A    between atoms: O_22  and  C_23
REMARK                            x       y       z     vdW  Elec       q    Type
REMARK                         _______ _______ _______ _____ _____    ______ ____
ROOT
ATOM      1  C   UNL     1       3.929   6.360  18.051  0.00  0.00    +0.000 C 
ATOM      2  C   UNL     1       4.982   6.263  18.886  0.00  0.00    +0.000 C 
ATOM      3  C   UNL     1       5.728   4.995  19.068  0.00  0.00    +0.000 C 
ATOM      4  O   UNL     1       6.721   4.974  19.792  0.00  0.00    +0.000 OA
ATOM      5  C   UNL     1       5.291   3.778  18.284  0.00  0.00    +0.000 C 
ATOM      6  C   UNL     1       3.779   3.800  18.008  0.00  0.00    +0.000 C 
ATOM      7  C   UNL     1       3.436   5.132  17.301  0.00  0.00    +0.000 C 
ENDROOT
BRANCH   6   8
ATOM      8  C   UNL     1       2.970   3.473  19.264  0.00  0.00    +0.000 A 
ATOM      9  C   UNL     1       3.523   2.844  20.391  0.00  0.00    +0.000 A 
ATOM     10  C   UNL     1       2.726   2.479  21.479  0.00  0.00    +0.000 A 
ATOM     11  C   UNL     1       1.362   2.752  21.471  0.00  0.00    +0.000 A 
ATOM     12  C   UNL     1       0.801   3.419  20.388  0.00  0.00    +0.000 A 
ATOM     13  C   UNL     1       1.598   3.785  19.299  0.00  0.00    +0.000 A 
ENDBRANCH   6   8
BRANCH   1  14
ATOM     14  N   UNL     1       3.186   7.529  17.915  0.00  0.00    +0.000 N 
ATOM     15  H   UNL     1       3.708   8.332  17.567  0.00  0.00    +0.000 HD
BRANCH  14  19
ATOM     16  C   UNL     1       0.416   8.913  20.823  0.00  0.00    +0.000 A 
ATOM     17  C   UNL     1       1.126   7.731  21.027  0.00  0.00    +0.000 A 
ATOM     18  C   UNL     1       2.016   7.263  20.057  0.00  0.00    +0.000 A 
ATOM     19  C   UNL     1       2.243   7.988  18.878  0.00  0.00    +0.000 A 
ATOM     20  C   UNL     1       1.598   9.233  18.723  0.00  0.00    +0.000 A 
ATOM     21  C   UNL     1       0.641   9.649  19.663  0.00  0.00    +0.000 A 
BRANCH  16  23
ATOM     22  C   UNL     1       0.150   9.589  23.088  0.00  0.00    +0.000 C 
ATOM     23  O   UNL     1      -0.437   9.258  21.834  0.00  0.00    +0.000 OA
ENDBRANCH  16  23
BRANCH  20  24
ATOM     24  O   UNL     1       1.940   9.994  17.626  0.00  0.00    +0.000 OA
ATOM     25  C   UNL     1       2.329  11.336  17.917  0.00  0.00    +0.000 C 
ENDBRANCH  20  24
ENDBRANCH  14  19
ENDBRANCH   1  14
TORSDOF 5
ENDMDL
MODEL 4
REMARK VINA RESULT:      -7.2      2.836      5.844
REMARK  Name = 
REMARK  7 active torsions:
REMARK  status: ('A' for Active; 'I' for Inactive)
REMARK    1  A    between atoms: C_1  and  O_2
REMARK    2  A    between atoms: O_2  and  C_3
REMARK    3  A    between atoms: C_6  and  N_7
REMARK    4  A    between atoms: N_7  and  C_8
REMARK    5  A    between atoms: C_13  and  C_14
REMARK    6  A    between atoms: C_21  and  O_22
REMARK    7  A    between atoms: O_22  and  C_23
REMARK                            x       y       z     vdW  Elec       q    Type
REMARK                         _______ _______ _______ _____ _____    ______ ____
ROOT
ATOM      1  C   UNL     1       3.784   6.261  18.007  0.00  0.00    +0.000 C 
ATOM      2  C   UNL     1       4.877   6.083  18.775  0.00  0.00    +0.000 C 
ATOM      3  C   UNL     1       5.574   4.777  18.860  0.00  0.00    +0.000 C 
ATOM      4  O   UNL     1       6.604   4.682  19.523  0.00  0.00    +0.000 OA
ATOM      5  C   UNL     1       5.040   3.616  18.051  0.00  0.00    +0.000 C 
ATOM      6  C   UNL     1       3.517   3.714  17.863  0.00  0.00    +0.000 C 
ATOM      7  C   UNL     1       3.196   5.090  17.235  0.00  0.00    +0.000 C 
ENDROOT
BRANCH   6   8
ATOM      8  C   UNL     1       2.766   3.365  19.149  0.00  0.00    +0.000 A 
ATOM      9  C   UNL     1       1.407   3.659  19.347  0.00  0.00    +0.000 A 
ATOM     10  C   UNL     1       0.785   3.408  20.573  0.00  0.00    +0.000 A 
ATOM     11  C   UNL     1       1.503   2.840  21.620  0.00  0.00    +0.000 A 
ATOM     12  C   UNL     1       2.836   2.493  21.431  0.00  0.00    +0.000 A 
ATOM     13  C   UNL     1       3.460   2.745  20.205  0.00  0.00    +0.000 A 
ENDBRANCH   6   8
BRANCH   1  14
ATOM     14  N   UNL     1       3.086   7.465  17.965  0.00  0.00    +0.000 N 
ATOM     15  H   UNL     1       3.628   8.263  17.638  0.00  0.00    +0.000 HD
BRANCH  14  19
ATOM     16  C   UNL     1       0.499   8.803  21.057  0.00  0.00    +0.000 A 
ATOM     17  C   UNL     1       1.175   7.589  21.174  0.00  0.00    +0.000 A 
ATOM     18  C   UNL     1       2.004   7.138  20.144  0.00  0.00    +0.000 A 
ATOM     19  C   UNL     1       2.204   7.910  18.990  0.00  0.00    +0.000 A 
ATOM     20  C   UNL     1       1.597   9.181  18.921  0.00  0.00    +0.000 A 
ATOM     21  C   UNL     1       0.698   9.584  19.922  0.00  0.00    +0.000 A 
BRANCH  16  23
ATOM     22  C   UNL     1      -0.387  10.507  22.460  0.00  0.00    +0.000 C 
ATOM     23  O   UNL     1      -0.296   9.128  22.120  0.00  0.00    +0.000 OA
ENDBRANCH  16  23
BRANCH  20  24
ATOM     24  O   UNL     1       1.917   9.981  17.846  0.00  0.00    +0.000 OA
ATOM     25  C   UNL     1       2.135  11.357  18.157  0.00  0.00    +0.000 C 
ENDBRANCH  20  24
ENDBRANCH  14  19
ENDBRANCH   1  14
TORSDOF 5
ENDMDL
MODEL 5
REMARK VINA RESULT:      -7.2      1.328      2.083
REMARK  Name = 
REMARK  7 active torsions:
REMARK  status: ('A' for Active; 'I' for Inactive)
REMARK    1  A    between atoms: C_1  and  O_2
REMARK    2  A    between atoms: O_2  and  C_3
REMARK    3  A    between atoms: C_6  and  N_7
REMARK    4  A    between atoms: N_7  and  C_8
REMARK    5  A    between atoms: C_13  and  C_14
REMARK    6  A    between atoms: C_21  and  O_22
REMARK    7  A    between atoms: O_22  and  C_23
REMARK                            x       y       z     vdW  Elec       q    Type
REMARK                         _______ _______ _______ _____ _____    ______ ____
ROOT
ATOM      1  C   UNL     1       4.408   3.357  18.873  0.00  0.00    +0.000 C 
ATOM      2  C   UNL     1       4.215   3.078  20.176  0.00  0.00    +0.000 C 
ATOM      3  C   UNL     1       2.858   2.920  20.754  0.00  0.00    +0.000 C 
ATOM      4  O   UNL     1       2.736   2.602  21.934  0.00  0.00    +0.000 OA
ATOM      5  C   UNL     1       1.660   3.071  19.843  0.00  0.00    +0.000 C 
ATOM      6  C   UNL     1       1.946   4.054  18.696  0.00  0.00    +0.000 C 
ATOM      7  C   UNL     1       3.215   3.574  17.954  0.00  0.00    +0.000 C 
ENDROOT
BRANCH   6   8
ATOM      8  C   UNL     1       1.954   5.504  19.183  0.00  0.00    +0.000 A 
ATOM      9  C   UNL     1       1.512   5.887  20.459  0.00  0.00    +0.000 A 
ATOM     10  C   UNL     1       1.448   7.234  20.828  0.00  0.00    +0.000 A 
ATOM     11  C   UNL     1       1.844   8.223  19.934  0.00  0.00    +0.000 A 
ATOM     12  C   UNL     1       2.333   7.865  18.684  0.00  0.00    +0.000 A 
ATOM     13  C   UNL     1       2.397   6.519  18.314  0.00  0.00    +0.000 A 
ENDBRANCH   6   8
BRANCH   1  14
ATOM     14  N   UNL     1       5.674   3.565  18.330  0.00  0.00    +0.000 N 
ATOM     15  H   UNL     1       6.413   2.995  18.737  0.00  0.00    +0.000 HD
BRANCH  14  19
ATOM     16  C   UNL     1       7.222   7.423  17.456  0.00  0.00    +0.000 A 
ATOM     17  C   UNL     1       6.274   6.834  16.620  0.00  0.00    +0.000 A 
ATOM     18  C   UNL     1       5.787   5.554  16.895  0.00  0.00    +0.000 A 
ATOM     19  C   UNL     1       6.209   4.851  18.033  0.00  0.00    +0.000 A 
ATOM     20  C   UNL     1       7.091   5.492  18.927  0.00  0.00    +0.000 A 
ATOM     21  C   UNL     1       7.641   6.742  18.596  0.00  0.00    +0.000 A 
BRANCH  16  23
ATOM     22  C   UNL     1       8.343   9.438  18.042  0.00  0.00    +0.000 C 
ATOM     23  O   UNL     1       7.636   8.669  17.074  0.00  0.00    +0.000 OA
ENDBRANCH  16  23
BRANCH  20  24
ATOM     24  O   UNL     1       7.384   4.843  20.106  0.00  0.00    +0.000 OA
ATOM     25  C   UNL     1       8.664   5.143  20.663  0.00  0.00    +0.000 C 
ENDBRANCH  20  24
ENDBRANCH  14  19
ENDBRANCH   1  14
TORSDOF 5
ENDMDL
MODEL 6
REMARK VINA RESULT:      -7.1      1.430      2.289
REMARK  Name = 
REMARK  7 active torsions:
REMARK  status: ('A' for Active; 'I' for Inactive)
REMARK    1  A    between atoms: C_1  and  O_2
REMARK    2  A    between atoms: O_2  and  C_3
REMARK    3  A    between atoms: C_6  and  N_7
REMARK    4  A    between atoms: N_7  and  C_8
REMARK    5  A    between atoms: C_13  and  C_14
REMARK    6  A    between atoms: C_21  and  O_22
REMARK    7  A    between atoms: O_22  and  C_23
REMARK                            x       y       z     vdW  Elec       q    Type
REMARK                         _______ _______ _______ _____ _____    ______ ____
ROOT
ATOM      1  C   UNL     1       4.659   3.452  18.279  0.00  0.00    +0.000 C 
ATOM      2  C   UNL     1       4.631   3.102  19.580  0.00  0.00    +0.000 C 
ATOM      3  C   UNL     1       3.367   2.758  20.274  0.00  0.00    +0.000 C 
ATOM      4  O   UNL     1       3.402   2.383  21.444  0.00  0.00    +0.000 OA
ATOM      5  C   UNL     1       2.075   2.795  19.490  0.00  0.00    +0.000 C 
ATOM      6  C   UNL     1       2.127   3.848  18.371  0.00  0.00    +0.000 C 
ATOM      7  C   UNL     1       3.363   3.555  17.489  0.00  0.00    +0.000 C 
ENDROOT
BRANCH   6   8
ATOM      8  C   UNL     1       2.012   5.269  18.925  0.00  0.00    +0.000 A 
ATOM      9  C   UNL     1       2.376   6.409  18.192  0.00  0.00    +0.000 A 
ATOM     10  C   UNL     1       2.344   7.681  18.771  0.00  0.00    +0.000 A 
ATOM     11  C   UNL     1       1.929   7.840  20.089  0.00  0.00    +0.000 A 
ATOM     12  C   UNL     1       1.516   6.731  20.818  0.00  0.00    +0.000 A 
ATOM     13  C   UNL     1       1.548   5.459  20.240  0.00  0.00    +0.000 A 
ENDBRANCH   6   8
BRANCH   1  14
ATOM     14  N   UNL     1       5.830   3.833  17.630  0.00  0.00    +0.000 N 
ATOM     15  H   UNL     1       6.629   3.221  17.791  0.00  0.00    +0.000 HD
BRANCH  14  19
ATOM     16  C   UNL     1       7.188   7.855  17.459  0.00  0.00    +0.000 A 
ATOM     17  C   UNL     1       6.035   7.466  16.778  0.00  0.00    +0.000 A 
ATOM     18  C   UNL     1       5.605   6.138  16.813  0.00  0.00    +0.000 A 
ATOM     19  C   UNL     1       6.299   5.176  17.562  0.00  0.00    +0.000 A 
ATOM     20  C   UNL     1       7.407   5.595  18.328  0.00  0.00    +0.000 A 
ATOM     21  C   UNL     1       7.880   6.913  18.215  0.00  0.00    +0.000 A 
BRANCH  16  23
ATOM     22  C   UNL     1       8.522   9.675  18.210  0.00  0.00    +0.000 C 
ATOM     23  O   UNL     1       7.517   9.176  17.334  0.00  0.00    +0.000 OA
ENDBRANCH  16  23
BRANCH  20  24
ATOM     24  O   UNL     1       7.989   4.667  19.164  0.00  0.00    +0.000 OA
ATOM     25  C   UNL     1       8.491   5.190  20.394  0.00  0.00    +0.000 C 
ENDBRANCH  20  24
ENDBRANCH  14  19
ENDBRANCH   1  14
TORSDOF 5
ENDMDL
MODEL 7
REMARK VINA RESULT:      -7.0      1.328      2.650
REMARK  Name = 
REMARK  7 active torsions:
REMARK  status: ('A' for Active; 'I' for Inactive)
REMARK    1  A    between atoms: C_1  and  O_2
REMARK    2  A    between atoms: O_2  and  C_3
REMARK    3  A    between atoms: C_6  and  N_7
REMARK    4  A    between atoms: N_7  and  C_8
REMARK    5  A    between atoms: C_13  and  C_14
REMARK    6  A    between atoms: C_21  and  O_22
REMARK    7  A    between atoms: O_22  and  C_23
REMARK                            x       y       z     vdW  Elec       q    Type
REMARK                         _______ _______ _______ _____ _____    ______ ____
ROOT
ATOM      1  C   UNL     1       3.839   2.942  19.435  0.00  0.00    +0.000 C 
ATOM      2  C   UNL     1       3.448   2.835  20.720  0.00  0.00    +0.000 C 
ATOM      3  C   UNL     1       2.020   2.893  21.114  0.00  0.00    +0.000 C 
ATOM      4  O   UNL     1       1.710   2.725  22.291  0.00  0.00    +0.000 OA
ATOM      5  C   UNL     1       0.976   3.069  20.035  0.00  0.00    +0.000 C 
ATOM      6  C   UNL     1       1.524   3.879  18.849  0.00  0.00    +0.000 C 
ATOM      7  C   UNL     1       2.809   3.183  18.342  0.00  0.00    +0.000 C 
ENDROOT
BRANCH   6   8
ATOM      8  C   UNL     1       1.649   5.365  19.188  0.00  0.00    +0.000 A 
ATOM      9  C   UNL     1       2.209   6.308  18.311  0.00  0.00    +0.000 A 
ATOM     10  C   UNL     1       2.390   7.638  18.699  0.00  0.00    +0.000 A 
ATOM     11  C   UNL     1       1.997   8.057  19.966  0.00  0.00    +0.000 A 
ATOM     12  C   UNL     1       1.394   7.154  20.833  0.00  0.00    +0.000 A 
ATOM     13  C   UNL     1       1.213   5.823  20.445  0.00  0.00    +0.000 A 
ENDBRANCH   6   8
BRANCH   1  14
ATOM     14  N   UNL     1       5.179   2.949  19.057  0.00  0.00    +0.000 N 
ATOM     15  H   UNL     1       5.840   3.061  19.824  0.00  0.00    +0.000 HD
BRANCH  14  19
ATOM     16  C   UNL     1       6.630   5.056  15.666  0.00  0.00    +0.000 A 
ATOM     17  C   UNL     1       5.748   3.987  15.513  0.00  0.00    +0.000 A 
ATOM     18  C   UNL     1       5.293   3.279  16.627  0.00  0.00    +0.000 A 
ATOM     19  C   UNL     1       5.682   3.647  17.923  0.00  0.00    +0.000 A 
ATOM     20  C   UNL     1       6.494   4.790  18.079  0.00  0.00    +0.000 A 
ATOM     21  C   UNL     1       7.014   5.441  16.948  0.00  0.00    +0.000 A 
BRANCH  16  23
ATOM     22  C   UNL     1       7.237   4.812  13.380  0.00  0.00    +0.000 C 
ATOM     23  O   UNL     1       7.017   5.659  14.502  0.00  0.00    +0.000 OA
ENDBRANCH  16  23
BRANCH  20  24
ATOM     24  O   UNL     1       6.750   5.218  19.364  0.00  0.00    +0.000 OA
ATOM     25  C   UNL     1       8.037   5.802  19.563  0.00  0.00    +0.000 C 
ENDBRANCH  20  24
ENDBRANCH  14  19
ENDBRANCH   1  14
TORSDOF 5
ENDMDL
MODEL 8
REMARK VINA RESULT:      -7.0      2.725      5.651
REMARK  Name = 
REMARK  7 active torsions:
REMARK  status: ('A' for Active; 'I' for Inactive)
REMARK    1  A    between atoms: C_1  and  O_2
REMARK    2  A    between atoms: O_2  and  C_3
REMARK    3  A    between atoms: C_6  and  N_7
REMARK    4  A    between atoms: N_7  and  C_8
REMARK    5  A    between atoms: C_13  and  C_14
REMARK    6  A    between atoms: C_21  and  O_22
REMARK    7  A    between atoms: O_22  and  C_23
REMARK                            x       y       z     vdW  Elec       q    Type
REMARK                         _______ _______ _______ _____ _____    ______ ____
ROOT
ATOM      1  C   UNL     1       2.551   4.847  19.929  0.00  0.00    +0.000 C 
ATOM      2  C   UNL     1       1.803   4.137  19.062  0.00  0.00    +0.000 C 
ATOM      3  C   UNL     1       2.328   2.935  18.370  0.00  0.00    +0.000 C 
ATOM      4  O   UNL     1       1.586   2.285  17.639  0.00  0.00    +0.000 OA
ATOM      5  C   UNL     1       3.746   2.495  18.658  0.00  0.00    +0.000 C 
ATOM      6  C   UNL     1       4.646   3.691  19.006  0.00  0.00    +0.000 C 
ATOM      7  C   UNL     1       3.999   4.457  20.183  0.00  0.00    +0.000 C 
ENDROOT
BRANCH   6   8
ATOM      8  C   UNL     1       4.990   4.520  17.767  0.00  0.00    +0.000 A 
ATOM      9  C   UNL     1       5.280   5.893  17.820  0.00  0.00    +0.000 A 
ATOM     10  C   UNL     1       5.495   6.631  16.652  0.00  0.00    +0.000 A 
ATOM     11  C   UNL     1       5.444   6.007  15.410  0.00  0.00    +0.000 A 
ATOM     12  C   UNL     1       5.209   4.639  15.337  0.00  0.00    +0.000 A 
ATOM     13  C   UNL     1       4.993   3.900  16.504  0.00  0.00    +0.000 A 
ENDBRANCH   6   8
BRANCH   1  14
ATOM     14  N   UNL     1       2.089   6.010  20.539  0.00  0.00    +0.000 N 
ATOM     15  H   UNL     1       1.261   5.889  21.121  0.00  0.00    +0.000 HD
BRANCH  14  19
ATOM     16  C   UNL     1       1.776   9.750  18.550  0.00  0.00    +0.000 A 
ATOM     17  C   UNL     1       2.327   8.646  17.901  0.00  0.00    +0.000 A 
ATOM     18  C   UNL     1       2.454   7.424  18.566  0.00  0.00    +0.000 A 
ATOM     19  C   UNL     1       1.998   7.270  19.883  0.00  0.00    +0.000 A 
ATOM     20  C   UNL     1       1.351   8.362  20.500  0.00  0.00    +0.000 A 
ATOM     21  C   UNL     1       1.308   9.608  19.853  0.00  0.00    +0.000 A 
BRANCH  16  23
ATOM     22  C   UNL     1       1.800  12.128  18.506  0.00  0.00    +0.000 C 
ATOM     23  O   UNL     1       1.721  10.893  17.802  0.00  0.00    +0.000 OA
ENDBRANCH  16  23
BRANCH  20  24
ATOM     24  O   UNL     1       0.786   8.149  21.738  0.00  0.00    +0.000 OA
ATOM     25  C   UNL     1      -0.204   9.101  22.125  0.00  0.00    +0.000 C 
ENDBRANCH  20  24
ENDBRANCH  14  19
ENDBRANCH   1  14
TORSDOF 5
ENDMDL
MODEL 9
REMARK VINA RESULT:      -7.0      3.156      6.324
REMARK  Name = 
REMARK  7 active torsions:
REMARK  status: ('A' for Active; 'I' for Inactive)
REMARK    1  A    between atoms: C_1  and  O_2
REMARK    2  A    between atoms: O_2  and  C_3
REMARK    3  A    between atoms: C_6  and  N_7
REMARK    4  A    between atoms: N_7  and  C_8
REMARK    5  A    between atoms: C_13  and  C_14
REMARK    6  A    between atoms: C_21  and  O_22
REMARK    7  A    between atoms: O_22  and  C_23
REMARK                            x       y       z     vdW  Elec       q    Type
REMARK                         _______ _______ _______ _____ _____    ______ ____
ROOT
ATOM      1  C   UNL     1       2.822   5.726  19.712  0.00  0.00    +0.000 C 
ATOM      2  C   UNL     1       1.827   5.204  18.969  0.00  0.00    +0.000 C 
ATOM      3  C   UNL     1       1.939   3.870  18.330  0.00  0.00    +0.000 C 
ATOM      4  O   UNL     1       0.979   3.411  17.716  0.00  0.00    +0.000 OA
ATOM      5  C   UNL     1       3.209   3.074  18.531  0.00  0.00    +0.000 C 
ATOM      6  C   UNL     1       4.427   3.995  18.710  0.00  0.00    +0.000 C 
ATOM      7  C   UNL     1       4.131   4.968  19.874  0.00  0.00    +0.000 C 
ENDROOT
BRANCH   6   8
ATOM      8  C   UNL     1       4.852   4.633  17.386  0.00  0.00    +0.000 A 
ATOM      9  C   UNL     1       4.888   6.022  17.182  0.00  0.00    +0.000 A 
ATOM     10  C   UNL     1       5.192   6.560  15.927  0.00  0.00    +0.000 A 
ATOM     11  C   UNL     1       5.484   5.720  14.858  0.00  0.00    +0.000 A 
ATOM     12  C   UNL     1       5.505   4.344  15.050  0.00  0.00    +0.000 A 
ATOM     13  C   UNL     1       5.201   3.805  16.304  0.00  0.00    +0.000 A 
ENDBRANCH   6   8
BRANCH   1  14
ATOM     14  N   UNL     1       2.753   7.000  20.268  0.00  0.00    +0.000 N 
ATOM     15  H   UNL     1       2.693   7.022  21.285  0.00  0.00    +0.000 HD
BRANCH  14  19
ATOM     16  C   UNL     1       0.312  10.099  18.691  0.00  0.00    +0.000 A 
ATOM     17  C   UNL     1       1.142   9.355  17.854  0.00  0.00    +0.000 A 
ATOM     18  C   UNL     1       1.964   8.355  18.378  0.00  0.00    +0.000 A 
ATOM     19  C   UNL     1       1.946   8.052  19.748  0.00  0.00    +0.000 A 
ATOM     20  C   UNL     1       1.032   8.739  20.574  0.00  0.00    +0.000 A 
ATOM     21  C   UNL     1       0.275   9.801  20.051  0.00  0.00    +0.000 A 
BRANCH  16  23
ATOM     22  C   UNL     1      -1.748  10.699  17.665  0.00  0.00    +0.000 C 
ATOM     23  O   UNL     1      -0.431  11.061  18.065  0.00  0.00    +0.000 OA
ENDBRANCH  16  23
BRANCH  20  24
ATOM     24  O   UNL     1       0.930   8.331  21.886  0.00  0.00    +0.000 OA
ATOM     25  C   UNL     1       0.388   9.302  22.782  0.00  0.00    +0.000 C 
ENDBRANCH  20  24
ENDBRANCH  14  19
ENDBRANCH   1  14
TORSDOF 5
ENDMDL
