MODEL 1
REMARK VINA RESULT:      -8.4      0.000      0.000
REMARK  Name = 
REMARK  8 active torsions:
REMARK  status: ('A' for Active; 'I' for Inactive)
REMARK    1  A    between atoms: C_2  and  C_3
REMARK    2  A    between atoms: N_5  and  C_6
REMARK    3  A    between atoms: C_9  and  C_10
REMARK    4  A    between atoms: N_15  and  C_16
REMARK    5  A    between atoms: N_19  and  C_20
REMARK    6  A    between atoms: C_20  and  C_21
REMARK    7  A    between atoms: C_21  and  O_22
REMARK    8  A    between atoms: O_22  and  C_23
REMARK                            x       y       z     vdW  Elec       q    Type
REMARK                         _______ _______ _______ _____ _____    ______ ____
ROOT
ATOM      1  C   UNL     1       2.832   5.805  19.578  0.00  0.00    +0.000 A 
ATOM      2  C   UNL     1       2.139   4.869  20.320  0.00  0.00    +0.000 A 
ATOM      3  C   UNL     1       2.786   3.682  20.556  0.00  0.00    +0.000 A 
ATOM      4  N   UNL     1       4.018   3.404  20.100  0.00  0.00    +0.000 NA
ATOM      5  C   UNL     1       4.608   4.347  19.347  0.00  0.00    +0.000 A 
ATOM      6  N   UNL     1       5.839   3.996  18.785  0.00  0.00    +0.000 N 
ATOM      7  N   UNL     1       4.051   5.534  19.077  0.00  0.00    +0.000 NA
ATOM      8  H   UNL     1       6.045   3.050  19.079  0.00  0.00    +0.000 HD
ENDROOT
BRANCH   1  12
ATOM      9  C   UNL     1       1.274   9.749  18.735  0.00  0.00    +0.000 A 
ATOM     10  C   UNL     1       1.967   9.020  17.772  0.00  0.00    +0.000 A 
ATOM     11  C   UNL     1       2.473   7.750  18.051  0.00  0.00    +0.000 A 
ATOM     12  C   UNL     1       2.317   7.162  19.312  0.00  0.00    +0.000 A 
ATOM     13  C   UNL     1       1.624   7.908  20.283  0.00  0.00    +0.000 A 
ATOM     14  C   UNL     1       1.117   9.190  20.004  0.00  0.00    +0.000 A 
BRANCH   9  17
ATOM     15  C   UNL     1      -0.599  11.365  18.560  0.00  0.00    +0.000 C 
ATOM     16  O   UNL     1      -1.511  10.643  18.957  0.00  0.00    +0.000 OA
ATOM     17  N   UNL     1       0.739  11.034  18.479  0.00  0.00    +0.000 N 
ATOM     18  H   UNL     1       1.405  11.768  18.281  0.00  0.00    +0.000 HD
BRANCH  15  20
ATOM     19  C   UNL     1      -0.274  13.770  18.752  0.00  0.00    +0.000 C 
ATOM     20  C   UNL     1      -0.890  12.757  18.125  0.00  0.00    +0.000 C 
ENDBRANCH  15  20
ENDBRANCH   9  17
ENDBRANCH   1  12
BRANCH   6  21
ATOM     21  C   UNL     1       6.407   4.525  17.681  0.00  0.00    +0.000 A 
ATOM     22  C   UNL     1       7.186   5.689  17.534  0.00  0.00    +0.000 A 
ATOM     23  N   UNL     1       7.453   5.962  16.253  0.00  0.00    +0.000 NA
ATOM     24  N   UNL     1       6.844   4.963  15.588  0.00  0.00    +0.000 N 
ATOM     25  C   UNL     1       6.277   4.026  16.409  0.00  0.00    +0.000 A 
BRANCH  24  26
ATOM     26  C   UNL     1       6.773   5.011  14.142  0.00  0.00    +0.000 C 
BRANCH  26  27
ATOM     27  C   UNL     1       6.034   3.809  13.570  0.00  0.00    +0.000 C 
BRANCH  27  28
ATOM     28  O   UNL     1       6.585   3.475  12.294  0.00  0.00    +0.000 OA
ATOM     29  C   UNL     1       5.842   2.437  11.667  0.00  0.00    +0.000 C 
ENDBRANCH  27  28
ENDBRANCH  26  27
ENDBRANCH  24  26
ENDBRANCH   6  21
TORSDOF 7
ENDMDL
MODEL 2
REMARK VINA RESULT:      -8.2      1.002      1.013
REMARK  Name = 
REMARK  8 active torsions:
REMARK  status: ('A' for Active; 'I' for Inactive)
REMARK    1  A    between atoms: C_2  and  C_3
REMARK    2  A    between atoms: N_5  and  C_6
REMARK    3  A    between atoms: C_9  and  C_10
REMARK    4  A    between atoms: N_15  and  C_16
REMARK    5  A    between atoms: N_19  and  C_20
REMARK    6  A    between atoms: C_20  and  C_21
REMARK    7  A    between atoms: C_21  and  O_22
REMARK    8  A    between atoms: O_22  and  C_23
REMARK                            x       y       z     vdW  Elec       q    Type
REMARK                         _______ _______ _______ _____ _____    ______ ____
ROOT
ATOM      1  C   UNL     1       2.843   5.877  19.607  0.00  0.00    +0.000 A 
ATOM      2  C   UNL     1       2.165   4.942  20.364  0.00  0.00    +0.000 A 
ATOM      3  C   UNL     1       2.828   3.767  20.612  0.00  0.00    +0.000 A 
ATOM      4  N   UNL     1       4.062   3.499  20.155  0.00  0.00    +0.000 NA
ATOM      5  C   UNL     1       4.637   4.440  19.388  0.00  0.00    +0.000 A 
ATOM      6  N   UNL     1       5.871   4.098  18.825  0.00  0.00    +0.000 N 
ATOM      7  N   UNL     1       4.064   5.616  19.105  0.00  0.00    +0.000 NA
ATOM      8  H   UNL     1       6.090   3.159  19.131  0.00  0.00    +0.000 HD
ENDROOT
BRANCH   1  12
ATOM      9  C   UNL     1       1.234   9.791  18.718  0.00  0.00    +0.000 A 
ATOM     10  C   UNL     1       1.977   9.080  17.779  0.00  0.00    +0.000 A 
ATOM     11  C   UNL     1       2.499   7.820  18.073  0.00  0.00    +0.000 A 
ATOM     12  C   UNL     1       2.310   7.224  19.326  0.00  0.00    +0.000 A 
ATOM     13  C   UNL     1       1.566   7.953  20.273  0.00  0.00    +0.000 A 
ATOM     14  C   UNL     1       1.042   9.224  19.979  0.00  0.00    +0.000 A 
BRANCH   9  17
ATOM     15  C   UNL     1       1.323  12.268  18.661  0.00  0.00    +0.000 C 
ATOM     16  O   UNL     1       2.488  12.426  19.021  0.00  0.00    +0.000 OA
ATOM     17  N   UNL     1       0.682  11.065  18.445  0.00  0.00    +0.000 N 
ATOM     18  H   UNL     1      -0.228  11.077  18.005  0.00  0.00    +0.000 HD
BRANCH  15  20
ATOM     19  C   UNL     1      -0.659  13.609  19.114  0.00  0.00    +0.000 C 
ATOM     20  C   UNL     1       0.463  13.452  18.394  0.00  0.00    +0.000 C 
ENDBRANCH  15  20
ENDBRANCH   9  17
ENDBRANCH   1  12
BRANCH   6  21
ATOM     21  C   UNL     1       6.428   4.619  17.713  0.00  0.00    +0.000 A 
ATOM     22  C   UNL     1       7.126   5.830  17.533  0.00  0.00    +0.000 A 
ATOM     23  N   UNL     1       7.405   6.068  16.248  0.00  0.00    +0.000 NA
ATOM     24  N   UNL     1       6.886   5.001  15.613  0.00  0.00    +0.000 N 
ATOM     25  C   UNL     1       6.366   4.060  16.461  0.00  0.00    +0.000 A 
BRANCH  24  26
ATOM     26  C   UNL     1       6.848   4.983  14.166  0.00  0.00    +0.000 C 
BRANCH  26  27
ATOM     27  C   UNL     1       6.141   3.745  13.631  0.00  0.00    +0.000 C 
BRANCH  27  28
ATOM     28  O   UNL     1       6.235   3.721  12.205  0.00  0.00    +0.000 OA
ATOM     29  C   UNL     1       5.112   3.070  11.624  0.00  0.00    +0.000 C 
ENDBRANCH  27  28
ENDBRANCH  26  27
ENDBRANCH  24  26
ENDBRANCH   6  21
TORSDOF 7
ENDMDL
MODEL 3
REMARK VINA RESULT:      -7.6      1.054      1.429
REMARK  Name = 
REMARK  8 active torsions:
REMARK  status: ('A' for Active; 'I' for Inactive)
REMARK    1  A    between atoms: C_2  and  C_3
REMARK    2  A    between atoms: N_5  and  C_6
REMARK    3  A    between atoms: C_9  and  C_10
REMARK    4  A    between atoms: N_15  and  C_16
REMARK    5  A    between atoms: N_19  and  C_20
REMARK    6  A    between atoms: C_20  and  C_21
REMARK    7  A    between atoms: C_21  and  O_22
REMARK    8  A    between atoms: O_22  and  C_23
REMARK                            x       y       z     vdW  Elec       q    Type
REMARK                         _______ _______ _______ _____ _____    ______ ____
ROOT
ATOM      1  C   UNL     1       2.641   5.759  19.682  0.00  0.00    +0.000 A 
ATOM      2  C   UNL     1       1.907   4.925  20.501  0.00  0.00    +0.000 A 
ATOM      3  C   UNL     1       2.483   3.720  20.814  0.00  0.00    +0.000 A 
ATOM      4  N   UNL     1       3.687   3.332  20.361  0.00  0.00    +0.000 NA
ATOM      5  C   UNL     1       4.319   4.179  19.532  0.00  0.00    +0.000 A 
ATOM      6  N   UNL     1       5.515   3.712  18.978  0.00  0.00    +0.000 N 
ATOM      7  N   UNL     1       3.831   5.377  19.184  0.00  0.00    +0.000 NA
ATOM      8  H   UNL     1       5.668   2.779  19.338  0.00  0.00    +0.000 HD
ENDROOT
BRANCH   1  12
ATOM      9  C   UNL     1       1.416   9.787  18.697  0.00  0.00    +0.000 A 
ATOM     10  C   UNL     1       1.184   9.245  19.958  0.00  0.00    +0.000 A 
ATOM     11  C   UNL     1       1.576   7.942  20.269  0.00  0.00    +0.000 A 
ATOM     12  C   UNL     1       2.206   7.123  19.325  0.00  0.00    +0.000 A 
ATOM     13  C   UNL     1       2.428   7.674  18.049  0.00  0.00    +0.000 A 
ATOM     14  C   UNL     1       2.031   8.986  17.733  0.00  0.00    +0.000 A 
BRANCH   9  17
ATOM     15  C   UNL     1       1.138  12.200  19.194  0.00  0.00    +0.000 C 
ATOM     16  O   UNL     1       1.648  12.225  20.313  0.00  0.00    +0.000 OA
ATOM     17  N   UNL     1       1.041  11.108  18.355  0.00  0.00    +0.000 N 
ATOM     18  H   UNL     1       0.737  11.258  17.403  0.00  0.00    +0.000 HD
BRANCH  15  20
ATOM     19  C   UNL     1       0.872  14.621  19.178  0.00  0.00    +0.000 C 
ATOM     20  C   UNL     1       0.564  13.443  18.613  0.00  0.00    +0.000 C 
ENDBRANCH  15  20
ENDBRANCH   9  17
ENDBRANCH   1  12
BRANCH   6  21
ATOM     21  C   UNL     1       6.093   4.122  17.830  0.00  0.00    +0.000 A 
ATOM     22  C   UNL     1       7.269   4.870  17.626  0.00  0.00    +0.000 A 
ATOM     23  N   UNL     1       7.443   5.202  16.343  0.00  0.00    +0.000 NA
ATOM     24  N   UNL     1       6.374   4.657  15.733  0.00  0.00    +0.000 N 
ATOM     25  C   UNL     1       5.581   3.923  16.572  0.00  0.00    +0.000 A 
BRANCH  24  26
ATOM     26  C   UNL     1       6.126   4.952  14.337  0.00  0.00    +0.000 C 
BRANCH  26  27
ATOM     27  C   UNL     1       7.381   4.782  13.489  0.00  0.00    +0.000 C 
BRANCH  27  28
ATOM     28  O   UNL     1       7.019   4.295  12.195  0.00  0.00    +0.000 OA
ATOM     29  C   UNL     1       6.026   3.280  12.285  0.00  0.00    +0.000 C 
ENDBRANCH  27  28
ENDBRANCH  26  27
ENDBRANCH  24  26
ENDBRANCH   6  21
TORSDOF 7
ENDMDL
MODEL 4
REMARK VINA RESULT:      -7.6      0.799      1.336
REMARK  Name = 
REMARK  8 active torsions:
REMARK  status: ('A' for Active; 'I' for Inactive)
REMARK    1  A    between atoms: C_2  and  C_3
REMARK    2  A    between atoms: N_5  and  C_6
REMARK    3  A    between atoms: C_9  and  C_10
REMARK    4  A    between atoms: N_15  and  C_16
REMARK    5  A    between atoms: N_19  and  C_20
REMARK    6  A    between atoms: C_20  and  C_21
REMARK    7  A    between atoms: C_21  and  O_22
REMARK    8  A    between atoms: O_22  and  C_23
REMARK                            x       y       z     vdW  Elec       q    Type
REMARK                         _______ _______ _______ _____ _____    ______ ____
ROOT
ATOM      1  C   UNL     1       2.738   5.307  19.996  0.00  0.00    +0.000 A 
ATOM      2  C   UNL     1       2.109   4.285  20.678  0.00  0.00    +0.000 A 
ATOM      3  C   UNL     1       2.789   3.095  20.750  0.00  0.00    +0.000 A 
ATOM      4  N   UNL     1       3.995   2.894  20.194  0.00  0.00    +0.000 NA
ATOM      5  C   UNL     1       4.521   3.922  19.509  0.00  0.00    +0.000 A 
ATOM      6  N   UNL     1       5.720   3.661  18.839  0.00  0.00    +0.000 N 
ATOM      7  N   UNL     1       3.927   5.118  19.397  0.00  0.00    +0.000 NA
ATOM      8  H   UNL     1       5.961   2.695  19.021  0.00  0.00    +0.000 HD
ENDROOT
BRANCH   1  12
ATOM      9  C   UNL     1       1.165   9.330  19.792  0.00  0.00    +0.000 A 
ATOM     10  C   UNL     1       1.005   8.544  20.931  0.00  0.00    +0.000 A 
ATOM     11  C   UNL     1       1.509   7.244  20.989  0.00  0.00    +0.000 A 
ATOM     12  C   UNL     1       2.184   6.672  19.904  0.00  0.00    +0.000 A 
ATOM     13  C   UNL     1       2.334   7.469  18.754  0.00  0.00    +0.000 A 
ATOM     14  C   UNL     1       1.823   8.778  18.692  0.00  0.00    +0.000 A 
BRANCH   9  17
ATOM     15  C   UNL     1      -0.566  11.010  19.218  0.00  0.00    +0.000 C 
ATOM     16  O   UNL     1      -1.468  10.247  18.879  0.00  0.00    +0.000 OA
ATOM     17  N   UNL     1       0.675  10.654  19.707  0.00  0.00    +0.000 N 
ATOM     18  H   UNL     1       1.266  11.379  20.092  0.00  0.00    +0.000 HD
BRANCH  15  20
ATOM     19  C   UNL     1      -0.489  13.108  17.986  0.00  0.00    +0.000 C 
ATOM     20  C   UNL     1      -0.770  12.481  19.138  0.00  0.00    +0.000 C 
ENDBRANCH  15  20
ENDBRANCH   9  17
ENDBRANCH   1  12
BRANCH   6  21
ATOM     21  C   UNL     1       6.209   4.312  17.764  0.00  0.00    +0.000 A 
ATOM     22  C   UNL     1       6.996   5.479  17.695  0.00  0.00    +0.000 A 
ATOM     23  N   UNL     1       7.166   5.901  16.438  0.00  0.00    +0.000 NA
ATOM     24  N   UNL     1       6.487   4.995  15.710  0.00  0.00    +0.000 N 
ATOM     25  C   UNL     1       5.969   3.972  16.457  0.00  0.00    +0.000 A 
BRANCH  24  26
ATOM     26  C   UNL     1       6.302   5.218  14.291  0.00  0.00    +0.000 C 
BRANCH  26  27
ATOM     27  C   UNL     1       6.234   3.908  13.515  0.00  0.00    +0.000 C 
BRANCH  27  28
ATOM     28  O   UNL     1       6.974   4.036  12.299  0.00  0.00    +0.000 OA
ATOM     29  C   UNL     1       7.738   5.236  12.284  0.00  0.00    +0.000 C 
ENDBRANCH  27  28
ENDBRANCH  26  27
ENDBRANCH  24  26
ENDBRANCH   6  21
TORSDOF 7
ENDMDL
MODEL 5
REMARK VINA RESULT:      -7.6      0.858      1.289
REMARK  Name = 
REMARK  8 active torsions:
REMARK  status: ('A' for Active; 'I' for Inactive)
REMARK    1  A    between atoms: C_2  and  C_3
REMARK    2  A    between atoms: N_5  and  C_6
REMARK    3  A    between atoms: C_9  and  C_10
REMARK    4  A    between atoms: N_15  and  C_16
REMARK    5  A    between atoms: N_19  and  C_20
REMARK    6  A    between atoms: C_20  and  C_21
REMARK    7  A    between atoms: C_21  and  O_22
REMARK    8  A    between atoms: O_22  and  C_23
REMARK                            x       y       z     vdW  Elec       q    Type
REMARK                         _______ _______ _______ _____ _____    ______ ____
ROOT
ATOM      1  C   UNL     1       2.856   5.839  19.380  0.00  0.00    +0.000 A 
ATOM      2  C   UNL     1       2.356   4.894  20.253  0.00  0.00    +0.000 A 
ATOM      3  C   UNL     1       3.058   3.718  20.341  0.00  0.00    +0.000 A 
ATOM      4  N   UNL     1       4.166   3.459  19.627  0.00  0.00    +0.000 NA
ATOM      5  C   UNL     1       4.563   4.410  18.766  0.00  0.00    +0.000 A 
ATOM      6  N   UNL     1       5.648   4.079  17.948  0.00  0.00    +0.000 N 
ATOM      7  N   UNL     1       3.941   5.588  18.625  0.00  0.00    +0.000 NA
ATOM      8  H   UNL     1       5.929   3.137  18.189  0.00  0.00    +0.000 HD
ENDROOT
BRANCH   1  12
ATOM      9  C   UNL     1       1.201   9.817  19.016  0.00  0.00    +0.000 A 
ATOM     10  C   UNL     1       1.128   9.106  20.211  0.00  0.00    +0.000 A 
ATOM     11  C   UNL     1       1.658   7.820  20.321  0.00  0.00    +0.000 A 
ATOM     12  C   UNL     1       2.273   7.187  19.234  0.00  0.00    +0.000 A 
ATOM     13  C   UNL     1       2.334   7.908  18.027  0.00  0.00    +0.000 A 
ATOM     14  C   UNL     1       1.798   9.203  17.913  0.00  0.00    +0.000 A 
BRANCH   9  17
ATOM     15  C   UNL     1      -0.635  11.432  18.601  0.00  0.00    +0.000 C 
ATOM     16  O   UNL     1      -1.573  10.641  18.534  0.00  0.00    +0.000 OA
ATOM     17  N   UNL     1       0.683  11.127  18.876  0.00  0.00    +0.000 N 
ATOM     18  H   UNL     1       1.326  11.887  19.052  0.00  0.00    +0.000 HD
BRANCH  15  20
ATOM     19  C   UNL     1      -0.202  13.764  19.153  0.00  0.00    +0.000 C 
ATOM     20  C   UNL     1      -0.874  12.885  18.393  0.00  0.00    +0.000 C 
ENDBRANCH  15  20
ENDBRANCH   9  17
ENDBRANCH   1  12
BRANCH   6  21
ATOM     21  C   UNL     1       5.953   4.615  16.748  0.00  0.00    +0.000 A 
ATOM     22  C   UNL     1       5.591   5.859  16.195  0.00  0.00    +0.000 A 
ATOM     23  N   UNL     1       5.970   5.975  14.918  0.00  0.00    +0.000 NA
ATOM     24  N   UNL     1       6.577   4.802  14.665  0.00  0.00    +0.000 N 
ATOM     25  C   UNL     1       6.670   3.987  15.761  0.00  0.00    +0.000 A 
BRANCH  24  26
ATOM     26  C   UNL     1       6.981   4.487  13.310  0.00  0.00    +0.000 C 
BRANCH  26  27
ATOM     27  C   UNL     1       6.158   3.348  12.722  0.00  0.00    +0.000 C 
BRANCH  27  28
ATOM     28  O   UNL     1       4.807   3.778  12.544  0.00  0.00    +0.000 OA
ATOM     29  C   UNL     1       4.233   3.206  11.375  0.00  0.00    +0.000 C 
ENDBRANCH  27  28
ENDBRANCH  26  27
ENDBRANCH  24  26
ENDBRANCH   6  21
TORSDOF 7
ENDMDL
MODEL 6
REMARK VINA RESULT:      -7.4      1.173      1.527
REMARK  Name = 
REMARK  8 active torsions:
REMARK  status: ('A' for Active; 'I' for Inactive)
REMARK    1  A    between atoms: C_2  and  C_3
REMARK    2  A    between atoms: N_5  and  C_6
REMARK    3  A    between atoms: C_9  and  C_10
REMARK    4  A    between atoms: N_15  and  C_16
REMARK    5  A    between atoms: N_19  and  C_20
REMARK    6  A    between atoms: C_20  and  C_21
REMARK    7  A    between atoms: C_21  and  O_22
REMARK    8  A    between atoms: O_22  and  C_23
REMARK                            x       y       z     vdW  Elec       q    Type
REMARK                         _______ _______ _______ _____ _____    ______ ____
ROOT
ATOM      1  C   UNL     1       2.822   5.561  19.795  0.00  0.00    +0.000 A 
ATOM      2  C   UNL     1       2.320   4.644  20.697  0.00  0.00    +0.000 A 
ATOM      3  C   UNL     1       3.015   3.468  20.816  0.00  0.00    +0.000 A 
ATOM      4  N   UNL     1       4.119   3.181  20.106  0.00  0.00    +0.000 NA
ATOM      5  C   UNL     1       4.519   4.104  19.217  0.00  0.00    +0.000 A 
ATOM      6  N   UNL     1       5.598   3.743  18.405  0.00  0.00    +0.000 N 
ATOM      7  N   UNL     1       3.903   5.281  19.044  0.00  0.00    +0.000 NA
ATOM      8  H   UNL     1       5.874   2.807  18.672  0.00  0.00    +0.000 HD
ENDROOT
BRANCH   1  12
ATOM      9  C   UNL     1       1.185   9.536  19.327  0.00  0.00    +0.000 A 
ATOM     10  C   UNL     1       1.018   8.815  20.507  0.00  0.00    +0.000 A 
ATOM     11  C   UNL     1       1.543   7.530  20.650  0.00  0.00    +0.000 A 
ATOM     12  C   UNL     1       2.247   6.908  19.613  0.00  0.00    +0.000 A 
ATOM     13  C   UNL     1       2.404   7.638  18.420  0.00  0.00    +0.000 A 
ATOM     14  C   UNL     1       1.872   8.932  18.272  0.00  0.00    +0.000 A 
BRANCH   9  17
ATOM     15  C   UNL     1       0.846  11.884  20.047  0.00  0.00    +0.000 C 
ATOM     16  O   UNL     1       1.538  11.874  21.063  0.00  0.00    +0.000 OA
ATOM     17  N   UNL     1       0.675  10.844  19.155  0.00  0.00    +0.000 N 
ATOM     18  H   UNL     1       0.203  11.033  18.282  0.00  0.00    +0.000 HD
BRANCH  15  20
ATOM     19  C   UNL     1      -1.233  13.057  19.570  0.00  0.00    +0.000 C 
ATOM     20  C   UNL     1       0.104  13.116  19.668  0.00  0.00    +0.000 C 
ENDBRANCH  15  20
ENDBRANCH   9  17
ENDBRANCH   1  12
BRANCH   6  21
ATOM     21  C   UNL     1       5.903   4.242  17.189  0.00  0.00    +0.000 A 
ATOM     22  C   UNL     1       6.520   5.459  16.840  0.00  0.00    +0.000 A 
ATOM     23  N   UNL     1       6.524   5.664  15.519  0.00  0.00    +0.000 NA
ATOM     24  N   UNL     1       5.911   4.570  15.031  0.00  0.00    +0.000 N 
ATOM     25  C   UNL     1       5.599   3.645  15.991  0.00  0.00    +0.000 A 
BRANCH  24  26
ATOM     26  C   UNL     1       5.578   4.510  13.623  0.00  0.00    +0.000 C 
BRANCH  26  27
ATOM     27  C   UNL     1       6.549   3.629  12.847  0.00  0.00    +0.000 C 
BRANCH  27  28
ATOM     28  O   UNL     1       5.818   2.790  11.950  0.00  0.00    +0.000 OA
ATOM     29  C   UNL     1       4.523   3.317  11.691  0.00  0.00    +0.000 C 
ENDBRANCH  27  28
ENDBRANCH  26  27
ENDBRANCH  24  26
ENDBRANCH   6  21
TORSDOF 7
ENDMDL
MODEL 7
REMARK VINA RESULT:      -7.2      3.651      9.201
REMARK  Name = 
REMARK  8 active torsions:
REMARK  status: ('A' for Active; 'I' for Inactive)
REMARK    1  A    between atoms: C_2  and  C_3
REMARK    2  A    between atoms: N_5  and  C_6
REMARK    3  A    between atoms: C_9  and  C_10
REMARK    4  A    between atoms: N_15  and  C_16
REMARK    5  A    between atoms: N_19  and  C_20
REMARK    6  A    between atoms: C_20  and  C_21
REMARK    7  A    between atoms: C_21  and  O_22
REMARK    8  A    between atoms: O_22  and  C_23
REMARK                            x       y       z     vdW  Elec       q    Type
REMARK                         _______ _______ _______ _____ _____    ______ ____
ROOT
ATOM      1  C   UNL     1       0.397  10.604  19.969  0.00  0.00    +0.000 A 
ATOM      2  C   UNL     1       0.911  11.462  20.920  0.00  0.00    +0.000 A 
ATOM      3  C   UNL     1       0.102  12.504  21.298  0.00  0.00    +0.000 A 
ATOM      4  N   UNL     1      -1.122  12.717  20.788  0.00  0.00    +0.000 NA
ATOM      5  C   UNL     1      -1.533  11.865  19.834  0.00  0.00    +0.000 A 
ATOM      6  N   UNL     1      -2.758  12.168  19.231  0.00  0.00    +0.000 N 
ATOM      7  N   UNL     1      -0.810  10.819  19.414  0.00  0.00    +0.000 NA
ATOM      8  H   UNL     1      -3.104  13.015  19.665  0.00  0.00    +0.000 HD
ENDROOT
BRANCH   1  12
ATOM      9  C   UNL     1       2.523   7.084  18.631  0.00  0.00    +0.000 A 
ATOM     10  C   UNL     1       2.201   8.117  17.753  0.00  0.00    +0.000 A 
ATOM     11  C   UNL     1       1.509   9.247  18.189  0.00  0.00    +0.000 A 
ATOM     12  C   UNL     1       1.100   9.386  19.520  0.00  0.00    +0.000 A 
ATOM     13  C   UNL     1       1.420   8.334  20.399  0.00  0.00    +0.000 A 
ATOM     14  C   UNL     1       2.113   7.193  19.961  0.00  0.00    +0.000 A 
BRANCH   9  17
ATOM     15  C   UNL     1       2.652   4.756  17.787  0.00  0.00    +0.000 C 
ATOM     16  O   UNL     1       1.455   4.557  17.591  0.00  0.00    +0.000 OA
ATOM     17  N   UNL     1       3.233   5.931  18.222  0.00  0.00    +0.000 N 
ATOM     18  H   UNL     1       4.240   6.008  18.195  0.00  0.00    +0.000 HD
BRANCH  15  20
ATOM     19  C   UNL     1       3.849   2.755  18.490  0.00  0.00    +0.000 C 
ATOM     20  C   UNL     1       3.636   3.670  17.532  0.00  0.00    +0.000 C 
ENDBRANCH  15  20
ENDBRANCH   9  17
ENDBRANCH   1  12
BRANCH   6  21
ATOM     21  C   UNL     1      -3.176  11.788  18.007  0.00  0.00    +0.000 A 
ATOM     22  C   UNL     1      -4.484  11.643  17.503  0.00  0.00    +0.000 A 
ATOM     23  N   UNL     1      -4.498  11.108  16.278  0.00  0.00    +0.000 NA
ATOM     24  N   UNL     1      -3.194  10.919  16.005  0.00  0.00    +0.000 N 
ATOM     25  C   UNL     1      -2.358  11.394  16.978  0.00  0.00    +0.000 A 
BRANCH  24  26
ATOM     26  C   UNL     1      -2.816  10.192  14.811  0.00  0.00    +0.000 C 
BRANCH  26  27
ATOM     27  C   UNL     1      -4.030   9.773  13.992  0.00  0.00    +0.000 C 
BRANCH  27  28
ATOM     28  O   UNL     1      -3.761   9.975  12.603  0.00  0.00    +0.000 OA
ATOM     29  C   UNL     1      -4.886   9.632  11.804  0.00  0.00    +0.000 C 
ENDBRANCH  27  28
ENDBRANCH  26  27
ENDBRANCH  24  26
ENDBRANCH   6  21
TORSDOF 7
ENDMDL
MODEL 8
REMARK VINA RESULT:      -7.1      3.101      5.189
REMARK  Name = 
REMARK  8 active torsions:
REMARK  status: ('A' for Active; 'I' for Inactive)
REMARK    1  A    between atoms: C_2  and  C_3
REMARK    2  A    between atoms: N_5  and  C_6
REMARK    3  A    between atoms: C_9  and  C_10
REMARK    4  A    between atoms: N_15  and  C_16
REMARK    5  A    between atoms: N_19  and  C_20
REMARK    6  A    between atoms: C_20  and  C_21
REMARK    7  A    between atoms: C_21  and  O_22
REMARK    8  A    between atoms: O_22  and  C_23
REMARK                            x       y       z     vdW  Elec       q    Type
REMARK                         _______ _______ _______ _____ _____    ______ ____
ROOT
ATOM      1  C   UNL     1       3.721   7.036  17.506  0.00  0.00    +0.000 A 
ATOM      2  C   UNL     1       4.730   7.609  16.757  0.00  0.00    +0.000 A 
ATOM      3  C   UNL     1       5.528   6.743  16.053  0.00  0.00    +0.000 A 
ATOM      4  N   UNL     1       5.376   5.409  16.072  0.00  0.00    +0.000 NA
ATOM      5  C   UNL     1       4.401   4.926  16.860  0.00  0.00    +0.000 A 
ATOM      6  N   UNL     1       4.331   3.533  16.960  0.00  0.00    +0.000 N 
ATOM      7  N   UNL     1       3.573   5.701  17.573  0.00  0.00    +0.000 NA
ATOM      8  H   UNL     1       5.070   3.153  16.383  0.00  0.00    +0.000 HD
ENDROOT
BRANCH   1  12
ATOM      9  C   UNL     1       0.851   9.375  19.741  0.00  0.00    +0.000 A 
ATOM     10  C   UNL     1       1.442   8.237  20.284  0.00  0.00    +0.000 A 
ATOM     11  C   UNL     1       2.363   7.482  19.556  0.00  0.00    +0.000 A 
ATOM     12  C   UNL     1       2.721   7.829  18.248  0.00  0.00    +0.000 A 
ATOM     13  C   UNL     1       2.113   8.975  17.702  0.00  0.00    +0.000 A 
ATOM     14  C   UNL     1       1.182   9.734  18.433  0.00  0.00    +0.000 A 
BRANCH   9  17
ATOM     15  C   UNL     1       0.251  11.253  21.244  0.00  0.00    +0.000 C 
ATOM     16  O   UNL     1       1.364  11.761  21.368  0.00  0.00    +0.000 OA
ATOM     17  N   UNL     1      -0.077  10.167  20.457  0.00  0.00    +0.000 N 
ATOM     18  H   UNL     1      -1.054   9.946  20.327  0.00  0.00    +0.000 HD
BRANCH  15  20
ATOM     19  C   UNL     1      -1.369  11.189  23.061  0.00  0.00    +0.000 C 
ATOM     20  C   UNL     1      -0.912  11.827  21.973  0.00  0.00    +0.000 C 
ENDBRANCH  15  20
ENDBRANCH   9  17
ENDBRANCH   1  12
BRANCH   6  21
ATOM     21  C   UNL     1       3.794   2.817  17.971  0.00  0.00    +0.000 A 
ATOM     22  C   UNL     1       2.720   1.906  17.962  0.00  0.00    +0.000 A 
ATOM     23  N   UNL     1       2.390   1.501  19.192  0.00  0.00    +0.000 NA
ATOM     24  N   UNL     1       3.261   2.156  19.981  0.00  0.00    +0.000 N 
ATOM     25  C   UNL     1       4.182   2.891  19.285  0.00  0.00    +0.000 A 
BRANCH  24  26
ATOM     26  C   UNL     1       3.103   2.097  21.419  0.00  0.00    +0.000 C 
BRANCH  26  27
ATOM     27  C   UNL     1       1.875   2.868  21.887  0.00  0.00    +0.000 C 
BRANCH  27  28
ATOM     28  O   UNL     1       1.915   4.194  21.358  0.00  0.00    +0.000 OA
ATOM     29  C   UNL     1       0.844   4.421  20.450  0.00  0.00    +0.000 C 
ENDBRANCH  27  28
ENDBRANCH  26  27
ENDBRANCH  24  26
ENDBRANCH   6  21
TORSDOF 7
ENDMDL
MODEL 9
REMARK VINA RESULT:      -7.1      1.363      1.739
REMARK  Name = 
REMARK  8 active torsions:
REMARK  status: ('A' for Active; 'I' for Inactive)
REMARK    1  A    between atoms: C_2  and  C_3
REMARK    2  A    between atoms: N_5  and  C_6
REMARK    3  A    between atoms: C_9  and  C_10
REMARK    4  A    between atoms: N_15  and  C_16
REMARK    5  A    between atoms: N_19  and  C_20
REMARK    6  A    between atoms: C_20  and  C_21
REMARK    7  A    between atoms: C_21  and  O_22
REMARK    8  A    between atoms: O_22  and  C_23
REMARK                            x       y       z     vdW  Elec       q    Type
REMARK                         _______ _______ _______ _____ _____    ______ ____
ROOT
ATOM      1  C   UNL     1       2.371   6.510  19.755  0.00  0.00    +0.000 A 
ATOM      2  C   UNL     1       1.710   5.635  20.594  0.00  0.00    +0.000 A 
ATOM      3  C   UNL     1       2.343   4.445  20.850  0.00  0.00    +0.000 A 
ATOM      4  N   UNL     1       3.533   4.108  20.325  0.00  0.00    +0.000 NA
ATOM      5  C   UNL     1       4.091   4.993  19.482  0.00  0.00    +0.000 A 
ATOM      6  N   UNL     1       5.270   4.579  18.855  0.00  0.00    +0.000 N 
ATOM      7  N   UNL     1       3.544   6.179  19.186  0.00  0.00    +0.000 NA
ATOM      8  H   UNL     1       5.474   3.644  19.186  0.00  0.00    +0.000 HD
ENDROOT
BRANCH   1  12
ATOM      9  C   UNL     1       0.955  10.511  18.928  0.00  0.00    +0.000 A 
ATOM     10  C   UNL     1       0.737   9.903  20.162  0.00  0.00    +0.000 A 
ATOM     11  C   UNL     1       1.191   8.609  20.421  0.00  0.00    +0.000 A 
ATOM     12  C   UNL     1       1.871   7.865  19.451  0.00  0.00    +0.000 A 
ATOM     13  C   UNL     1       2.079   8.482  18.203  0.00  0.00    +0.000 A 
ATOM     14  C   UNL     1       1.620   9.784  17.939  0.00  0.00    +0.000 A 
BRANCH   9  17
ATOM     15  C   UNL     1       1.239  12.974  18.896  0.00  0.00    +0.000 C 
ATOM     16  O   UNL     1       2.393  13.039  19.314  0.00  0.00    +0.000 OA
ATOM     17  N   UNL     1       0.518  11.825  18.639  0.00  0.00    +0.000 N 
ATOM     18  H   UNL     1      -0.365  11.910  18.153  0.00  0.00    +0.000 HD
BRANCH  15  20
ATOM     19  C   UNL     1       1.053  15.402  18.894  0.00  0.00    +0.000 C 
ATOM     20  C   UNL     1       0.488  14.222  18.596  0.00  0.00    +0.000 C 
ENDBRANCH  15  20
ENDBRANCH   9  17
ENDBRANCH   1  12
BRANCH   6  21
ATOM     21  C   UNL     1       5.771   5.031  17.687  0.00  0.00    +0.000 A 
ATOM     22  C   UNL     1       5.705   6.316  17.113  0.00  0.00    +0.000 A 
ATOM     23  N   UNL     1       6.201   6.342  15.872  0.00  0.00    +0.000 NA
ATOM     24  N   UNL     1       6.586   5.070  15.663  0.00  0.00    +0.000 N 
ATOM     25  C   UNL     1       6.428   4.264  16.758  0.00  0.00    +0.000 A 
BRANCH  24  26
ATOM     26  C   UNL     1       7.028   4.668  14.344  0.00  0.00    +0.000 C 
BRANCH  26  27
ATOM     27  C   UNL     1       5.991   3.807  13.635  0.00  0.00    +0.000 C 
BRANCH  27  28
ATOM     28  O   UNL     1       6.409   3.570  12.289  0.00  0.00    +0.000 OA
ATOM     29  C   UNL     1       7.406   4.501  11.886  0.00  0.00    +0.000 C 
ENDBRANCH  27  28
ENDBRANCH  26  27
ENDBRANCH  24  26
ENDBRANCH   6  21
TORSDOF 7
ENDMDL
