MODEL 1
REMARK VINA RESULT:      -6.3      0.000      0.000
REMARK  Name = 
REMARK  4 active torsions:
REMARK  status: ('A' for Active; 'I' for Inactive)
REMARK    1  A    between atoms: C_1  and  O_2
REMARK    2  A    between atoms: O_2  and  C_3
REMARK    3  A    between atoms: C_6  and  N_7
REMARK    4  A    between atoms: C_8  and  C_10
REMARK                            x       y       z     vdW  Elec       q    Type
REMARK                         _______ _______ _______ _____ _____    ______ ____
ROOT
ATOM      1  N   UNL     1       4.080   4.239  17.788  0.00  0.00    +0.000 N 
ATOM      2  C   UNL     1       4.219   3.630  19.026  0.00  0.00    +0.000 C 
ATOM      3  O   UNL     1       5.294   3.293  19.515  0.00  0.00    +0.000 OA
ATOM      4  H   UNL     1       3.149   4.561  17.560  0.00  0.00    +0.000 HD
ENDROOT
BRANCH   1   8
ATOM      5  C   UNL     1       7.058   5.119  14.923  0.00  0.00    +0.000 A 
ATOM      6  C   UNL     1       6.982   5.871  16.091  0.00  0.00    +0.000 A 
ATOM      7  C   UNL     1       6.021   5.587  17.063  0.00  0.00    +0.000 A 
ATOM      8  C   UNL     1       5.105   4.553  16.872  0.00  0.00    +0.000 A 
ATOM      9  C   UNL     1       5.195   3.783  15.706  0.00  0.00    +0.000 A 
ATOM     10  C   UNL     1       6.160   4.071  14.729  0.00  0.00    +0.000 A 
BRANCH   5  12
ATOM     11  C   UNL     1       7.794   5.189  12.674  0.00  0.00    +0.000 C 
ATOM     12  O   UNL     1       8.016   5.525  14.038  0.00  0.00    +0.000 OA
ENDBRANCH   5  12
ENDBRANCH   1   8
BRANCH   2  13
ATOM     13  C   UNL     1       2.972   3.441  19.769  0.00  0.00    +0.000 A 
ATOM     14  C   UNL     1       1.714   3.850  19.362  0.00  0.00    +0.000 A 
ATOM     15  C   UNL     1       0.696   3.521  20.300  0.00  0.00    +0.000 A 
ATOM     16  C   UNL     1       1.208   2.874  21.400  0.00  0.00    +0.000 A 
ATOM     17  S   UNL     1       2.903   2.665  21.294  0.00  0.00    +0.000 S 
ENDBRANCH   2  13
TORSDOF 3
ENDMDL
MODEL 2
REMARK VINA RESULT:      -6.2      0.176      1.212
REMARK  Name = 
REMARK  4 active torsions:
REMARK  status: ('A' for Active; 'I' for Inactive)
REMARK    1  A    between atoms: C_1  and  O_2
REMARK    2  A    between atoms: O_2  and  C_3
REMARK    3  A    between atoms: C_6  and  N_7
REMARK    4  A    between atoms: C_8  and  C_10
REMARK                            x       y       z     vdW  Elec       q    Type
REMARK                         _______ _______ _______ _____ _____    ______ ____
ROOT
ATOM      1  N   UNL     1       4.035   4.304  17.721  0.00  0.00    +0.000 N 
ATOM      2  C   UNL     1       4.228   3.755  18.979  0.00  0.00    +0.000 C 
ATOM      3  O   UNL     1       5.328   3.484  19.454  0.00  0.00    +0.000 OA
ATOM      4  H   UNL     1       3.086   4.577  17.503  0.00  0.00    +0.000 HD
ENDROOT
BRANCH   1   8
ATOM      5  C   UNL     1       7.094   5.303  14.983  0.00  0.00    +0.000 A 
ATOM      6  C   UNL     1       6.176   4.308  14.658  0.00  0.00    +0.000 A 
ATOM      7  C   UNL     1       5.143   3.974  15.537  0.00  0.00    +0.000 A 
ATOM      8  C   UNL     1       5.024   4.620  16.767  0.00  0.00    +0.000 A 
ATOM      9  C   UNL     1       5.935   5.636  17.084  0.00  0.00    +0.000 A 
ATOM     10  C   UNL     1       6.974   5.969  16.201  0.00  0.00    +0.000 A 
BRANCH   5  12
ATOM     11  C   UNL     1       7.766   5.126  12.721  0.00  0.00    +0.000 C 
ATOM     12  O   UNL     1       8.077   5.504  14.055  0.00  0.00    +0.000 OA
ENDBRANCH   5  12
ENDBRANCH   1   8
BRANCH   2  13
ATOM     13  C   UNL     1       3.009   3.547  19.760  0.00  0.00    +0.000 A 
ATOM     14  C   UNL     1       1.768   4.098  19.492  0.00  0.00    +0.000 A 
ATOM     15  C   UNL     1       0.775   3.707  20.433  0.00  0.00    +0.000 A 
ATOM     16  C   UNL     1       1.288   2.872  21.397  0.00  0.00    +0.000 A 
ATOM     17  S   UNL     1       2.954   2.562  21.162  0.00  0.00    +0.000 S 
ENDBRANCH   2  13
TORSDOF 3
ENDMDL
MODEL 3
REMARK VINA RESULT:      -6.2      0.807      1.590
REMARK  Name = 
REMARK  4 active torsions:
REMARK  status: ('A' for Active; 'I' for Inactive)
REMARK    1  A    between atoms: C_1  and  O_2
REMARK    2  A    between atoms: O_2  and  C_3
REMARK    3  A    between atoms: C_6  and  N_7
REMARK    4  A    between atoms: C_8  and  C_10
REMARK                            x       y       z     vdW  Elec       q    Type
REMARK                         _______ _______ _______ _____ _____    ______ ____
ROOT
ATOM      1  N   UNL     1       4.066   4.134  17.789  0.00  0.00    +0.000 N 
ATOM      2  C   UNL     1       4.266   3.573  19.041  0.00  0.00    +0.000 C 
ATOM      3  O   UNL     1       5.369   3.318  19.517  0.00  0.00    +0.000 OA
ATOM      4  H   UNL     1       3.113   4.390  17.570  0.00  0.00    +0.000 HD
ENDROOT
BRANCH   1   8
ATOM      5  C   UNL     1       7.108   5.245  15.074  0.00  0.00    +0.000 A 
ATOM      6  C   UNL     1       6.292   4.154  14.786  0.00  0.00    +0.000 A 
ATOM      7  C   UNL     1       5.266   3.780  15.657  0.00  0.00    +0.000 A 
ATOM      8  C   UNL     1       5.052   4.482  16.843  0.00  0.00    +0.000 A 
ATOM      9  C   UNL     1       5.860   5.592  17.121  0.00  0.00    +0.000 A 
ATOM     10  C   UNL     1       6.892   5.966  16.247  0.00  0.00    +0.000 A 
BRANCH   5  12
ATOM     11  C   UNL     1       7.792   5.159  12.811  0.00  0.00    +0.000 C 
ATOM     12  O   UNL     1       8.097   5.479  14.162  0.00  0.00    +0.000 OA
ENDBRANCH   5  12
ENDBRANCH   1   8
BRANCH   2  13
ATOM     13  C   UNL     1       3.048   3.330  19.814  0.00  0.00    +0.000 A 
ATOM     14  C   UNL     1       2.985   2.758  21.073  0.00  0.00    +0.000 A 
ATOM     15  C   UNL     1       1.656   2.656  21.569  0.00  0.00    +0.000 A 
ATOM     16  C   UNL     1       0.739   3.149  20.670  0.00  0.00    +0.000 A 
ATOM     17  S   UNL     1       1.484   3.732  19.244  0.00  0.00    +0.000 S 
ENDBRANCH   2  13
TORSDOF 3
ENDMDL
MODEL 4
REMARK VINA RESULT:      -6.1      1.086      1.086
REMARK  Name = 
REMARK  4 active torsions:
REMARK  status: ('A' for Active; 'I' for Inactive)
REMARK    1  A    between atoms: C_1  and  O_2
REMARK    2  A    between atoms: O_2  and  C_3
REMARK    3  A    between atoms: C_6  and  N_7
REMARK    4  A    between atoms: C_8  and  C_10
REMARK                            x       y       z     vdW  Elec       q    Type
REMARK                         _______ _______ _______ _____ _____    ______ ____
ROOT
ATOM      1  N   UNL     1       4.497   3.844  17.960  0.00  0.00    +0.000 N 
ATOM      2  C   UNL     1       3.348   4.504  18.368  0.00  0.00    +0.000 C 
ATOM      3  O   UNL     1       2.938   5.551  17.875  0.00  0.00    +0.000 OA
ATOM      4  H   UNL     1       4.654   2.937  18.379  0.00  0.00    +0.000 HD
ENDROOT
BRANCH   1   8
ATOM      5  C   UNL     1       7.089   5.026  14.840  0.00  0.00    +0.000 A 
ATOM      6  C   UNL     1       7.287   5.522  16.125  0.00  0.00    +0.000 A 
ATOM      7  C   UNL     1       6.456   5.131  17.178  0.00  0.00    +0.000 A 
ATOM      8  C   UNL     1       5.401   4.247  16.956  0.00  0.00    +0.000 A 
ATOM      9  C   UNL     1       5.216   3.732  15.667  0.00  0.00    +0.000 A 
ATOM     10  C   UNL     1       6.049   4.128  14.609  0.00  0.00    +0.000 A 
BRANCH   5  12
ATOM     11  C   UNL     1       7.700   5.114  12.555  0.00  0.00    +0.000 C 
ATOM     12  O   UNL     1       7.944   5.519  13.895  0.00  0.00    +0.000 OA
ENDBRANCH   5  12
ENDBRANCH   1   8
BRANCH   2  13
ATOM     13  C   UNL     1       2.593   3.838  19.430  0.00  0.00    +0.000 A 
ATOM     14  C   UNL     1       1.232   3.949  19.653  0.00  0.00    +0.000 A 
ATOM     15  C   UNL     1       0.788   3.178  20.763  0.00  0.00    +0.000 A 
ATOM     16  C   UNL     1       1.827   2.503  21.361  0.00  0.00    +0.000 A 
ATOM     17  S   UNL     1       3.321   2.799  20.582  0.00  0.00    +0.000 S 
ENDBRANCH   2  13
TORSDOF 3
ENDMDL
MODEL 5
REMARK VINA RESULT:      -6.0      1.128      1.550
REMARK  Name = 
REMARK  4 active torsions:
REMARK  status: ('A' for Active; 'I' for Inactive)
REMARK    1  A    between atoms: C_1  and  O_2
REMARK    2  A    between atoms: O_2  and  C_3
REMARK    3  A    between atoms: C_6  and  N_7
REMARK    4  A    between atoms: C_8  and  C_10
REMARK                            x       y       z     vdW  Elec       q    Type
REMARK                         _______ _______ _______ _____ _____    ______ ____
ROOT
ATOM      1  N   UNL     1       4.443   3.815  17.932  0.00  0.00    +0.000 N 
ATOM      2  C   UNL     1       3.390   4.517  18.498  0.00  0.00    +0.000 C 
ATOM      3  O   UNL     1       3.029   5.634  18.136  0.00  0.00    +0.000 OA
ATOM      4  H   UNL     1       4.559   2.864  18.254  0.00  0.00    +0.000 HD
ENDROOT
BRANCH   1   8
ATOM      5  C   UNL     1       7.113   5.054  14.901  0.00  0.00    +0.000 A 
ATOM      6  C   UNL     1       5.829   4.638  14.560  0.00  0.00    +0.000 A 
ATOM      7  C   UNL     1       4.921   4.244  15.545  0.00  0.00    +0.000 A 
ATOM      8  C   UNL     1       5.291   4.243  16.890  0.00  0.00    +0.000 A 
ATOM      9  C   UNL     1       6.576   4.682  17.233  0.00  0.00    +0.000 A 
ATOM     10  C   UNL     1       7.488   5.075  16.242  0.00  0.00    +0.000 A 
BRANCH   5  12
ATOM     11  C   UNL     1       7.521   4.852  12.578  0.00  0.00    +0.000 C 
ATOM     12  O   UNL     1       7.913   5.374  13.841  0.00  0.00    +0.000 OA
ENDBRANCH   5  12
ENDBRANCH   1   8
BRANCH   2  13
ATOM     13  C   UNL     1       2.674   3.812  19.561  0.00  0.00    +0.000 A 
ATOM     14  C   UNL     1       1.320   3.909  19.832  0.00  0.00    +0.000 A 
ATOM     15  C   UNL     1       0.916   3.099  20.930  0.00  0.00    +0.000 A 
ATOM     16  C   UNL     1       1.977   2.409  21.471  0.00  0.00    +0.000 A 
ATOM     17  S   UNL     1       3.443   2.738  20.653  0.00  0.00    +0.000 S 
ENDBRANCH   2  13
TORSDOF 3
ENDMDL
MODEL 6
REMARK VINA RESULT:      -6.0      1.277      1.877
REMARK  Name = 
REMARK  4 active torsions:
REMARK  status: ('A' for Active; 'I' for Inactive)
REMARK    1  A    between atoms: C_1  and  O_2
REMARK    2  A    between atoms: O_2  and  C_3
REMARK    3  A    between atoms: C_6  and  N_7
REMARK    4  A    between atoms: C_8  and  C_10
REMARK                            x       y       z     vdW  Elec       q    Type
REMARK                         _______ _______ _______ _____ _____    ______ ____
ROOT
ATOM      1  N   UNL     1       4.535   3.870  18.172  0.00  0.00    +0.000 N 
ATOM      2  C   UNL     1       3.274   4.329  18.520  0.00  0.00    +0.000 C 
ATOM      3  O   UNL     1       2.653   5.185  17.896  0.00  0.00    +0.000 OA
ATOM      4  H   UNL     1       4.881   3.087  18.710  0.00  0.00    +0.000 HD
ENDROOT
BRANCH   1   8
ATOM      5  C   UNL     1       7.046   5.185  15.038  0.00  0.00    +0.000 A 
ATOM      6  C   UNL     1       5.991   4.321  14.760  0.00  0.00    +0.000 A 
ATOM      7  C   UNL     1       5.134   3.889  15.774  0.00  0.00    +0.000 A 
ATOM      8  C   UNL     1       5.332   4.301  17.091  0.00  0.00    +0.000 A 
ATOM      9  C   UNL     1       6.381   5.188  17.367  0.00  0.00    +0.000 A 
ATOM     10  C   UNL     1       7.243   5.619  16.348  0.00  0.00    +0.000 A 
BRANCH   5  12
ATOM     11  C   UNL     1       7.506   4.854  12.741  0.00  0.00    +0.000 C 
ATOM     12  O   UNL     1       7.832   5.498  13.965  0.00  0.00    +0.000 OA
ENDBRANCH   5  12
ENDBRANCH   1   8
BRANCH   2  13
ATOM     13  C   UNL     1       2.680   3.683  19.691  0.00  0.00    +0.000 A 
ATOM     14  C   UNL     1       3.325   2.818  20.558  0.00  0.00    +0.000 A 
ATOM     15  C   UNL     1       2.482   2.354  21.605  0.00  0.00    +0.000 A 
ATOM     16  C   UNL     1       1.213   2.875  21.506  0.00  0.00    +0.000 A 
ATOM     17  S   UNL     1       1.048   3.917  20.159  0.00  0.00    +0.000 S 
ENDBRANCH   2  13
TORSDOF 3
ENDMDL
MODEL 7
REMARK VINA RESULT:      -5.9      1.230      1.411
REMARK  Name = 
REMARK  4 active torsions:
REMARK  status: ('A' for Active; 'I' for Inactive)
REMARK    1  A    between atoms: C_1  and  O_2
REMARK    2  A    between atoms: O_2  and  C_3
REMARK    3  A    between atoms: C_6  and  N_7
REMARK    4  A    between atoms: C_8  and  C_10
REMARK                            x       y       z     vdW  Elec       q    Type
REMARK                         _______ _______ _______ _____ _____    ______ ____
ROOT
ATOM      1  N   UNL     1       4.636   3.822  18.173  0.00  0.00    +0.000 N 
ATOM      2  C   UNL     1       3.555   4.505  18.709  0.00  0.00    +0.000 C 
ATOM      3  O   UNL     1       3.153   5.592  18.303  0.00  0.00    +0.000 OA
ATOM      4  H   UNL     1       4.787   2.889  18.533  0.00  0.00    +0.000 HD
ENDROOT
BRANCH   1   8
ATOM      5  C   UNL     1       7.015   5.038  14.900  0.00  0.00    +0.000 A 
ATOM      6  C   UNL     1       7.251   5.577  16.161  0.00  0.00    +0.000 A 
ATOM      7  C   UNL     1       6.492   5.176  17.264  0.00  0.00    +0.000 A 
ATOM      8  C   UNL     1       5.470   4.239  17.115  0.00  0.00    +0.000 A 
ATOM      9  C   UNL     1       5.248   3.682  15.850  0.00  0.00    +0.000 A 
ATOM     10  C   UNL     1       6.009   4.088  14.743  0.00  0.00    +0.000 A 
BRANCH   5  12
ATOM     11  C   UNL     1       7.615   4.980  12.612  0.00  0.00    +0.000 C 
ATOM     12  O   UNL     1       7.799   5.545  13.903  0.00  0.00    +0.000 OA
ENDBRANCH   5  12
ENDBRANCH   1   8
BRANCH   2  13
ATOM     13  C   UNL     1       2.863   3.816  19.799  0.00  0.00    +0.000 A 
ATOM     14  C   UNL     1       3.345   2.731  20.510  0.00  0.00    +0.000 A 
ATOM     15  C   UNL     1       2.441   2.282  21.513  0.00  0.00    +0.000 A 
ATOM     16  C   UNL     1       1.291   3.036  21.536  0.00  0.00    +0.000 A 
ATOM     17  S   UNL     1       1.310   4.276  20.357  0.00  0.00    +0.000 S 
ENDBRANCH   2  13
TORSDOF 3
ENDMDL
MODEL 8
REMARK VINA RESULT:      -5.8      0.870      1.011
REMARK  Name = 
REMARK  4 active torsions:
REMARK  status: ('A' for Active; 'I' for Inactive)
REMARK    1  A    between atoms: C_1  and  O_2
REMARK    2  A    between atoms: O_2  and  C_3
REMARK    3  A    between atoms: C_6  and  N_7
REMARK    4  A    between atoms: C_8  and  C_10
REMARK                            x       y       z     vdW  Elec       q    Type
REMARK                         _______ _______ _______ _____ _____    ______ ____
ROOT
ATOM      1  N   UNL     1       4.233   4.382  17.678  0.00  0.00    +0.000 N 
ATOM      2  C   UNL     1       4.405   3.893  18.964  0.00  0.00    +0.000 C 
ATOM      3  O   UNL     1       5.497   3.643  19.469  0.00  0.00    +0.000 OA
ATOM      4  H   UNL     1       3.288   4.645  17.432  0.00  0.00    +0.000 HD
ENDROOT
BRANCH   1   8
ATOM      5  C   UNL     1       7.149   5.115  14.710  0.00  0.00    +0.000 A 
ATOM      6  C   UNL     1       7.083   5.940  15.829  0.00  0.00    +0.000 A 
ATOM      7  C   UNL     1       6.142   5.706  16.835  0.00  0.00    +0.000 A 
ATOM      8  C   UNL     1       5.238   4.650  16.726  0.00  0.00    +0.000 A 
ATOM      9  C   UNL     1       5.320   3.808  15.610  0.00  0.00    +0.000 A 
ATOM     10  C   UNL     1       6.264   4.046  14.599  0.00  0.00    +0.000 A 
BRANCH   5  12
ATOM     11  C   UNL     1       7.738   5.263  12.423  0.00  0.00    +0.000 C 
ATOM     12  O   UNL     1       8.086   5.477  13.784  0.00  0.00    +0.000 OA
ENDBRANCH   5  12
ENDBRANCH   1   8
BRANCH   2  13
ATOM     13  C   UNL     1       3.173   3.725  19.735  0.00  0.00    +0.000 A 
ATOM     14  C   UNL     1       2.793   2.585  20.422  0.00  0.00    +0.000 A 
ATOM     15  C   UNL     1       1.540   2.728  21.080  0.00  0.00    +0.000 A 
ATOM     16  C   UNL     1       0.995   3.973  20.871  0.00  0.00    +0.000 A 
ATOM     17  S   UNL     1       1.994   4.958  19.892  0.00  0.00    +0.000 S 
ENDBRANCH   2  13
TORSDOF 3
ENDMDL
MODEL 9
REMARK VINA RESULT:      -5.8      4.232      4.542
REMARK  Name = 
REMARK  4 active torsions:
REMARK  status: ('A' for Active; 'I' for Inactive)
REMARK    1  A    between atoms: C_1  and  O_2
REMARK    2  A    between atoms: O_2  and  C_3
REMARK    3  A    between atoms: C_6  and  N_7
REMARK    4  A    between atoms: C_8  and  C_10
REMARK                            x       y       z     vdW  Elec       q    Type
REMARK                         _______ _______ _______ _____ _____    ______ ____
ROOT
ATOM      1  N   UNL     1       2.845   6.986  18.728  0.00  0.00    +0.000 N 
ATOM      2  C   UNL     1       2.204   8.186  18.464  0.00  0.00    +0.000 C 
ATOM      3  O   UNL     1       2.212   8.750  17.372  0.00  0.00    +0.000 OA
ATOM      4  H   UNL     1       2.663   6.583  19.637  0.00  0.00    +0.000 HD
ENDROOT
BRANCH   1   8
ATOM      5  C   UNL     1       5.061   4.590  16.044  0.00  0.00    +0.000 A 
ATOM      6  C   UNL     1       5.342   5.949  16.148  0.00  0.00    +0.000 A 
ATOM      7  C   UNL     1       4.638   6.759  17.043  0.00  0.00    +0.000 A 
ATOM      8  C   UNL     1       3.626   6.221  17.837  0.00  0.00    +0.000 A 
ATOM      9  C   UNL     1       3.358   4.850  17.747  0.00  0.00    +0.000 A 
ATOM     10  C   UNL     1       4.064   4.038  16.846  0.00  0.00    +0.000 A 
BRANCH   5  12
ATOM     11  C   UNL     1       6.870   4.641  14.519  0.00  0.00    +0.000 C 
ATOM     12  O   UNL     1       5.792   3.922  15.104  0.00  0.00    +0.000 OA
ENDBRANCH   5  12
ENDBRANCH   1   8
BRANCH   2  13
ATOM     13  C   UNL     1       1.450   8.748  19.585  0.00  0.00    +0.000 A 
ATOM     14  C   UNL     1       1.348   8.199  20.852  0.00  0.00    +0.000 A 
ATOM     15  C   UNL     1       0.545   8.980  21.729  0.00  0.00    +0.000 A 
ATOM     16  C   UNL     1       0.051  10.102  21.104  0.00  0.00    +0.000 A 
ATOM     17  S   UNL     1       0.560  10.208  19.474  0.00  0.00    +0.000 S 
ENDBRANCH   2  13
TORSDOF 3
ENDMDL
