MODEL 1
REMARK VINA RESULT:      -7.5      0.000      0.000
REMARK  Name = 
REMARK  5 active torsions:
REMARK  status: ('A' for Active; 'I' for Inactive)
REMARK    1  A    between atoms: O_1  and  C_2
REMARK    2  A    between atoms: C_5  and  C_6
REMARK    3  A    between atoms: C_6  and  C_7
REMARK    4  A    between atoms: C_6  and  N_17
REMARK    5  A    between atoms: N_11  and  C_12
REMARK                            x       y       z     vdW  Elec       q    Type
REMARK                         _______ _______ _______ _____ _____    ______ ____
ROOT
ATOM      1  C   UNL     1      -2.398  11.800  19.495  0.00  0.00    +0.000 C 
ENDROOT
BRANCH   1   2
ATOM      2  N   UNL     1      -3.384  12.655  20.210  0.00  0.00    +0.000 NA
ATOM      3  C   UNL     1      -2.890  13.454  21.328  0.00  0.00    +0.000 C 
ATOM      4  C   UNL     1      -3.436  13.103  22.720  0.00  0.00    +0.000 C 
ATOM      5  C   UNL     1      -4.933  12.984  22.712  0.00  0.00    +0.000 A 
ATOM      6  C   UNL     1      -5.692  13.198  23.873  0.00  0.00    +0.000 A 
ATOM      7  C   UNL     1      -7.079  13.047  23.848  0.00  0.00    +0.000 A 
ATOM      8  C   UNL     1      -7.717  12.690  22.663  0.00  0.00    +0.000 A 
ATOM      9  C   UNL     1      -6.964  12.458  21.511  0.00  0.00    +0.000 A 
ATOM     10  C   UNL     1      -5.566  12.590  21.528  0.00  0.00    +0.000 A 
ATOM     11  C   UNL     1      -4.758  12.151  20.324  0.00  0.00    +0.000 C 
ENDBRANCH   1   2
BRANCH   1  15
ATOM     12  C   UNL     1      -3.697  10.374  15.599  0.00  0.00    +0.000 A 
ATOM     13  C   UNL     1      -2.533   9.876  16.169  0.00  0.00    +0.000 A 
ATOM     14  C   UNL     1      -2.128  10.336  17.428  0.00  0.00    +0.000 A 
ATOM     15  C   UNL     1      -2.875  11.308  18.122  0.00  0.00    +0.000 A 
ATOM     16  C   UNL     1      -4.046  11.792  17.516  0.00  0.00    +0.000 A 
ATOM     17  C   UNL     1      -4.458  11.323  16.265  0.00  0.00    +0.000 A 
BRANCH  12  18
ATOM     18  O   UNL     1      -4.127   9.960  14.374  0.00  0.00    +0.000 OA
ATOM     19  H   UNL     1      -4.785   9.256  14.493  0.00  0.00    +0.000 HD
ENDBRANCH  12  18
ENDBRANCH   1  15
BRANCH   1  20
ATOM     20  C   UNL     1      -1.002  12.409  19.444  0.00  0.00    +0.000 A 
ATOM     21  N   UNL     1      -0.640  13.416  18.661  0.00  0.00    +0.000 NA
ATOM     22  N   UNL     1       0.676  13.657  18.894  0.00  0.00    +0.000 NA
ATOM     23  N   UNL     1       1.155  12.823  19.793  0.00  0.00    +0.000 NA
ATOM     24  N   UNL     1       0.123  12.030  20.152  0.00  0.00    +0.000 N 
BRANCH  24  25
ATOM     25  C   UNL     1       0.420  10.979  21.101  0.00  0.00    +0.000 C 
ATOM     26  C   UNL     1      -0.366  10.991  22.408  0.00  0.00    +0.000 C 
ATOM     27  C   UNL     1      -0.522   9.535  22.822  0.00  0.00    +0.000 C 
ATOM     28  C   UNL     1      -0.294   8.682  21.584  0.00  0.00    +0.000 C 
ATOM     29  C   UNL     1       0.354   9.564  20.527  0.00  0.00    +0.000 C 
ENDBRANCH  24  25
ENDBRANCH   1  20
TORSDOF 5
ENDMDL
MODEL 2
REMARK VINA RESULT:      -7.2      6.865      9.432
REMARK  Name = 
REMARK  5 active torsions:
REMARK  status: ('A' for Active; 'I' for Inactive)
REMARK    1  A    between atoms: O_1  and  C_2
REMARK    2  A    between atoms: C_5  and  C_6
REMARK    3  A    between atoms: C_6  and  C_7
REMARK    4  A    between atoms: C_6  and  N_17
REMARK    5  A    between atoms: N_11  and  C_12
REMARK                            x       y       z     vdW  Elec       q    Type
REMARK                         _______ _______ _______ _____ _____    ______ ____
ROOT
ATOM      1  C   UNL     1       3.096   5.886  17.697  0.00  0.00    +0.000 C 
ENDROOT
BRANCH   1   2
ATOM      2  N   UNL     1       2.918   7.029  18.632  0.00  0.00    +0.000 NA
ATOM      3  C   UNL     1       2.711   6.712  20.042  0.00  0.00    +0.000 C 
ATOM      4  C   UNL     1       1.348   7.091  20.641  0.00  0.00    +0.000 C 
ATOM      5  C   UNL     1       0.969   8.504  20.303  0.00  0.00    +0.000 A 
ATOM      6  C   UNL     1       0.096   9.243  21.116  0.00  0.00    +0.000 A 
ATOM      7  C   UNL     1      -0.267  10.543  20.763  0.00  0.00    +0.000 A 
ATOM      8  C   UNL     1       0.245  11.116  19.602  0.00  0.00    +0.000 A 
ATOM      9  C   UNL     1       1.098  10.377  18.781  0.00  0.00    +0.000 A 
ATOM     10  C   UNL     1       1.458   9.062  19.117  0.00  0.00    +0.000 A 
ATOM     11  C   UNL     1       2.227   8.219  18.121  0.00  0.00    +0.000 C 
ENDBRANCH   1   2
BRANCH   1  15
ATOM     12  C   UNL     1       7.198   4.524  17.230  0.00  0.00    +0.000 A 
ATOM     13  C   UNL     1       6.227   4.131  16.318  0.00  0.00    +0.000 A 
ATOM     14  C   UNL     1       4.911   4.581  16.473  0.00  0.00    +0.000 A 
ATOM     15  C   UNL     1       4.550   5.417  17.548  0.00  0.00    +0.000 A 
ATOM     16  C   UNL     1       5.557   5.794  18.453  0.00  0.00    +0.000 A 
ATOM     17  C   UNL     1       6.873   5.355  18.291  0.00  0.00    +0.000 A 
BRANCH  12  18
ATOM     18  O   UNL     1       8.490   4.105  17.122  0.00  0.00    +0.000 OA
ATOM     19  H   UNL     1       9.071   4.882  17.091  0.00  0.00    +0.000 HD
ENDBRANCH  12  18
ENDBRANCH   1  15
BRANCH   1  20
ATOM     20  C   UNL     1       2.137   4.732  17.970  0.00  0.00    +0.000 A 
ATOM     21  N   UNL     1       0.991   4.531  17.336  0.00  0.00    +0.000 NA
ATOM     22  N   UNL     1       0.424   3.417  17.868  0.00  0.00    +0.000 NA
ATOM     23  N   UNL     1       1.176   2.919  18.827  0.00  0.00    +0.000 NA
ATOM     24  N   UNL     1       2.256   3.727  18.910  0.00  0.00    +0.000 N 
BRANCH  24  25
ATOM     25  C   UNL     1       3.213   3.413  19.948  0.00  0.00    +0.000 C 
ATOM     26  C   UNL     1       2.668   2.749  21.209  0.00  0.00    +0.000 C 
ATOM     27  C   UNL     1       3.774   1.837  21.720  0.00  0.00    +0.000 C 
ATOM     28  C   UNL     1       4.725   1.580  20.561  0.00  0.00    +0.000 C 
ATOM     29  C   UNL     1       4.422   2.603  19.478  0.00  0.00    +0.000 C 
ENDBRANCH  24  25
ENDBRANCH   1  20
TORSDOF 5
ENDMDL
MODEL 3
REMARK VINA RESULT:      -7.2      3.258      7.121
REMARK  Name = 
REMARK  5 active torsions:
REMARK  status: ('A' for Active; 'I' for Inactive)
REMARK    1  A    between atoms: O_1  and  C_2
REMARK    2  A    between atoms: C_5  and  C_6
REMARK    3  A    between atoms: C_6  and  C_7
REMARK    4  A    between atoms: C_6  and  N_17
REMARK    5  A    between atoms: N_11  and  C_12
REMARK                            x       y       z     vdW  Elec       q    Type
REMARK                         _______ _______ _______ _____ _____    ______ ____
ROOT
ATOM      1  C   UNL     1      -0.460  12.112  19.921  0.00  0.00    +0.000 C 
ENDROOT
BRANCH   1   2
ATOM      2  N   UNL     1      -0.248  10.689  19.540  0.00  0.00    +0.000 NA
ATOM      3  C   UNL     1      -0.556   9.675  20.544  0.00  0.00    +0.000 C 
ATOM      4  C   UNL     1       0.624   8.843  21.067  0.00  0.00    +0.000 C 
ATOM      5  C   UNL     1       1.464   8.308  19.943  0.00  0.00    +0.000 A 
ATOM      6  C   UNL     1       2.234   7.144  20.094  0.00  0.00    +0.000 A 
ATOM      7  C   UNL     1       3.034   6.686  19.046  0.00  0.00    +0.000 A 
ATOM      8  C   UNL     1       3.062   7.381  17.840  0.00  0.00    +0.000 A 
ATOM      9  C   UNL     1       2.312   8.549  17.693  0.00  0.00    +0.000 A 
ATOM     10  C   UNL     1       1.517   9.029  18.746  0.00  0.00    +0.000 A 
ATOM     11  C   UNL     1       0.866  10.392  18.630  0.00  0.00    +0.000 C 
ENDBRANCH   1   2
BRANCH   1  15
ATOM     12  C   UNL     1      -3.715  12.740  22.733  0.00  0.00    +0.000 A 
ATOM     13  C   UNL     1      -3.948  12.836  21.368  0.00  0.00    +0.000 A 
ATOM     14  C   UNL     1      -2.895  12.624  20.471  0.00  0.00    +0.000 A 
ATOM     15  C   UNL     1      -1.596  12.328  20.930  0.00  0.00    +0.000 A 
ATOM     16  C   UNL     1      -1.395  12.240  22.318  0.00  0.00    +0.000 A 
ATOM     17  C   UNL     1      -2.449  12.439  23.213  0.00  0.00    +0.000 A 
BRANCH  12  18
ATOM     18  O   UNL     1      -4.708  12.944  23.644  0.00  0.00    +0.000 OA
ATOM     19  H   UNL     1      -5.523  12.528  23.319  0.00  0.00    +0.000 HD
ENDBRANCH  12  18
ENDBRANCH   1  15
BRANCH   1  20
ATOM     20  C   UNL     1       0.826  12.821  20.330  0.00  0.00    +0.000 A 
ATOM     21  N   UNL     1       1.640  12.421  21.297  0.00  0.00    +0.000 NA
ATOM     22  N   UNL     1       2.658  13.317  21.365  0.00  0.00    +0.000 NA
ATOM     23  N   UNL     1       2.503  14.274  20.475  0.00  0.00    +0.000 NA
ATOM     24  N   UNL     1       1.360  13.987  19.815  0.00  0.00    +0.000 N 
BRANCH  24  25
ATOM     25  C   UNL     1       0.940  14.941  18.812  0.00  0.00    +0.000 C 
ATOM     26  C   UNL     1      -0.392  15.646  19.048  0.00  0.00    +0.000 C 
ATOM     27  C   UNL     1      -0.252  17.033  18.440  0.00  0.00    +0.000 C 
ATOM     28  C   UNL     1       1.234  17.323  18.304  0.00  0.00    +0.000 C 
ATOM     29  C   UNL     1       1.980  16.008  18.472  0.00  0.00    +0.000 C 
ENDBRANCH  24  25
ENDBRANCH   1  20
TORSDOF 5
ENDMDL
MODEL 4
REMARK VINA RESULT:      -7.1      3.086      6.767
REMARK  Name = 
REMARK  5 active torsions:
REMARK  status: ('A' for Active; 'I' for Inactive)
REMARK    1  A    between atoms: O_1  and  C_2
REMARK    2  A    between atoms: C_5  and  C_6
REMARK    3  A    between atoms: C_6  and  C_7
REMARK    4  A    between atoms: C_6  and  N_17
REMARK    5  A    between atoms: N_11  and  C_12
REMARK                            x       y       z     vdW  Elec       q    Type
REMARK                         _______ _______ _______ _____ _____    ______ ____
ROOT
ATOM      1  C   UNL     1       0.540  11.900  19.052  0.00  0.00    +0.000 C 
ENDROOT
BRANCH   1   2
ATOM      2  N   UNL     1       1.472  10.764  19.281  0.00  0.00    +0.000 NA
ATOM      3  C   UNL     1       2.364  10.399  18.184  0.00  0.00    +0.000 C 
ATOM      4  C   UNL     1       2.153   9.013  17.556  0.00  0.00    +0.000 C 
ATOM      5  C   UNL     1       2.055   7.941  18.603  0.00  0.00    +0.000 A 
ATOM      6  C   UNL     1       2.387   6.607  18.320  0.00  0.00    +0.000 A 
ATOM      7  C   UNL     1       2.255   5.623  19.300  0.00  0.00    +0.000 A 
ATOM      8  C   UNL     1       1.799   5.966  20.570  0.00  0.00    +0.000 A 
ATOM      9  C   UNL     1       1.450   7.287  20.850  0.00  0.00    +0.000 A 
ATOM     10  C   UNL     1       1.562   8.284  19.867  0.00  0.00    +0.000 A 
ATOM     11  C   UNL     1       1.001   9.665  20.134  0.00  0.00    +0.000 C 
ENDBRANCH   1   2
BRANCH   1  15
ATOM     12  C   UNL     1      -3.548  10.739  18.136  0.00  0.00    +0.000 A 
ATOM     13  C   UNL     1      -3.303  11.835  18.952  0.00  0.00    +0.000 A 
ATOM     14  C   UNL     1      -1.983  12.206  19.234  0.00  0.00    +0.000 A 
ATOM     15  C   UNL     1      -0.896  11.475  18.715  0.00  0.00    +0.000 A 
ATOM     16  C   UNL     1      -1.180  10.371  17.894  0.00  0.00    +0.000 A 
ATOM     17  C   UNL     1      -2.497  10.008  17.602  0.00  0.00    +0.000 A 
BRANCH  12  18
ATOM     18  O   UNL     1      -4.816  10.338  17.839  0.00  0.00    +0.000 OA
ATOM     19  H   UNL     1      -5.360  10.394  18.642  0.00  0.00    +0.000 HD
ENDBRANCH  12  18
ENDBRANCH   1  15
BRANCH   1  20
ATOM     20  C   UNL     1       0.593  12.952  20.154  0.00  0.00    +0.000 A 
ATOM     21  N   UNL     1       0.637  12.690  21.452  0.00  0.00    +0.000 NA
ATOM     22  N   UNL     1       0.661  13.881  22.105  0.00  0.00    +0.000 NA
ATOM     23  N   UNL     1       0.623  14.884  21.254  0.00  0.00    +0.000 NA
ATOM     24  N   UNL     1       0.579  14.328  20.024  0.00  0.00    +0.000 N 
BRANCH  24  25
ATOM     25  C   UNL     1       0.471  15.242  18.909  0.00  0.00    +0.000 C 
ATOM     26  C   UNL     1      -0.630  16.296  18.987  0.00  0.00    +0.000 C 
ATOM     27  C   UNL     1      -0.097  17.521  18.260  0.00  0.00    +0.000 C 
ATOM     28  C   UNL     1       1.417  17.391  18.196  0.00  0.00    +0.000 C 
ATOM     29  C   UNL     1       1.773  15.952  18.538  0.00  0.00    +0.000 C 
ENDBRANCH  24  25
ENDBRANCH   1  20
TORSDOF 5
ENDMDL
MODEL 5
REMARK VINA RESULT:      -7.0      3.181      5.269
REMARK  Name = 
REMARK  5 active torsions:
REMARK  status: ('A' for Active; 'I' for Inactive)
REMARK    1  A    between atoms: O_1  and  C_2
REMARK    2  A    between atoms: C_5  and  C_6
REMARK    3  A    between atoms: C_6  and  C_7
REMARK    4  A    between atoms: C_6  and  N_17
REMARK    5  A    between atoms: N_11  and  C_12
REMARK                            x       y       z     vdW  Elec       q    Type
REMARK                         _______ _______ _______ _____ _____    ______ ____
ROOT
ATOM      1  C   UNL     1       0.211  10.764  18.957  0.00  0.00    +0.000 C 
ENDROOT
BRANCH   1   2
ATOM      2  N   UNL     1      -1.238  10.517  18.724  0.00  0.00    +0.000 NA
ATOM      3  C   UNL     1      -1.624   9.981  17.422  0.00  0.00    +0.000 C 
ATOM      4  C   UNL     1      -2.487  10.888  16.532  0.00  0.00    +0.000 C 
ATOM      5  C   UNL     1      -3.650  11.461  17.290  0.00  0.00    +0.000 A 
ATOM      6  C   UNL     1      -4.828  11.856  16.636  0.00  0.00    +0.000 A 
ATOM      7  C   UNL     1      -5.882  12.418  17.359  0.00  0.00    +0.000 A 
ATOM      8  C   UNL     1      -5.769  12.581  18.737  0.00  0.00    +0.000 A 
ATOM      9  C   UNL     1      -4.593  12.206  19.387  0.00  0.00    +0.000 A 
ATOM     10  C   UNL     1      -3.519  11.656  18.669  0.00  0.00    +0.000 A 
ATOM     11  C   UNL     1      -2.190  11.435  19.362  0.00  0.00    +0.000 C 
ENDBRANCH   1   2
BRANCH   1  15
ATOM     12  C   UNL     1       1.440  14.918  18.600  0.00  0.00    +0.000 A 
ATOM     13  C   UNL     1       2.373  13.901  18.443  0.00  0.00    +0.000 A 
ATOM     14  C   UNL     1       1.965  12.567  18.552  0.00  0.00    +0.000 A 
ATOM     15  C   UNL     1       0.624  12.236  18.832  0.00  0.00    +0.000 A 
ATOM     16  C   UNL     1      -0.293  13.290  18.987  0.00  0.00    +0.000 A 
ATOM     17  C   UNL     1       0.111  14.622  18.865  0.00  0.00    +0.000 A 
BRANCH  12  18
ATOM     18  O   UNL     1       1.792  16.232  18.508  0.00  0.00    +0.000 OA
ATOM     19  H   UNL     1       2.623  16.300  18.011  0.00  0.00    +0.000 HD
ENDBRANCH  12  18
ENDBRANCH   1  15
BRANCH   1  20
ATOM     20  C   UNL     1       0.732  10.118  20.236  0.00  0.00    +0.000 A 
ATOM     21  N   UNL     1       0.760  10.703  21.425  0.00  0.00    +0.000 NA
ATOM     22  N   UNL     1       1.302   9.817  22.299  0.00  0.00    +0.000 NA
ATOM     23  N   UNL     1       1.626   8.695  21.691  0.00  0.00    +0.000 NA
ATOM     24  N   UNL     1       1.280   8.860  20.396  0.00  0.00    +0.000 N 
BRANCH  24  25
ATOM     25  C   UNL     1       1.596   7.767  19.503  0.00  0.00    +0.000 C 
ATOM     26  C   UNL     1       2.485   8.093  18.306  0.00  0.00    +0.000 C 
ATOM     27  C   UNL     1       3.301   6.839  18.030  0.00  0.00    +0.000 C 
ATOM     28  C   UNL     1       3.276   5.991  19.292  0.00  0.00    +0.000 C 
ATOM     29  C   UNL     1       2.169   6.527  20.188  0.00  0.00    +0.000 C 
ENDBRANCH  24  25
ENDBRANCH   1  20
TORSDOF 5
ENDMDL
MODEL 6
REMARK VINA RESULT:      -6.9      3.665      7.346
REMARK  Name = 
REMARK  5 active torsions:
REMARK  status: ('A' for Active; 'I' for Inactive)
REMARK    1  A    between atoms: O_1  and  C_2
REMARK    2  A    between atoms: C_5  and  C_6
REMARK    3  A    between atoms: C_6  and  C_7
REMARK    4  A    between atoms: C_6  and  N_17
REMARK    5  A    between atoms: N_11  and  C_12
REMARK                            x       y       z     vdW  Elec       q    Type
REMARK                         _______ _______ _______ _____ _____    ______ ____
ROOT
ATOM      1  C   UNL     1      -0.111  11.507  20.424  0.00  0.00    +0.000 C 
ENDROOT
BRANCH   1   2
ATOM      2  N   UNL     1       0.087  10.122  19.916  0.00  0.00    +0.000 NA
ATOM      3  C   UNL     1      -0.183   9.026  20.842  0.00  0.00    +0.000 C 
ATOM      4  C   UNL     1       1.017   8.157  21.249  0.00  0.00    +0.000 C 
ATOM      5  C   UNL     1       1.814   7.721  20.053  0.00  0.00    +0.000 A 
ATOM      6  C   UNL     1       2.589   6.552  20.076  0.00  0.00    +0.000 A 
ATOM      7  C   UNL     1       3.349   6.186  18.963  0.00  0.00    +0.000 A 
ATOM      8  C   UNL     1       3.332   6.981  17.820  0.00  0.00    +0.000 A 
ATOM      9  C   UNL     1       2.577   8.154  17.800  0.00  0.00    +0.000 A 
ATOM     10  C   UNL     1       1.822   8.541  18.919  0.00  0.00    +0.000 A 
ATOM     11  C   UNL     1       1.166   9.907  18.944  0.00  0.00    +0.000 C 
ENDBRANCH   1   2
BRANCH   1  15
ATOM     12  C   UNL     1       2.855  14.366  19.033  0.00  0.00    +0.000 A 
ATOM     13  C   UNL     1       2.937  13.849  20.319  0.00  0.00    +0.000 A 
ATOM     14  C   UNL     1       1.982  12.923  20.754  0.00  0.00    +0.000 A 
ATOM     15  C   UNL     1       0.927  12.516  19.913  0.00  0.00    +0.000 A 
ATOM     16  C   UNL     1       0.873  13.059  18.619  0.00  0.00    +0.000 A 
ATOM     17  C   UNL     1       1.834  13.974  18.179  0.00  0.00    +0.000 A 
BRANCH  12  18
ATOM     18  O   UNL     1       3.759  15.274  18.569  0.00  0.00    +0.000 OA
ATOM     19  H   UNL     1       4.406  14.815  18.010  0.00  0.00    +0.000 HD
ENDBRANCH  12  18
ENDBRANCH   1  15
BRANCH   1  20
ATOM     20  C   UNL     1      -1.541  12.008  20.258  0.00  0.00    +0.000 A 
ATOM     21  N   UNL     1      -2.152  12.845  21.084  0.00  0.00    +0.000 NA
ATOM     22  N   UNL     1      -3.409  13.038  20.607  0.00  0.00    +0.000 NA
ATOM     23  N   UNL     1      -3.609  12.338  19.511  0.00  0.00    +0.000 NA
ATOM     24  N   UNL     1      -2.452  11.682  19.272  0.00  0.00    +0.000 N 
BRANCH  24  25
ATOM     25  C   UNL     1      -2.444  10.788  18.135  0.00  0.00    +0.000 C 
ATOM     26  C   UNL     1      -3.755  10.081  17.807  0.00  0.00    +0.000 C 
ATOM     27  C   UNL     1      -3.776   9.905  16.296  0.00  0.00    +0.000 C 
ATOM     28  C   UNL     1      -2.785  10.897  15.708  0.00  0.00    +0.000 C 
ATOM     29  C   UNL     1      -1.908  11.404  16.843  0.00  0.00    +0.000 C 
ENDBRANCH  24  25
ENDBRANCH   1  20
TORSDOF 5
ENDMDL
MODEL 7
REMARK VINA RESULT:      -6.9      7.330      9.984
REMARK  Name = 
REMARK  5 active torsions:
REMARK  status: ('A' for Active; 'I' for Inactive)
REMARK    1  A    between atoms: O_1  and  C_2
REMARK    2  A    between atoms: C_5  and  C_6
REMARK    3  A    between atoms: C_6  and  C_7
REMARK    4  A    between atoms: C_6  and  N_17
REMARK    5  A    between atoms: N_11  and  C_12
REMARK                            x       y       z     vdW  Elec       q    Type
REMARK                         _______ _______ _______ _____ _____    ______ ____
ROOT
ATOM      1  C   UNL     1       4.067   4.824  18.082  0.00  0.00    +0.000 C 
ENDROOT
BRANCH   1   2
ATOM      2  N   UNL     1       3.775   6.140  18.712  0.00  0.00    +0.000 NA
ATOM      3  C   UNL     1       3.368   6.134  20.114  0.00  0.00    +0.000 C 
ATOM      4  C   UNL     1       1.940   6.609  20.420  0.00  0.00    +0.000 C 
ATOM      5  C   UNL     1       1.631   7.909  19.733  0.00  0.00    +0.000 A 
ATOM      6  C   UNL     1       0.663   8.791  20.236  0.00  0.00    +0.000 A 
ATOM      7  C   UNL     1       0.369   9.977  19.561  0.00  0.00    +0.000 A 
ATOM      8  C   UNL     1       1.046  10.292  18.386  0.00  0.00    +0.000 A 
ATOM      9  C   UNL     1       1.997   9.408  17.873  0.00  0.00    +0.000 A 
ATOM     10  C   UNL     1       2.288   8.204  18.534  0.00  0.00    +0.000 A 
ATOM     11  C   UNL     1       3.178   7.178  17.862  0.00  0.00    +0.000 C 
ENDBRANCH   1   2
BRANCH   1  15
ATOM     12  C   UNL     1       6.712   5.100  14.643  0.00  0.00    +0.000 A 
ATOM     13  C   UNL     1       6.986   5.831  15.792  0.00  0.00    +0.000 A 
ATOM     14  C   UNL     1       6.132   5.729  16.896  0.00  0.00    +0.000 A 
ATOM     15  C   UNL     1       4.990   4.906  16.858  0.00  0.00    +0.000 A 
ATOM     16  C   UNL     1       4.742   4.181  15.681  0.00  0.00    +0.000 A 
ATOM     17  C   UNL     1       5.601   4.273  14.583  0.00  0.00    +0.000 A 
BRANCH  12  18
ATOM     18  O   UNL     1       7.512   5.172  13.542  0.00  0.00    +0.000 OA
ATOM     19  H   UNL     1       8.406   4.880  13.783  0.00  0.00    +0.000 HD
ENDBRANCH  12  18
ENDBRANCH   1  15
BRANCH   1  20
ATOM     20  C   UNL     1       4.519   3.767  19.083  0.00  0.00    +0.000 A 
ATOM     21  N   UNL     1       5.765   3.604  19.506  0.00  0.00    +0.000 NA
ATOM     22  N   UNL     1       5.764   2.559  20.373  0.00  0.00    +0.000 NA
ATOM     23  N   UNL     1       4.556   2.054  20.500  0.00  0.00    +0.000 NA
ATOM     24  N   UNL     1       3.757   2.792  19.700  0.00  0.00    +0.000 N 
BRANCH  24  25
ATOM     25  C   UNL     1       2.371   2.386  19.623  0.00  0.00    +0.000 C 
ATOM     26  C   UNL     1       1.405   3.051  20.600  0.00  0.00    +0.000 C 
ATOM     27  C   UNL     1       0.067   3.136  19.881  0.00  0.00    +0.000 C 
ATOM     28  C   UNL     1       0.340   3.000  18.391  0.00  0.00    +0.000 C 
ATOM     29  C   UNL     1       1.757   2.471  18.226  0.00  0.00    +0.000 C 
ENDBRANCH  24  25
ENDBRANCH   1  20
TORSDOF 5
ENDMDL
MODEL 8
REMARK VINA RESULT:      -6.9      7.182      9.836
REMARK  Name = 
REMARK  5 active torsions:
REMARK  status: ('A' for Active; 'I' for Inactive)
REMARK    1  A    between atoms: O_1  and  C_2
REMARK    2  A    between atoms: C_5  and  C_6
REMARK    3  A    between atoms: C_6  and  C_7
REMARK    4  A    between atoms: C_6  and  N_17
REMARK    5  A    between atoms: N_11  and  C_12
REMARK                            x       y       z     vdW  Elec       q    Type
REMARK                         _______ _______ _______ _____ _____    ______ ____
ROOT
ATOM      1  C   UNL     1       4.413   4.907  18.067  0.00  0.00    +0.000 C 
ENDROOT
BRANCH   1   2
ATOM      2  N   UNL     1       4.101   6.263  18.594  0.00  0.00    +0.000 NA
ATOM      3  C   UNL     1       3.756   6.367  20.009  0.00  0.00    +0.000 C 
ATOM      4  C   UNL     1       2.326   6.820  20.338  0.00  0.00    +0.000 C 
ATOM      5  C   UNL     1       1.940   8.043  19.557  0.00  0.00    +0.000 A 
ATOM      6  C   UNL     1       0.963   8.934  20.027  0.00  0.00    +0.000 A 
ATOM      7  C   UNL     1       0.597  10.046  19.266  0.00  0.00    +0.000 A 
ATOM      8  C   UNL     1       1.210  10.279  18.038  0.00  0.00    +0.000 A 
ATOM      9  C   UNL     1       2.169   9.385  17.560  0.00  0.00    +0.000 A 
ATOM     10  C   UNL     1       2.533   8.254  18.308  0.00  0.00    +0.000 A 
ATOM     11  C   UNL     1       3.430   7.203  17.687  0.00  0.00    +0.000 C 
ENDBRANCH   1   2
BRANCH   1  15
ATOM     12  C   UNL     1       1.197   2.011  18.471  0.00  0.00    +0.000 A 
ATOM     13  C   UNL     1       2.510   1.631  18.716  0.00  0.00    +0.000 A 
ATOM     14  C   UNL     1       3.537   2.573  18.591  0.00  0.00    +0.000 A 
ATOM     15  C   UNL     1       3.263   3.901  18.206  0.00  0.00    +0.000 A 
ATOM     16  C   UNL     1       1.924   4.251  17.964  0.00  0.00    +0.000 A 
ATOM     17  C   UNL     1       0.897   3.314  18.102  0.00  0.00    +0.000 A 
BRANCH  12  18
ATOM     18  O   UNL     1       0.165   1.126  18.575  0.00  0.00    +0.000 OA
ATOM     19  H   UNL     1       0.347   0.516  19.307  0.00  0.00    +0.000 HD
ENDBRANCH  12  18
ENDBRANCH   1  15
BRANCH   1  20
ATOM     20  C   UNL     1       5.000   4.931  16.660  0.00  0.00    +0.000 A 
ATOM     21  N   UNL     1       4.391   4.475  15.575  0.00  0.00    +0.000 NA
ATOM     22  N   UNL     1       5.236   4.660  14.528  0.00  0.00    +0.000 NA
ATOM     23  N   UNL     1       6.364   5.209  14.926  0.00  0.00    +0.000 NA
ATOM     24  N   UNL     1       6.241   5.387  16.259  0.00  0.00    +0.000 N 
BRANCH  24  25
ATOM     25  C   UNL     1       7.394   5.931  16.943  0.00  0.00    +0.000 C 
ATOM     26  C   UNL     1       7.375   7.428  17.239  0.00  0.00    +0.000 C 
ATOM     27  C   UNL     1       8.143   7.612  18.539  0.00  0.00    +0.000 C 
ATOM     28  C   UNL     1       8.179   6.265  19.243  0.00  0.00    +0.000 C 
ATOM     29  C   UNL     1       7.773   5.203  18.232  0.00  0.00    +0.000 C 
ENDBRANCH  24  25
ENDBRANCH   1  20
TORSDOF 5
ENDMDL
MODEL 9
REMARK VINA RESULT:      -6.9      3.507      7.247
REMARK  Name = 
REMARK  5 active torsions:
REMARK  status: ('A' for Active; 'I' for Inactive)
REMARK    1  A    between atoms: O_1  and  C_2
REMARK    2  A    between atoms: C_5  and  C_6
REMARK    3  A    between atoms: C_6  and  C_7
REMARK    4  A    between atoms: C_6  and  N_17
REMARK    5  A    between atoms: N_11  and  C_12
REMARK                            x       y       z     vdW  Elec       q    Type
REMARK                         _______ _______ _______ _____ _____    ______ ____
ROOT
ATOM      1  C   UNL     1      -0.368  11.781  20.630  0.00  0.00    +0.000 C 
ENDROOT
BRANCH   1   2
ATOM      2  N   UNL     1      -0.163  10.419  20.067  0.00  0.00    +0.000 NA
ATOM      3  C   UNL     1      -0.364   9.287  20.968  0.00  0.00    +0.000 C 
ATOM      4  C   UNL     1       0.873   8.435  21.289  0.00  0.00    +0.000 C 
ATOM      5  C   UNL     1       1.623   8.058  20.043  0.00  0.00    +0.000 A 
ATOM      6  C   UNL     1       2.425   6.907  19.991  0.00  0.00    +0.000 A 
ATOM      7  C   UNL     1       3.139   6.597  18.833  0.00  0.00    +0.000 A 
ATOM      8  C   UNL     1       3.049   7.427  17.719  0.00  0.00    +0.000 A 
ATOM      9  C   UNL     1       2.267   8.581  17.773  0.00  0.00    +0.000 A 
ATOM     10  C   UNL     1       1.558   8.914  18.938  0.00  0.00    +0.000 A 
ATOM     11  C   UNL     1       0.873  10.261  19.039  0.00  0.00    +0.000 C 
ENDBRANCH   1   2
BRANCH   1  15
ATOM     12  C   UNL     1       2.531  14.720  19.269  0.00  0.00    +0.000 A 
ATOM     13  C   UNL     1       1.286  14.639  18.660  0.00  0.00    +0.000 A 
ATOM     14  C   UNL     1       0.357  13.695  19.111  0.00  0.00    +0.000 A 
ATOM     15  C   UNL     1       0.669  12.813  20.165  0.00  0.00    +0.000 A 
ATOM     16  C   UNL     1       1.938  12.921  20.757  0.00  0.00    +0.000 A 
ATOM     17  C   UNL     1       2.861  13.873  20.315  0.00  0.00    +0.000 A 
BRANCH  12  18
ATOM     18  O   UNL     1       3.469  15.621  18.859  0.00  0.00    +0.000 OA
ATOM     19  H   UNL     1       3.025  16.350  18.397  0.00  0.00    +0.000 HD
ENDBRANCH  12  18
ENDBRANCH   1  15
BRANCH   1  20
ATOM     20  C   UNL     1      -1.799  12.284  20.478  0.00  0.00    +0.000 A 
ATOM     21  N   UNL     1      -2.400  13.127  21.306  0.00  0.00    +0.000 NA
ATOM     22  N   UNL     1      -3.662  13.319  20.843  0.00  0.00    +0.000 NA
ATOM     23  N   UNL     1      -3.875  12.612  19.753  0.00  0.00    +0.000 NA
ATOM     24  N   UNL     1      -2.723  11.953  19.505  0.00  0.00    +0.000 N 
BRANCH  24  25
ATOM     25  C   UNL     1      -2.729  11.052  18.374  0.00  0.00    +0.000 C 
ATOM     26  C   UNL     1      -4.093  10.572  17.885  0.00  0.00    +0.000 C 
ATOM     27  C   UNL     1      -3.960  10.377  16.382  0.00  0.00    +0.000 C 
ATOM     28  C   UNL     1      -2.751  11.177  15.924  0.00  0.00    +0.000 C 
ATOM     29  C   UNL     1      -1.944  11.546  17.159  0.00  0.00    +0.000 C 
ENDBRANCH  24  25
ENDBRANCH   1  20
TORSDOF 5
ENDMDL
