MODEL 1
REMARK VINA RESULT:      -6.9      0.000      0.000
REMARK  Name = 
REMARK  8 active torsions:
REMARK  status: ('A' for Active; 'I' for Inactive)
REMARK    1  A    between atoms: C_1  and  C_2
REMARK    2  A    between atoms: C_8  and  S_9
REMARK    3  A    between atoms: S_9  and  C_10
REMARK    4  A    between atoms: C_10  and  C_11
REMARK    5  A    between atoms: C_11  and  O_13
REMARK    6  A    between atoms: O_13  and  C_14
REMARK    7  A    between atoms: C_14  and  C_15
REMARK    8  A    between atoms: N_17  and  C_18
REMARK                            x       y       z     vdW  Elec       q    Type
REMARK                         _______ _______ _______ _____ _____    ______ ____
ROOT
ATOM      1  C   UNL     1       1.889   3.551  20.416  0.00  0.00    +0.000 C 
ATOM      2  O   UNL     1       0.799   3.046  20.175  0.00  0.00    +0.000 OA
ENDROOT
BRANCH   1   3
ATOM      3  C   UNL     1       2.159   4.951  20.952  0.00  0.00    +0.000 C 
BRANCH   3   4
ATOM      4  S   UNL     1       2.749   6.065  19.627  0.00  0.00    +0.000 S 
BRANCH   4  12
ATOM      5  C   UNL     1       2.349   8.617  17.654  0.00  0.00    +0.000 C 
ATOM      6  C   UNL     1       1.727   8.642  19.023  0.00  0.00    +0.000 A 
ATOM      7  C   UNL     1       1.079   9.829  19.428  0.00  0.00    +0.000 A 
ATOM      8  C   UNL     1       0.532   9.946  20.704  0.00  0.00    +0.000 A 
ATOM      9 BR   UNL     1      -0.280  11.570  21.232  0.00  0.00    +0.000 Br
ATOM     10  C   UNL     1       0.605   8.884  21.595  0.00  0.00    +0.000 A 
ATOM     11  C   UNL     1       1.238   7.700  21.205  0.00  0.00    +0.000 A 
ATOM     12  C   UNL     1       1.801   7.561  19.923  0.00  0.00    +0.000 A 
ENDBRANCH   4  12
ENDBRANCH   3   4
ENDBRANCH   1   3
BRANCH   1  13
ATOM     13  O   UNL     1       3.077   2.900  20.234  0.00  0.00    +0.000 OA
BRANCH  13  14
ATOM     14  C   UNL     1       3.121   2.018  19.111  0.00  0.00    +0.000 C 
BRANCH  14  15
ATOM     15  C   UNL     1       3.197   2.765  17.776  0.00  0.00    +0.000 C 
ATOM     16  O   UNL     1       2.208   2.941  17.069  0.00  0.00    +0.000 OA
ATOM     17  N   UNL     1       4.459   3.220  17.455  0.00  0.00    +0.000 N 
ATOM     18  H   UNL     1       5.117   3.303  18.230  0.00  0.00    +0.000 HD
BRANCH  17  19
ATOM     19  C   UNL     1       4.690   4.046  16.289  0.00  0.00    +0.000 C 
ATOM     20  C   UNL     1       4.782   5.531  16.624  0.00  0.00    +0.000 C 
ATOM     21  C   UNL     1       5.464   6.134  15.401  0.00  0.00    +0.000 C 
ATOM     22  C   UNL     1       6.331   5.022  14.811  0.00  0.00    +0.000 C 
ATOM     23  C   UNL     1       6.037   3.769  15.632  0.00  0.00    +0.000 C 
ENDBRANCH  17  19
ENDBRANCH  14  15
ENDBRANCH  13  14
ENDBRANCH   1  13
TORSDOF 7
ENDMDL
MODEL 2
REMARK VINA RESULT:      -6.7      0.802      1.361
REMARK  Name = 
REMARK  8 active torsions:
REMARK  status: ('A' for Active; 'I' for Inactive)
REMARK    1  A    between atoms: C_1  and  C_2
REMARK    2  A    between atoms: C_8  and  S_9
REMARK    3  A    between atoms: S_9  and  C_10
REMARK    4  A    between atoms: C_10  and  C_11
REMARK    5  A    between atoms: C_11  and  O_13
REMARK    6  A    between atoms: O_13  and  C_14
REMARK    7  A    between atoms: C_14  and  C_15
REMARK    8  A    between atoms: N_17  and  C_18
REMARK                            x       y       z     vdW  Elec       q    Type
REMARK                         _______ _______ _______ _____ _____    ______ ____
ROOT
ATOM      1  C   UNL     1       1.824   3.605  20.125  0.00  0.00    +0.000 C 
ATOM      2  O   UNL     1       0.964   3.180  19.362  0.00  0.00    +0.000 OA
ENDROOT
BRANCH   1   3
ATOM      3  C   UNL     1       1.899   4.991  20.752  0.00  0.00    +0.000 C 
BRANCH   3   4
ATOM      4  S   UNL     1       2.663   6.195  19.605  0.00  0.00    +0.000 S 
BRANCH   4  12
ATOM      5  C   UNL     1       2.211   8.761  17.662  0.00  0.00    +0.000 C 
ATOM      6  C   UNL     1       1.640   8.783  19.053  0.00  0.00    +0.000 A 
ATOM      7  C   UNL     1       1.017   9.973  19.487  0.00  0.00    +0.000 A 
ATOM      8  C   UNL     1       0.517  10.087  20.782  0.00  0.00    +0.000 A 
ATOM      9 BR   UNL     1      -0.262  11.714  21.348  0.00  0.00    +0.000 Br
ATOM     10  C   UNL     1       0.613   9.019  21.665  0.00  0.00    +0.000 A 
ATOM     11  C   UNL     1       1.222   7.833  21.245  0.00  0.00    +0.000 A 
ATOM     12  C   UNL     1       1.738   7.696  19.943  0.00  0.00    +0.000 A 
ENDBRANCH   4  12
ENDBRANCH   3   4
ENDBRANCH   1   3
BRANCH   1  13
ATOM     13  O   UNL     1       2.890   2.860  20.548  0.00  0.00    +0.000 OA
BRANCH  13  14
ATOM     14  C   UNL     1       3.678   2.281  19.505  0.00  0.00    +0.000 C 
BRANCH  14  15
ATOM     15  C   UNL     1       4.674   3.274  18.898  0.00  0.00    +0.000 C 
ATOM     16  O   UNL     1       5.526   3.842  19.575  0.00  0.00    +0.000 OA
ATOM     17  N   UNL     1       4.529   3.458  17.538  0.00  0.00    +0.000 N 
ATOM     18  H   UNL     1       4.027   2.725  17.037  0.00  0.00    +0.000 HD
BRANCH  17  19
ATOM     19  C   UNL     1       5.460   4.270  16.783  0.00  0.00    +0.000 C 
ATOM     20  C   UNL     1       5.844   3.642  15.447  0.00  0.00    +0.000 C 
ATOM     21  C   UNL     1       6.417   4.810  14.653  0.00  0.00    +0.000 C 
ATOM     22  C   UNL     1       5.725   6.064  15.189  0.00  0.00    +0.000 C 
ATOM     23  C   UNL     1       4.862   5.607  16.362  0.00  0.00    +0.000 C 
ENDBRANCH  17  19
ENDBRANCH  14  15
ENDBRANCH  13  14
ENDBRANCH   1  13
TORSDOF 7
ENDMDL
MODEL 3
REMARK VINA RESULT:      -6.6      5.746      7.367
REMARK  Name = 
REMARK  8 active torsions:
REMARK  status: ('A' for Active; 'I' for Inactive)
REMARK    1  A    between atoms: C_1  and  C_2
REMARK    2  A    between atoms: C_8  and  S_9
REMARK    3  A    between atoms: S_9  and  C_10
REMARK    4  A    between atoms: C_10  and  C_11
REMARK    5  A    between atoms: C_11  and  O_13
REMARK    6  A    between atoms: O_13  and  C_14
REMARK    7  A    between atoms: C_14  and  C_15
REMARK    8  A    between atoms: N_17  and  C_18
REMARK                            x       y       z     vdW  Elec       q    Type
REMARK                         _______ _______ _______ _____ _____    ______ ____
ROOT
ATOM      1  C   UNL     1       6.805   6.031  16.488  0.00  0.00    +0.000 C 
ATOM      2  O   UNL     1       5.873   6.077  15.693  0.00  0.00    +0.000 OA
ENDROOT
BRANCH   1   3
ATOM      3  C   UNL     1       7.084   4.947  17.521  0.00  0.00    +0.000 C 
BRANCH   3   4
ATOM      4  S   UNL     1       6.231   5.303  19.100  0.00  0.00    +0.000 S 
BRANCH   4  12
ATOM      5  C   UNL     1       3.422   6.598  18.101  0.00  0.00    +0.000 C 
ATOM      6  C   UNL     1       3.464   5.146  18.489  0.00  0.00    +0.000 A 
ATOM      7  C   UNL     1       2.246   4.434  18.500  0.00  0.00    +0.000 A 
ATOM      8  C   UNL     1       2.199   3.102  18.906  0.00  0.00    +0.000 A 
ATOM      9 BR   UNL     1       0.541   2.195  18.960  0.00  0.00    +0.000 Br
ATOM     10  C   UNL     1       3.361   2.449  19.294  0.00  0.00    +0.000 A 
ATOM     11  C   UNL     1       4.575   3.141  19.282  0.00  0.00    +0.000 A 
ATOM     12  C   UNL     1       4.646   4.487  18.880  0.00  0.00    +0.000 A 
ENDBRANCH   4  12
ENDBRANCH   3   4
ENDBRANCH   1   3
BRANCH   1  13
ATOM     13  O   UNL     1       7.777   6.989  16.564  0.00  0.00    +0.000 OA
BRANCH  13  14
ATOM     14  C   UNL     1       7.399   8.185  17.249  0.00  0.00    +0.000 C 
BRANCH  14  15
ATOM     15  C   UNL     1       8.397   8.579  18.342  0.00  0.00    +0.000 C 
ATOM     16  O   UNL     1       8.807   7.774  19.173  0.00  0.00    +0.000 OA
ATOM     17  N   UNL     1       8.790   9.901  18.297  0.00  0.00    +0.000 N 
ATOM     18  H   UNL     1       8.648  10.381  17.409  0.00  0.00    +0.000 HD
BRANCH  17  19
ATOM     19  C   UNL     1       9.815  10.414  19.181  0.00  0.00    +0.000 C 
ATOM     20  C   UNL     1      10.663  11.504  18.535  0.00  0.00    +0.000 C 
ATOM     21  C   UNL     1      11.324  12.197  19.721  0.00  0.00    +0.000 C 
ATOM     22  C   UNL     1      10.367  12.018  20.900  0.00  0.00    +0.000 C 
ATOM     23  C   UNL     1       9.236  11.122  20.400  0.00  0.00    +0.000 C 
ENDBRANCH  17  19
ENDBRANCH  14  15
ENDBRANCH  13  14
ENDBRANCH   1  13
TORSDOF 7
ENDMDL
MODEL 4
REMARK VINA RESULT:      -6.5      6.446      7.756
REMARK  Name = 
REMARK  8 active torsions:
REMARK  status: ('A' for Active; 'I' for Inactive)
REMARK    1  A    between atoms: C_1  and  C_2
REMARK    2  A    between atoms: C_8  and  S_9
REMARK    3  A    between atoms: S_9  and  C_10
REMARK    4  A    between atoms: C_10  and  C_11
REMARK    5  A    between atoms: C_11  and  O_13
REMARK    6  A    between atoms: O_13  and  C_14
REMARK    7  A    between atoms: C_14  and  C_15
REMARK    8  A    between atoms: N_17  and  C_18
REMARK                            x       y       z     vdW  Elec       q    Type
REMARK                         _______ _______ _______ _____ _____    ______ ____
ROOT
ATOM      1  C   UNL     1       7.919   7.867  18.017  0.00  0.00    +0.000 C 
ATOM      2  O   UNL     1       8.454   7.113  18.823  0.00  0.00    +0.000 OA
ENDROOT
BRANCH   1   3
ATOM      3  C   UNL     1       8.210   9.346  17.804  0.00  0.00    +0.000 C 
BRANCH   3   4
ATOM      4  S   UNL     1       9.236  10.021  19.160  0.00  0.00    +0.000 S 
BRANCH   4  12
ATOM      5  C   UNL     1      12.095  11.560  19.300  0.00  0.00    +0.000 C 
ATOM      6  C   UNL     1      10.907  12.270  18.711  0.00  0.00    +0.000 A 
ATOM      7  C   UNL     1      11.069  13.622  18.339  0.00  0.00    +0.000 A 
ATOM      8  C   UNL     1       9.997  14.360  17.843  0.00  0.00    +0.000 A 
ATOM      9 BR   UNL     1      10.235  16.184  17.405  0.00  0.00    +0.000 Br
ATOM     10  C   UNL     1       8.750  13.767  17.693  0.00  0.00    +0.000 A 
ATOM     11  C   UNL     1       8.578  12.427  18.052  0.00  0.00    +0.000 A 
ATOM     12  C   UNL     1       9.645  11.663  18.559  0.00  0.00    +0.000 A 
ENDBRANCH   4  12
ENDBRANCH   3   4
ENDBRANCH   1   3
BRANCH   1  13
ATOM     13  O   UNL     1       6.940   7.469  17.150  0.00  0.00    +0.000 OA
BRANCH  13  14
ATOM     14  C   UNL     1       7.028   6.110  16.717  0.00  0.00    +0.000 C 
BRANCH  14  15
ATOM     15  C   UNL     1       6.136   5.171  17.535  0.00  0.00    +0.000 C 
ATOM     16  O   UNL     1       6.589   4.440  18.412  0.00  0.00    +0.000 OA
ATOM     17  N   UNL     1       4.798   5.231  17.203  0.00  0.00    +0.000 N 
ATOM     18  H   UNL     1       4.496   6.071  16.709  0.00  0.00    +0.000 HD
BRANCH  17  19
ATOM     19  C   UNL     1       3.801   4.498  17.954  0.00  0.00    +0.000 C 
ATOM     20  C   UNL     1       2.424   5.154  17.906  0.00  0.00    +0.000 C 
ATOM     21  C   UNL     1       1.479   4.036  18.332  0.00  0.00    +0.000 C 
ATOM     22  C   UNL     1       2.157   2.730  17.917  0.00  0.00    +0.000 C 
ATOM     23  C   UNL     1       3.531   3.115  17.374  0.00  0.00    +0.000 C 
ENDBRANCH  17  19
ENDBRANCH  14  15
ENDBRANCH  13  14
ENDBRANCH   1  13
TORSDOF 7
ENDMDL
MODEL 5
REMARK VINA RESULT:      -6.4      2.460      3.900
REMARK  Name = 
REMARK  8 active torsions:
REMARK  status: ('A' for Active; 'I' for Inactive)
REMARK    1  A    between atoms: C_1  and  C_2
REMARK    2  A    between atoms: C_8  and  S_9
REMARK    3  A    between atoms: S_9  and  C_10
REMARK    4  A    between atoms: C_10  and  C_11
REMARK    5  A    between atoms: C_11  and  O_13
REMARK    6  A    between atoms: O_13  and  C_14
REMARK    7  A    between atoms: C_14  and  C_15
REMARK    8  A    between atoms: N_17  and  C_18
REMARK                            x       y       z     vdW  Elec       q    Type
REMARK                         _______ _______ _______ _____ _____    ______ ____
ROOT
ATOM      1  C   UNL     1       4.893   3.566  18.868  0.00  0.00    +0.000 C 
ATOM      2  O   UNL     1       4.955   2.870  19.876  0.00  0.00    +0.000 OA
ENDROOT
BRANCH   1   3
ATOM      3  C   UNL     1       4.167   3.245  17.569  0.00  0.00    +0.000 C 
BRANCH   3   4
ATOM      4  S   UNL     1       2.355   3.399  17.769  0.00  0.00    +0.000 S 
BRANCH   4  12
ATOM      5  C   UNL     1       1.420   3.438  20.882  0.00  0.00    +0.000 C 
ATOM      6  C   UNL     1       1.737   4.737  20.194  0.00  0.00    +0.000 A 
ATOM      7  C   UNL     1       1.511   5.931  20.911  0.00  0.00    +0.000 A 
ATOM      8  C   UNL     1       1.725   7.173  20.318  0.00  0.00    +0.000 A 
ATOM      9 BR   UNL     1       1.361   8.754  21.290  0.00  0.00    +0.000 Br
ATOM     10  C   UNL     1       2.181   7.253  19.009  0.00  0.00    +0.000 A 
ATOM     11  C   UNL     1       2.415   6.077  18.290  0.00  0.00    +0.000 A 
ATOM     12  C   UNL     1       2.202   4.812  18.867  0.00  0.00    +0.000 A 
ENDBRANCH   4  12
ENDBRANCH   3   4
ENDBRANCH   1   3
BRANCH   1  13
ATOM     13  O   UNL     1       5.494   4.789  18.760  0.00  0.00    +0.000 OA
BRANCH  13  14
ATOM     14  C   UNL     1       6.729   4.798  18.043  0.00  0.00    +0.000 C 
BRANCH  14  15
ATOM     15  C   UNL     1       6.589   5.375  16.631  0.00  0.00    +0.000 C 
ATOM     16  O   UNL     1       6.563   6.584  16.419  0.00  0.00    +0.000 OA
ATOM     17  N   UNL     1       6.504   4.421  15.637  0.00  0.00    +0.000 N 
ATOM     18  H   UNL     1       6.849   3.492  15.877  0.00  0.00    +0.000 HD
BRANCH  17  19
ATOM     19  C   UNL     1       6.486   4.790  14.237  0.00  0.00    +0.000 C 
ATOM     20  C   UNL     1       7.844   5.267  13.732  0.00  0.00    +0.000 C 
ATOM     21  C   UNL     1       7.724   5.152  12.217  0.00  0.00    +0.000 C 
ATOM     22  C   UNL     1       6.719   4.031  11.957  0.00  0.00    +0.000 C 
ATOM     23  C   UNL     1       6.188   3.606  13.324  0.00  0.00    +0.000 C 
ENDBRANCH  17  19
ENDBRANCH  14  15
ENDBRANCH  13  14
ENDBRANCH   1  13
TORSDOF 7
ENDMDL
MODEL 6
REMARK VINA RESULT:      -6.3      4.886      6.211
REMARK  Name = 
REMARK  8 active torsions:
REMARK  status: ('A' for Active; 'I' for Inactive)
REMARK    1  A    between atoms: C_1  and  C_2
REMARK    2  A    between atoms: C_8  and  S_9
REMARK    3  A    between atoms: S_9  and  C_10
REMARK    4  A    between atoms: C_10  and  C_11
REMARK    5  A    between atoms: C_11  and  O_13
REMARK    6  A    between atoms: O_13  and  C_14
REMARK    7  A    between atoms: C_14  and  C_15
REMARK    8  A    between atoms: N_17  and  C_18
REMARK                            x       y       z     vdW  Elec       q    Type
REMARK                         _______ _______ _______ _____ _____    ______ ____
ROOT
ATOM      1  C   UNL     1       6.538   5.407  16.329  0.00  0.00    +0.000 C 
ATOM      2  O   UNL     1       6.850   4.224  16.253  0.00  0.00    +0.000 OA
ENDROOT
BRANCH   1   3
ATOM      3  C   UNL     1       5.134   5.996  16.291  0.00  0.00    +0.000 C 
BRANCH   3   4
ATOM      4  S   UNL     1       4.000   5.073  17.389  0.00  0.00    +0.000 S 
BRANCH   4  12
ATOM      5  C   UNL     1       2.636   4.903  20.335  0.00  0.00    +0.000 C 
ATOM      6  C   UNL     1       2.598   6.204  19.582  0.00  0.00    +0.000 A 
ATOM      7  C   UNL     1       1.874   7.272  20.154  0.00  0.00    +0.000 A 
ATOM      8  C   UNL     1       1.745   8.488  19.486  0.00  0.00    +0.000 A 
ATOM      9 BR   UNL     1       0.722   9.878  20.257  0.00  0.00    +0.000 Br
ATOM     10  C   UNL     1       2.344   8.671  18.247  0.00  0.00    +0.000 A 
ATOM     11  C   UNL     1       3.070   7.624  17.673  0.00  0.00    +0.000 A 
ATOM     12  C   UNL     1       3.210   6.386  18.327  0.00  0.00    +0.000 A 
ENDBRANCH   4  12
ENDBRANCH   3   4
ENDBRANCH   1   3
BRANCH   1  13
ATOM     13  O   UNL     1       7.449   6.417  16.469  0.00  0.00    +0.000 OA
BRANCH  13  14
ATOM     14  C   UNL     1       6.995   7.543  17.223  0.00  0.00    +0.000 C 
BRANCH  14  15
ATOM     15  C   UNL     1       8.075   8.105  18.153  0.00  0.00    +0.000 C 
ATOM     16  O   UNL     1       8.635   7.411  18.997  0.00  0.00    +0.000 OA
ATOM     17  N   UNL     1       8.358   9.439  17.948  0.00  0.00    +0.000 N 
ATOM     18  H   UNL     1       8.082   9.823  17.044  0.00  0.00    +0.000 HD
BRANCH  17  19
ATOM     19  C   UNL     1       9.433  10.100  18.658  0.00  0.00    +0.000 C 
ATOM     20  C   UNL     1       9.824  11.435  18.032  0.00  0.00    +0.000 C 
ATOM     21  C   UNL     1      10.592  12.142  19.142  0.00  0.00    +0.000 C 
ATOM     22  C   UNL     1      10.030  11.598  20.456  0.00  0.00    +0.000 C 
ATOM     23  C   UNL     1       9.039  10.501  20.075  0.00  0.00    +0.000 C 
ENDBRANCH  17  19
ENDBRANCH  14  15
ENDBRANCH  13  14
ENDBRANCH   1  13
TORSDOF 7
ENDMDL
MODEL 7
REMARK VINA RESULT:      -6.3      1.159      1.436
REMARK  Name = 
REMARK  8 active torsions:
REMARK  status: ('A' for Active; 'I' for Inactive)
REMARK    1  A    between atoms: C_1  and  C_2
REMARK    2  A    between atoms: C_8  and  S_9
REMARK    3  A    between atoms: S_9  and  C_10
REMARK    4  A    between atoms: C_10  and  C_11
REMARK    5  A    between atoms: C_11  and  O_13
REMARK    6  A    between atoms: O_13  and  C_14
REMARK    7  A    between atoms: C_14  and  C_15
REMARK    8  A    between atoms: N_17  and  C_18
REMARK                            x       y       z     vdW  Elec       q    Type
REMARK                         _______ _______ _______ _____ _____    ______ ____
ROOT
ATOM      1  C   UNL     1       1.636   3.908  20.775  0.00  0.00    +0.000 C 
ATOM      2  O   UNL     1       2.339   3.758  21.768  0.00  0.00    +0.000 OA
ENDROOT
BRANCH   1   3
ATOM      3  C   UNL     1       1.075   5.215  20.231  0.00  0.00    +0.000 C 
BRANCH   3   4
ATOM      4  S   UNL     1       2.413   6.410  19.872  0.00  0.00    +0.000 S 
BRANCH   4  12
ATOM      5  C   UNL     1       1.862   8.786  17.723  0.00  0.00    +0.000 C 
ATOM      6  C   UNL     1       1.459   8.985  19.159  0.00  0.00    +0.000 A 
ATOM      7  C   UNL     1       0.950  10.249  19.527  0.00  0.00    +0.000 A 
ATOM      8  C   UNL     1       0.611  10.526  20.850  0.00  0.00    +0.000 A 
ATOM      9 BR   UNL     1      -0.017  12.246  21.319  0.00  0.00    +0.000 Br
ATOM     10  C   UNL     1       0.758   9.550  21.827  0.00  0.00    +0.000 A 
ATOM     11  C   UNL     1       1.256   8.292  21.474  0.00  0.00    +0.000 A 
ATOM     12  C   UNL     1       1.608   7.992  20.145  0.00  0.00    +0.000 A 
ENDBRANCH   4  12
ENDBRANCH   3   4
ENDBRANCH   1   3
BRANCH   1  13
ATOM     13  O   UNL     1       1.236   2.876  19.974  0.00  0.00    +0.000 OA
BRANCH  13  14
ATOM     14  C   UNL     1       1.572   3.015  18.592  0.00  0.00    +0.000 C 
BRANCH  14  15
ATOM     15  C   UNL     1       3.066   2.813  18.324  0.00  0.00    +0.000 C 
ATOM     16  O   UNL     1       3.676   1.829  18.734  0.00  0.00    +0.000 OA
ATOM     17  N   UNL     1       3.648   3.822  17.584  0.00  0.00    +0.000 N 
ATOM     18  H   UNL     1       3.011   4.403  17.039  0.00  0.00    +0.000 HD
BRANCH  17  19
ATOM     19  C   UNL     1       5.024   3.735  17.139  0.00  0.00    +0.000 C 
ATOM     20  C   UNL     1       5.247   4.380  15.776  0.00  0.00    +0.000 C 
ATOM     21  C   UNL     1       6.756   4.589  15.720  0.00  0.00    +0.000 C 
ATOM     22  C   UNL     1       7.212   4.753  17.170  0.00  0.00    +0.000 C 
ATOM     23  C   UNL     1       5.979   4.513  18.037  0.00  0.00    +0.000 C 
ENDBRANCH  17  19
ENDBRANCH  14  15
ENDBRANCH  13  14
ENDBRANCH   1  13
TORSDOF 7
ENDMDL
MODEL 8
REMARK VINA RESULT:      -6.3      6.066      7.522
REMARK  Name = 
REMARK  8 active torsions:
REMARK  status: ('A' for Active; 'I' for Inactive)
REMARK    1  A    between atoms: C_1  and  C_2
REMARK    2  A    between atoms: C_8  and  S_9
REMARK    3  A    between atoms: S_9  and  C_10
REMARK    4  A    between atoms: C_10  and  C_11
REMARK    5  A    between atoms: C_11  and  O_13
REMARK    6  A    between atoms: O_13  and  C_14
REMARK    7  A    between atoms: C_14  and  C_15
REMARK    8  A    between atoms: N_17  and  C_18
REMARK                            x       y       z     vdW  Elec       q    Type
REMARK                         _______ _______ _______ _____ _____    ______ ____
ROOT
ATOM      1  C   UNL     1       7.157   6.086  17.750  0.00  0.00    +0.000 C 
ATOM      2  O   UNL     1       6.881   5.665  18.868  0.00  0.00    +0.000 OA
ENDROOT
BRANCH   1   3
ATOM      3  C   UNL     1       6.935   5.381  16.419  0.00  0.00    +0.000 C 
BRANCH   3   4
ATOM      4  S   UNL     1       5.309   5.818  15.702  0.00  0.00    +0.000 S 
BRANCH   4  12
ATOM      5  C   UNL     1       3.388   7.544  17.676  0.00  0.00    +0.000 C 
ATOM      6  C   UNL     1       3.403   6.045  17.792  0.00  0.00    +0.000 A 
ATOM      7  C   UNL     1       2.650   5.460  18.833  0.00  0.00    +0.000 A 
ATOM      8  C   UNL     1       2.663   4.082  19.038  0.00  0.00    +0.000 A 
ATOM      9 BR   UNL     1       1.687   3.337  20.476  0.00  0.00    +0.000 Br
ATOM     10  C   UNL     1       3.410   3.259  18.205  0.00  0.00    +0.000 A 
ATOM     11  C   UNL     1       4.154   3.825  17.167  0.00  0.00    +0.000 A 
ATOM     12  C   UNL     1       4.160   5.215  16.943  0.00  0.00    +0.000 A 
ENDBRANCH   4  12
ENDBRANCH   3   4
ENDBRANCH   1   3
BRANCH   1  13
ATOM     13  O   UNL     1       7.730   7.306  17.525  0.00  0.00    +0.000 OA
BRANCH  13  14
ATOM     14  C   UNL     1       8.406   7.876  18.647  0.00  0.00    +0.000 C 
BRANCH  14  15
ATOM     15  C   UNL     1       8.595   9.390  18.516  0.00  0.00    +0.000 C 
ATOM     16  O   UNL     1       8.097  10.034  17.597  0.00  0.00    +0.000 OA
ATOM     17  N   UNL     1       9.359   9.953  19.519  0.00  0.00    +0.000 N 
ATOM     18  H   UNL     1       9.448   9.406  20.375  0.00  0.00    +0.000 HD
BRANCH  17  19
ATOM     19  C   UNL     1       9.541  11.386  19.615  0.00  0.00    +0.000 C 
ATOM     20  C   UNL     1       9.739  11.862  21.051  0.00  0.00    +0.000 C 
ATOM     21  C   UNL     1      10.353  13.247  20.888  0.00  0.00    +0.000 C 
ATOM     22  C   UNL     1      11.111  13.219  19.561  0.00  0.00    +0.000 C 
ATOM     23  C   UNL     1      10.815  11.861  18.928  0.00  0.00    +0.000 C 
ENDBRANCH  17  19
ENDBRANCH  14  15
ENDBRANCH  13  14
ENDBRANCH   1  13
TORSDOF 7
ENDMDL
MODEL 9
REMARK VINA RESULT:      -6.3      1.010      1.756
REMARK  Name = 
REMARK  8 active torsions:
REMARK  status: ('A' for Active; 'I' for Inactive)
REMARK    1  A    between atoms: C_1  and  C_2
REMARK    2  A    between atoms: C_8  and  S_9
REMARK    3  A    between atoms: S_9  and  C_10
REMARK    4  A    between atoms: C_10  and  C_11
REMARK    5  A    between atoms: C_11  and  O_13
REMARK    6  A    between atoms: O_13  and  C_14
REMARK    7  A    between atoms: C_14  and  C_15
REMARK    8  A    between atoms: N_17  and  C_18
REMARK                            x       y       z     vdW  Elec       q    Type
REMARK                         _______ _______ _______ _____ _____    ______ ____
ROOT
ATOM      1  C   UNL     1       2.293   3.870  21.009  0.00  0.00    +0.000 C 
ATOM      2  O   UNL     1       1.934   3.350  22.059  0.00  0.00    +0.000 OA
ENDROOT
BRANCH   1   3
ATOM      3  C   UNL     1       1.700   5.103  20.339  0.00  0.00    +0.000 C 
BRANCH   3   4
ATOM      4  S   UNL     1       3.012   6.240  19.764  0.00  0.00    +0.000 S 
BRANCH   4  12
ATOM      5  C   UNL     1       1.513   8.162  21.914  0.00  0.00    +0.000 C 
ATOM      6  C   UNL     1       1.442   8.501  20.451  0.00  0.00    +0.000 A 
ATOM      7  C   UNL     1       0.632   9.592  20.069  0.00  0.00    +0.000 A 
ATOM      8  C   UNL     1       0.471   9.928  18.727  0.00  0.00    +0.000 A 
ATOM      9 BR   UNL     1      -0.665  11.362  18.248  0.00  0.00    +0.000 Br
ATOM     10  C   UNL     1       1.121   9.198  17.741  0.00  0.00    +0.000 A 
ATOM     11  C   UNL     1       1.931   8.119  18.106  0.00  0.00    +0.000 A 
ATOM     12  C   UNL     1       2.106   7.759  19.455  0.00  0.00    +0.000 A 
ENDBRANCH   4  12
ENDBRANCH   3   4
ENDBRANCH   1   3
BRANCH   1  13
ATOM     13  O   UNL     1       3.329   3.399  20.252  0.00  0.00    +0.000 OA
BRANCH  13  14
ATOM     14  C   UNL     1       2.968   2.439  19.258  0.00  0.00    +0.000 C 
BRANCH  14  15
ATOM     15  C   UNL     1       3.134   2.973  17.832  0.00  0.00    +0.000 C 
ATOM     16  O   UNL     1       2.206   2.989  17.028  0.00  0.00    +0.000 OA
ATOM     17  N   UNL     1       4.403   3.435  17.547  0.00  0.00    +0.000 N 
ATOM     18  H   UNL     1       4.986   3.669  18.350  0.00  0.00    +0.000 HD
BRANCH  17  19
ATOM     19  C   UNL     1       4.705   4.082  16.287  0.00  0.00    +0.000 C 
ATOM     20  C   UNL     1       4.858   5.593  16.418  0.00  0.00    +0.000 C 
ATOM     21  C   UNL     1       5.602   5.991  15.149  0.00  0.00    +0.000 C 
ATOM     22  C   UNL     1       6.432   4.772  14.747  0.00  0.00    +0.000 C 
ATOM     23  C   UNL     1       6.055   3.658  15.721  0.00  0.00    +0.000 C 
ENDBRANCH  17  19
ENDBRANCH  14  15
ENDBRANCH  13  14
ENDBRANCH   1  13
TORSDOF 7
ENDMDL
