MODEL 1
REMARK VINA RESULT:      -8.4      0.000      0.000
REMARK  Name = 
REMARK  6 active torsions:
REMARK  status: ('A' for Active; 'I' for Inactive)
REMARK    1  A    between atoms: C_1  and  O_2
REMARK    2  A    between atoms: O_2  and  C_3
REMARK    3  A    between atoms: C_7  and  C_8
REMARK    4  A    between atoms: C_11  and  C_12
REMARK    5  A    between atoms: C_15  and  C_16
REMARK    6  A    between atoms: C_16  and  O_17
REMARK                            x       y       z     vdW  Elec       q    Type
REMARK                         _______ _______ _______ _____ _____    ______ ____
ROOT
ATOM      1  C   UNL     1       2.270   6.517  19.614  0.00  0.00    +0.000 A 
ATOM      2  C   UNL     1       3.050   5.885  18.711  0.00  0.00    +0.000 A 
ATOM      3  N   UNL     1       3.527   4.618  18.982  0.00  0.00    +0.000 N 
ATOM      4  C   UNL     1       4.424   3.784  18.334  0.00  0.00    +0.000 A 
ATOM      5  C   UNL     1       4.406   2.635  19.120  0.00  0.00    +0.000 A 
ATOM      6  N   UNL     1       3.599   2.766  20.226  0.00  0.00    +0.000 NA
ATOM      7  C   UNL     1       3.112   3.979  20.119  0.00  0.00    +0.000 A 
ATOM      8  C   UNL     1       2.225   4.674  21.010  0.00  0.00    +0.000 A 
ATOM      9  N   UNL     1       1.821   5.897  20.777  0.00  0.00    +0.000 NA
ENDROOT
BRANCH   1  14
ATOM     10  C   UNL     1       0.893  10.038  20.108  0.00  0.00    +0.000 A 
ATOM     11  C   UNL     1       1.166  10.604  18.864  0.00  0.00    +0.000 A 
ATOM     12  C   UNL     1       1.793   9.849  17.867  0.00  0.00    +0.000 A 
ATOM     13  C   UNL     1       2.154   8.521  18.114  0.00  0.00    +0.000 A 
ATOM     14  C   UNL     1       1.886   7.926  19.355  0.00  0.00    +0.000 A 
ATOM     15  C   UNL     1       1.217   8.698  20.325  0.00  0.00    +0.000 A 
ATOM     16  F   UNL     1       0.851   8.113  21.480  0.00  0.00    +0.000 F 
BRANCH  10  18
ATOM     17  C   UNL     1      -0.804  11.635  20.500  0.00  0.00    +0.000 C 
ATOM     18  O   UNL     1       0.280  10.865  21.014  0.00  0.00    +0.000 OA
ENDBRANCH  10  18
ENDBRANCH   1  14
BRANCH   4  19
ATOM     19  C   UNL     1       5.183   4.097  17.117  0.00  0.00    +0.000 A 
ATOM     20  C   UNL     1       4.585   4.086  15.848  0.00  0.00    +0.000 A 
ATOM     21  C   UNL     1       5.327   4.352  14.693  0.00  0.00    +0.000 A 
ATOM     22  C   UNL     1       6.678   4.699  14.778  0.00  0.00    +0.000 A 
ATOM     23  C   UNL     1       7.279   4.732  16.042  0.00  0.00    +0.000 A 
ATOM     24  C   UNL     1       6.538   4.440  17.197  0.00  0.00    +0.000 A 
BRANCH  22  25
ATOM     25  C   UNL     1       7.457   4.972  13.517  0.00  0.00    +0.000 C 
BRANCH  25  26
ATOM     26  O   UNL     1       8.558   5.839  13.755  0.00  0.00    +0.000 OA
ATOM     27  H   UNL     1       9.082   5.435  14.469  0.00  0.00    +0.000 HD
ENDBRANCH  25  26
ENDBRANCH  22  25
ENDBRANCH   4  19
TORSDOF 5
ENDMDL
MODEL 2
REMARK VINA RESULT:      -7.6      3.965      6.235
REMARK  Name = 
REMARK  6 active torsions:
REMARK  status: ('A' for Active; 'I' for Inactive)
REMARK    1  A    between atoms: C_1  and  O_2
REMARK    2  A    between atoms: O_2  and  C_3
REMARK    3  A    between atoms: C_7  and  C_8
REMARK    4  A    between atoms: C_11  and  C_12
REMARK    5  A    between atoms: C_15  and  C_16
REMARK    6  A    between atoms: C_16  and  O_17
REMARK                            x       y       z     vdW  Elec       q    Type
REMARK                         _______ _______ _______ _____ _____    ______ ____
ROOT
ATOM      1  C   UNL     1      -1.424  10.583  19.383  0.00  0.00    +0.000 A 
ATOM      2  C   UNL     1      -0.620   9.507  19.519  0.00  0.00    +0.000 A 
ATOM      3  N   UNL     1       0.256   9.434  20.586  0.00  0.00    +0.000 N 
ATOM      4  C   UNL     1       1.267   8.549  20.923  0.00  0.00    +0.000 A 
ATOM      5  C   UNL     1       1.710   9.034  22.150  0.00  0.00    +0.000 A 
ATOM      6  N   UNL     1       1.062  10.188  22.525  0.00  0.00    +0.000 NA
ATOM      7  C   UNL     1       0.217  10.408  21.547  0.00  0.00    +0.000 A 
ATOM      8  C   UNL     1      -0.710  11.494  21.385  0.00  0.00    +0.000 A 
ATOM      9  N   UNL     1      -1.497  11.588  20.344  0.00  0.00    +0.000 NA
ENDROOT
BRANCH   1  14
ATOM     10  C   UNL     1      -4.222  11.575  16.989  0.00  0.00    +0.000 A 
ATOM     11  C   UNL     1      -3.820  10.915  15.829  0.00  0.00    +0.000 A 
ATOM     12  C   UNL     1      -2.649  10.152  15.819  0.00  0.00    +0.000 A 
ATOM     13  C   UNL     1      -1.869  10.047  16.975  0.00  0.00    +0.000 A 
ATOM     14  C   UNL     1      -2.253  10.696  18.158  0.00  0.00    +0.000 A 
ATOM     15  C   UNL     1      -3.459  11.424  18.149  0.00  0.00    +0.000 A 
ATOM     16  F   UNL     1      -3.902  11.960  19.300  0.00  0.00    +0.000 F 
BRANCH  10  18
ATOM     17  C   UNL     1      -6.478  11.800  17.654  0.00  0.00    +0.000 C 
ATOM     18  O   UNL     1      -5.382  12.298  16.890  0.00  0.00    +0.000 OA
ENDBRANCH  10  18
ENDBRANCH   1  14
BRANCH   4  19
ATOM     19  C   UNL     1       1.719   7.398  20.131  0.00  0.00    +0.000 A 
ATOM     20  C   UNL     1       1.586   6.081  20.596  0.00  0.00    +0.000 A 
ATOM     21  C   UNL     1       2.052   4.996  19.848  0.00  0.00    +0.000 A 
ATOM     22  C   UNL     1       2.609   5.191  18.581  0.00  0.00    +0.000 A 
ATOM     23  C   UNL     1       2.729   6.500  18.100  0.00  0.00    +0.000 A 
ATOM     24  C   UNL     1       2.283   7.589  18.864  0.00  0.00    +0.000 A 
BRANCH  22  25
ATOM     25  C   UNL     1       3.113   4.005  17.799  0.00  0.00    +0.000 C 
BRANCH  25  26
ATOM     26  O   UNL     1       2.071   3.383  17.057  0.00  0.00    +0.000 OA
ATOM     27  H   UNL     1       2.382   2.486  16.841  0.00  0.00    +0.000 HD
ENDBRANCH  25  26
ENDBRANCH  22  25
ENDBRANCH   4  19
TORSDOF 5
ENDMDL
MODEL 3
REMARK VINA RESULT:      -7.5      1.324      1.759
REMARK  Name = 
REMARK  6 active torsions:
REMARK  status: ('A' for Active; 'I' for Inactive)
REMARK    1  A    between atoms: C_1  and  O_2
REMARK    2  A    between atoms: O_2  and  C_3
REMARK    3  A    between atoms: C_7  and  C_8
REMARK    4  A    between atoms: C_11  and  C_12
REMARK    5  A    between atoms: C_15  and  C_16
REMARK    6  A    between atoms: C_16  and  O_17
REMARK                            x       y       z     vdW  Elec       q    Type
REMARK                         _______ _______ _______ _____ _____    ______ ____
ROOT
ATOM      1  C   UNL     1       2.206   6.115  20.053  0.00  0.00    +0.000 A 
ATOM      2  C   UNL     1       2.963   5.554  19.085  0.00  0.00    +0.000 A 
ATOM      3  N   UNL     1       3.467   4.279  19.259  0.00  0.00    +0.000 N 
ATOM      4  C   UNL     1       4.352   3.503  18.529  0.00  0.00    +0.000 A 
ATOM      5  C   UNL     1       4.377   2.306  19.240  0.00  0.00    +0.000 A 
ATOM      6  N   UNL     1       3.607   2.354  20.378  0.00  0.00    +0.000 NA
ATOM      7  C   UNL     1       3.100   3.563  20.366  0.00  0.00    +0.000 A 
ATOM      8  C   UNL     1       2.234   4.186  21.329  0.00  0.00    +0.000 A 
ATOM      9  N   UNL     1       1.806   5.414  21.188  0.00  0.00    +0.000 NA
ENDROOT
BRANCH   1  14
ATOM     10  C   UNL     1       1.766   9.613  18.603  0.00  0.00    +0.000 A 
ATOM     11  C   UNL     1       1.006  10.218  19.603  0.00  0.00    +0.000 A 
ATOM     12  C   UNL     1       0.638   9.498  20.743  0.00  0.00    +0.000 A 
ATOM     13  C   UNL     1       1.026   8.163  20.887  0.00  0.00    +0.000 A 
ATOM     14  C   UNL     1       1.795   7.531  19.898  0.00  0.00    +0.000 A 
ATOM     15  C   UNL     1       2.186   8.294  18.780  0.00  0.00    +0.000 A 
ATOM     16  F   UNL     1       3.015   7.742  17.876  0.00  0.00    +0.000 F 
BRANCH  10  18
ATOM     17  C   UNL     1       2.413  11.754  17.840  0.00  0.00    +0.000 C 
ATOM     18  O   UNL     1       2.070  10.407  17.527  0.00  0.00    +0.000 OA
ENDBRANCH  10  18
ENDBRANCH   1  14
BRANCH   4  19
ATOM     19  C   UNL     1       5.065   3.905  17.310  0.00  0.00    +0.000 A 
ATOM     20  C   UNL     1       4.429   3.947  16.060  0.00  0.00    +0.000 A 
ATOM     21  C   UNL     1       5.127   4.298  14.901  0.00  0.00    +0.000 A 
ATOM     22  C   UNL     1       6.471   4.679  14.967  0.00  0.00    +0.000 A 
ATOM     23  C   UNL     1       7.109   4.658  16.212  0.00  0.00    +0.000 A 
ATOM     24  C   UNL     1       6.412   4.281  17.370  0.00  0.00    +0.000 A 
BRANCH  22  25
ATOM     25  C   UNL     1       7.203   5.043  13.701  0.00  0.00    +0.000 C 
BRANCH  25  26
ATOM     26  O   UNL     1       8.394   5.770  13.972  0.00  0.00    +0.000 OA
ATOM     27  H   UNL     1       8.737   6.072  13.113  0.00  0.00    +0.000 HD
ENDBRANCH  25  26
ENDBRANCH  22  25
ENDBRANCH   4  19
TORSDOF 5
ENDMDL
MODEL 4
REMARK VINA RESULT:      -7.5      3.919      6.360
REMARK  Name = 
REMARK  6 active torsions:
REMARK  status: ('A' for Active; 'I' for Inactive)
REMARK    1  A    between atoms: C_1  and  O_2
REMARK    2  A    between atoms: O_2  and  C_3
REMARK    3  A    between atoms: C_7  and  C_8
REMARK    4  A    between atoms: C_11  and  C_12
REMARK    5  A    between atoms: C_15  and  C_16
REMARK    6  A    between atoms: C_16  and  O_17
REMARK                            x       y       z     vdW  Elec       q    Type
REMARK                         _______ _______ _______ _____ _____    ______ ____
ROOT
ATOM      1  C   UNL     1      -1.575  10.665  19.527  0.00  0.00    +0.000 A 
ATOM      2  C   UNL     1      -0.736   9.610  19.624  0.00  0.00    +0.000 A 
ATOM      3  N   UNL     1       0.133   9.521  20.694  0.00  0.00    +0.000 N 
ATOM      4  C   UNL     1       1.170   8.655  21.003  0.00  0.00    +0.000 A 
ATOM      5  C   UNL     1       1.588   9.101  22.253  0.00  0.00    +0.000 A 
ATOM      6  N   UNL     1       0.900  10.216  22.672  0.00  0.00    +0.000 NA
ATOM      7  C   UNL     1       0.055  10.450  21.696  0.00  0.00    +0.000 A 
ATOM      8  C   UNL     1      -0.905  11.511  21.572  0.00  0.00    +0.000 A 
ATOM      9  N   UNL     1      -1.687  11.625  20.529  0.00  0.00    +0.000 NA
ENDROOT
BRANCH   1  14
ATOM     10  C   UNL     1      -2.806  10.287  15.938  0.00  0.00    +0.000 A 
ATOM     11  C   UNL     1      -3.965  11.062  15.975  0.00  0.00    +0.000 A 
ATOM     12  C   UNL     1      -4.346  11.705  17.156  0.00  0.00    +0.000 A 
ATOM     13  C   UNL     1      -3.570  11.572  18.312  0.00  0.00    +0.000 A 
ATOM     14  C   UNL     1      -2.397  10.803  18.301  0.00  0.00    +0.000 A 
ATOM     15  C   UNL     1      -2.015  10.201  17.085  0.00  0.00    +0.000 A 
ATOM     16  F   UNL     1      -0.838   9.553  17.024  0.00  0.00    +0.000 F 
BRANCH  10  18
ATOM     17  C   UNL     1      -3.429  10.010  13.676  0.00  0.00    +0.000 C 
ATOM     18  O   UNL     1      -2.525   9.698  14.732  0.00  0.00    +0.000 OA
ENDBRANCH  10  18
ENDBRANCH   1  14
BRANCH   4  19
ATOM     19  C   UNL     1       1.666   7.555  20.167  0.00  0.00    +0.000 A 
ATOM     20  C   UNL     1       2.228   7.781  18.901  0.00  0.00    +0.000 A 
ATOM     21  C   UNL     1       2.664   6.722  18.099  0.00  0.00    +0.000 A 
ATOM     22  C   UNL     1       2.610   5.406  18.567  0.00  0.00    +0.000 A 
ATOM     23  C   UNL     1       2.069   5.172  19.837  0.00  0.00    +0.000 A 
ATOM     24  C   UNL     1       1.609   6.234  20.628  0.00  0.00    +0.000 A 
BRANCH  22  25
ATOM     25  C   UNL     1       3.078   4.281  17.680  0.00  0.00    +0.000 C 
BRANCH  25  26
ATOM     26  O   UNL     1       1.992   3.491  17.213  0.00  0.00    +0.000 OA
ATOM     27  H   UNL     1       1.192   4.039  17.302  0.00  0.00    +0.000 HD
ENDBRANCH  25  26
ENDBRANCH  22  25
ENDBRANCH   4  19
TORSDOF 5
ENDMDL
MODEL 5
REMARK VINA RESULT:      -7.4      3.961      6.275
REMARK  Name = 
REMARK  6 active torsions:
REMARK  status: ('A' for Active; 'I' for Inactive)
REMARK    1  A    between atoms: C_1  and  O_2
REMARK    2  A    between atoms: O_2  and  C_3
REMARK    3  A    between atoms: C_7  and  C_8
REMARK    4  A    between atoms: C_11  and  C_12
REMARK    5  A    between atoms: C_15  and  C_16
REMARK    6  A    between atoms: C_16  and  O_17
REMARK                            x       y       z     vdW  Elec       q    Type
REMARK                         _______ _______ _______ _____ _____    ______ ____
ROOT
ATOM      1  C   UNL     1      -1.550  10.653  19.418  0.00  0.00    +0.000 A 
ATOM      2  C   UNL     1      -0.700   9.609  19.538  0.00  0.00    +0.000 A 
ATOM      3  N   UNL     1       0.139   9.529  20.632  0.00  0.00    +0.000 N 
ATOM      4  C   UNL     1       1.179   8.678  20.969  0.00  0.00    +0.000 A 
ATOM      5  C   UNL     1       1.555   9.126  22.231  0.00  0.00    +0.000 A 
ATOM      6  N   UNL     1       0.839  10.231  22.632  0.00  0.00    +0.000 NA
ATOM      7  C   UNL     1       0.020  10.456  21.633  0.00  0.00    +0.000 A 
ATOM      8  C   UNL     1      -0.951  11.504  21.483  0.00  0.00    +0.000 A 
ATOM      9  N   UNL     1      -1.704  11.609  20.418  0.00  0.00    +0.000 NA
ENDROOT
BRANCH   1  14
ATOM     10  C   UNL     1      -4.297  11.634  16.963  0.00  0.00    +0.000 A 
ATOM     11  C   UNL     1      -3.831  11.034  15.794  0.00  0.00    +0.000 A 
ATOM     12  C   UNL     1      -2.632  10.313  15.799  0.00  0.00    +0.000 A 
ATOM     13  C   UNL     1      -1.890  10.193  16.978  0.00  0.00    +0.000 A 
ATOM     14  C   UNL     1      -2.338  10.782  18.169  0.00  0.00    +0.000 A 
ATOM     15  C   UNL     1      -3.570  11.466  18.143  0.00  0.00    +0.000 A 
ATOM     16  F   UNL     1      -4.072  11.942  19.296  0.00  0.00    +0.000 F 
BRANCH  10  18
ATOM     17  C   UNL     1      -6.549  11.827  17.652  0.00  0.00    +0.000 C 
ATOM     18  O   UNL     1      -5.479  12.318  16.848  0.00  0.00    +0.000 OA
ENDBRANCH  10  18
ENDBRANCH   1  14
BRANCH   4  19
ATOM     19  C   UNL     1       1.713   7.585  20.146  0.00  0.00    +0.000 A 
ATOM     20  C   UNL     1       2.308   7.822  18.897  0.00  0.00    +0.000 A 
ATOM     21  C   UNL     1       2.781   6.771  18.106  0.00  0.00    +0.000 A 
ATOM     22  C   UNL     1       2.732   5.453  18.570  0.00  0.00    +0.000 A 
ATOM     23  C   UNL     1       2.158   5.209  19.823  0.00  0.00    +0.000 A 
ATOM     24  C   UNL     1       1.661   6.263  20.603  0.00  0.00    +0.000 A 
BRANCH  22  25
ATOM     25  C   UNL     1       3.240   4.337  17.694  0.00  0.00    +0.000 C 
BRANCH  25  26
ATOM     26  O   UNL     1       4.003   3.392  18.435  0.00  0.00    +0.000 OA
ATOM     27  H   UNL     1       3.374   2.731  18.772  0.00  0.00    +0.000 HD
ENDBRANCH  25  26
ENDBRANCH  22  25
ENDBRANCH   4  19
TORSDOF 5
ENDMDL
MODEL 6
REMARK VINA RESULT:      -7.4      2.135      7.214
REMARK  Name = 
REMARK  6 active torsions:
REMARK  status: ('A' for Active; 'I' for Inactive)
REMARK    1  A    between atoms: C_1  and  O_2
REMARK    2  A    between atoms: O_2  and  C_3
REMARK    3  A    between atoms: C_7  and  C_8
REMARK    4  A    between atoms: C_11  and  C_12
REMARK    5  A    between atoms: C_15  and  C_16
REMARK    6  A    between atoms: C_16  and  O_17
REMARK                            x       y       z     vdW  Elec       q    Type
REMARK                         _______ _______ _______ _____ _____    ______ ____
ROOT
ATOM      1  C   UNL     1       4.689   4.292  18.057  0.00  0.00    +0.000 A 
ATOM      2  C   UNL     1       4.006   5.364  18.513  0.00  0.00    +0.000 A 
ATOM      3  N   UNL     1       3.131   5.221  19.573  0.00  0.00    +0.000 N 
ATOM      4  C   UNL     1       2.219   6.075  20.171  0.00  0.00    +0.000 A 
ATOM      5  C   UNL     1       1.712   5.309  21.216  0.00  0.00    +0.000 A 
ATOM      6  N   UNL     1       2.226   4.033  21.231  0.00  0.00    +0.000 NA
ATOM      7  C   UNL     1       3.053   4.014  20.213  0.00  0.00    +0.000 A 
ATOM      8  C   UNL     1       3.857   2.927  19.728  0.00  0.00    +0.000 A 
ATOM      9  N   UNL     1       4.641   3.052  18.687  0.00  0.00    +0.000 NA
ENDROOT
BRANCH   1  14
ATOM     10  C   UNL     1       5.768   4.293  14.400  0.00  0.00    +0.000 A 
ATOM     11  C   UNL     1       7.080   4.750  14.513  0.00  0.00    +0.000 A 
ATOM     12  C   UNL     1       7.615   5.057  15.768  0.00  0.00    +0.000 A 
ATOM     13  C   UNL     1       6.835   4.911  16.919  0.00  0.00    +0.000 A 
ATOM     14  C   UNL     1       5.514   4.448  16.834  0.00  0.00    +0.000 A 
ATOM     15  C   UNL     1       5.016   4.107  15.561  0.00  0.00    +0.000 A 
ATOM     16  F   UNL     1       3.792   3.556  15.469  0.00  0.00    +0.000 F 
BRANCH  10  18
ATOM     17  C   UNL     1       6.271   3.316  12.308  0.00  0.00    +0.000 C 
ATOM     18  O   UNL     1       5.342   4.024  13.125  0.00  0.00    +0.000 OA
ENDBRANCH  10  18
ENDBRANCH   1  14
BRANCH   4  19
ATOM     19  C   UNL     1       1.904   7.447  19.752  0.00  0.00    +0.000 A 
ATOM     20  C   UNL     1       2.177   7.906  18.455  0.00  0.00    +0.000 A 
ATOM     21  C   UNL     1       1.905   9.225  18.078  0.00  0.00    +0.000 A 
ATOM     22  C   UNL     1       1.291  10.108  18.971  0.00  0.00    +0.000 A 
ATOM     23  C   UNL     1       0.997   9.653  20.262  0.00  0.00    +0.000 A 
ATOM     24  C   UNL     1       1.294   8.337  20.645  0.00  0.00    +0.000 A 
BRANCH  22  25
ATOM     25  C   UNL     1       1.017  11.527  18.544  0.00  0.00    +0.000 C 
BRANCH  25  26
ATOM     26  O   UNL     1       2.089  12.063  17.779  0.00  0.00    +0.000 OA
ATOM     27  H   UNL     1       2.022  11.668  16.892  0.00  0.00    +0.000 HD
ENDBRANCH  25  26
ENDBRANCH  22  25
ENDBRANCH   4  19
TORSDOF 5
ENDMDL
MODEL 7
REMARK VINA RESULT:      -7.2      3.641      8.186
REMARK  Name = 
REMARK  6 active torsions:
REMARK  status: ('A' for Active; 'I' for Inactive)
REMARK    1  A    between atoms: C_1  and  O_2
REMARK    2  A    between atoms: O_2  and  C_3
REMARK    3  A    between atoms: C_7  and  C_8
REMARK    4  A    between atoms: C_11  and  C_12
REMARK    5  A    between atoms: C_15  and  C_16
REMARK    6  A    between atoms: C_16  and  O_17
REMARK                            x       y       z     vdW  Elec       q    Type
REMARK                         _______ _______ _______ _____ _____    ______ ____
ROOT
ATOM      1  C   UNL     1       1.217   8.423  20.632  0.00  0.00    +0.000 A 
ATOM      2  C   UNL     1       0.386   9.079  19.793  0.00  0.00    +0.000 A 
ATOM      3  N   UNL     1      -0.335  10.165  20.250  0.00  0.00    +0.000 N 
ATOM      4  C   UNL     1      -1.333  10.945  19.688  0.00  0.00    +0.000 A 
ATOM      5  C   UNL     1      -1.575  11.899  20.672  0.00  0.00    +0.000 A 
ATOM      6  N   UNL     1      -0.823  11.690  21.805  0.00  0.00    +0.000 NA
ATOM      7  C   UNL     1      -0.113  10.625  21.520  0.00  0.00    +0.000 A 
ATOM      8  C   UNL     1       0.836   9.930  22.345  0.00  0.00    +0.000 A 
ATOM      9  N   UNL     1       1.474   8.866  21.926  0.00  0.00    +0.000 NA
ENDROOT
BRANCH   1  14
ATOM     10  C   UNL     1       3.344   6.022  18.571  0.00  0.00    +0.000 A 
ATOM     11  C   UNL     1       3.118   4.824  19.247  0.00  0.00    +0.000 A 
ATOM     12  C   UNL     1       2.279   4.792  20.365  0.00  0.00    +0.000 A 
ATOM     13  C   UNL     1       1.664   5.964  20.816  0.00  0.00    +0.000 A 
ATOM     14  C   UNL     1       1.871   7.182  20.152  0.00  0.00    +0.000 A 
ATOM     15  C   UNL     1       2.687   7.175  19.003  0.00  0.00    +0.000 A 
ATOM     16  F   UNL     1       2.809   8.307  18.287  0.00  0.00    +0.000 F 
BRANCH  10  18
ATOM     17  C   UNL     1       4.412   4.629  16.988  0.00  0.00    +0.000 C 
ATOM     18  O   UNL     1       4.184   5.943  17.490  0.00  0.00    +0.000 OA
ENDBRANCH  10  18
ENDBRANCH   1  14
BRANCH   4  19
ATOM     19  C   UNL     1      -1.949  10.756  18.369  0.00  0.00    +0.000 A 
ATOM     20  C   UNL     1      -1.453   9.821  17.447  0.00  0.00    +0.000 A 
ATOM     21  C   UNL     1      -2.026   9.675  16.181  0.00  0.00    +0.000 A 
ATOM     22  C   UNL     1      -3.156  10.415  15.821  0.00  0.00    +0.000 A 
ATOM     23  C   UNL     1      -3.670  11.336  16.741  0.00  0.00    +0.000 A 
ATOM     24  C   UNL     1      -3.077  11.499  18.001  0.00  0.00    +0.000 A 
BRANCH  22  25
ATOM     25  C   UNL     1      -3.749  10.245  14.446  0.00  0.00    +0.000 C 
BRANCH  25  26
ATOM     26  O   UNL     1      -2.744  10.048  13.459  0.00  0.00    +0.000 OA
ATOM     27  H   UNL     1      -3.161  10.229  12.599  0.00  0.00    +0.000 HD
ENDBRANCH  25  26
ENDBRANCH  22  25
ENDBRANCH   4  19
TORSDOF 5
ENDMDL
MODEL 8
REMARK VINA RESULT:      -7.1      0.985      1.033
REMARK  Name = 
REMARK  6 active torsions:
REMARK  status: ('A' for Active; 'I' for Inactive)
REMARK    1  A    between atoms: C_1  and  O_2
REMARK    2  A    between atoms: O_2  and  C_3
REMARK    3  A    between atoms: C_7  and  C_8
REMARK    4  A    between atoms: C_11  and  C_12
REMARK    5  A    between atoms: C_15  and  C_16
REMARK    6  A    between atoms: C_16  and  O_17
REMARK                            x       y       z     vdW  Elec       q    Type
REMARK                         _______ _______ _______ _____ _____    ______ ____
ROOT
ATOM      1  C   UNL     1       2.364   6.022  19.035  0.00  0.00    +0.000 A 
ATOM      2  C   UNL     1       3.165   5.515  18.073  0.00  0.00    +0.000 A 
ATOM      3  N   UNL     1       3.582   4.200  18.148  0.00  0.00    +0.000 N 
ATOM      4  C   UNL     1       4.480   3.447  17.409  0.00  0.00    +0.000 A 
ATOM      5  C   UNL     1       4.382   2.186  17.988  0.00  0.00    +0.000 A 
ATOM      6  N   UNL     1       3.525   2.166  19.065  0.00  0.00    +0.000 NA
ATOM      7  C   UNL     1       3.088   3.401  19.142  0.00  0.00    +0.000 A 
ATOM      8  C   UNL     1       2.183   3.976  20.098  0.00  0.00    +0.000 A 
ATOM      9  N   UNL     1       1.835   5.237  20.057  0.00  0.00    +0.000 NA
ENDROOT
BRANCH   1  14
ATOM     10  C   UNL     1       1.135   9.479  20.073  0.00  0.00    +0.000 A 
ATOM     11  C   UNL     1       1.447  10.221  18.934  0.00  0.00    +0.000 A 
ATOM     12  C   UNL     1       2.051   9.606  17.834  0.00  0.00    +0.000 A 
ATOM     13  C   UNL     1       2.352   8.240  17.870  0.00  0.00    +0.000 A 
ATOM     14  C   UNL     1       2.045   7.469  19.000  0.00  0.00    +0.000 A 
ATOM     15  C   UNL     1       1.398   8.108  20.077  0.00  0.00    +0.000 A 
ATOM     16  F   UNL     1       0.994   7.365  21.123  0.00  0.00    +0.000 F 
BRANCH  10  18
ATOM     17  C   UNL     1       1.017   9.860  22.402  0.00  0.00    +0.000 C 
ATOM     18  O   UNL     1       0.548  10.179  21.095  0.00  0.00    +0.000 OA
ENDBRANCH  10  18
ENDBRANCH   1  14
BRANCH   4  19
ATOM     19  C   UNL     1       5.310   3.925  16.296  0.00  0.00    +0.000 A 
ATOM     20  C   UNL     1       4.977   3.664  14.958  0.00  0.00    +0.000 A 
ATOM     21  C   UNL     1       5.794   4.094  13.908  0.00  0.00    +0.000 A 
ATOM     22  C   UNL     1       6.939   4.855  14.163  0.00  0.00    +0.000 A 
ATOM     23  C   UNL     1       7.270   5.136  15.493  0.00  0.00    +0.000 A 
ATOM     24  C   UNL     1       6.461   4.682  16.546  0.00  0.00    +0.000 A 
BRANCH  22  25
ATOM     25  C   UNL     1       7.808   5.297  13.013  0.00  0.00    +0.000 C 
BRANCH  25  26
ATOM     26  O   UNL     1       8.969   5.982  13.465  0.00  0.00    +0.000 OA
ATOM     27  H   UNL     1       8.861   6.111  14.423  0.00  0.00    +0.000 HD
ENDBRANCH  25  26
ENDBRANCH  22  25
ENDBRANCH   4  19
TORSDOF 5
ENDMDL
MODEL 9
REMARK VINA RESULT:      -7.1      3.447      8.171
REMARK  Name = 
REMARK  6 active torsions:
REMARK  status: ('A' for Active; 'I' for Inactive)
REMARK    1  A    between atoms: C_1  and  O_2
REMARK    2  A    between atoms: O_2  and  C_3
REMARK    3  A    between atoms: C_7  and  C_8
REMARK    4  A    between atoms: C_11  and  C_12
REMARK    5  A    between atoms: C_15  and  C_16
REMARK    6  A    between atoms: C_16  and  O_17
REMARK                            x       y       z     vdW  Elec       q    Type
REMARK                         _______ _______ _______ _____ _____    ______ ____
ROOT
ATOM      1  C   UNL     1       1.442   8.153  20.662  0.00  0.00    +0.000 A 
ATOM      2  C   UNL     1       0.605   8.909  19.920  0.00  0.00    +0.000 A 
ATOM      3  N   UNL     1      -0.010  10.010  20.485  0.00  0.00    +0.000 N 
ATOM      4  C   UNL     1      -0.987  10.884  20.037  0.00  0.00    +0.000 A 
ATOM      5  C   UNL     1      -1.100  11.791  21.086  0.00  0.00    +0.000 A 
ATOM      6  N   UNL     1      -0.292  11.468  22.151  0.00  0.00    +0.000 NA
ATOM      7  C   UNL     1       0.325  10.378  21.760  0.00  0.00    +0.000 A 
ATOM      8  C   UNL     1       1.276   9.576  22.478  0.00  0.00    +0.000 A 
ATOM      9  N   UNL     1       1.812   8.501  21.959  0.00  0.00    +0.000 NA
ENDROOT
BRANCH   1  14
ATOM     10  C   UNL     1       3.267   5.748  18.333  0.00  0.00    +0.000 A 
ATOM     11  C   UNL     1       3.001   4.529  18.954  0.00  0.00    +0.000 A 
ATOM     12  C   UNL     1       2.234   4.483  20.122  0.00  0.00    +0.000 A 
ATOM     13  C   UNL     1       1.731   5.663  20.679  0.00  0.00    +0.000 A 
ATOM     14  C   UNL     1       1.978   6.903  20.071  0.00  0.00    +0.000 A 
ATOM     15  C   UNL     1       2.719   6.913  18.873  0.00  0.00    +0.000 A 
ATOM     16  F   UNL     1       2.872   8.076  18.215  0.00  0.00    +0.000 F 
BRANCH  10  18
ATOM     17  C   UNL     1       4.796   4.488  17.045  0.00  0.00    +0.000 C 
ATOM     18  O   UNL     1       4.030   5.681  17.196  0.00  0.00    +0.000 OA
ENDBRANCH  10  18
ENDBRANCH   1  14
BRANCH   4  19
ATOM     19  C   UNL     1      -1.698  10.814  18.755  0.00  0.00    +0.000 A 
ATOM     20  C   UNL     1      -2.850  11.575  18.504  0.00  0.00    +0.000 A 
ATOM     21  C   UNL     1      -3.539  11.473  17.292  0.00  0.00    +0.000 A 
ATOM     22  C   UNL     1      -3.060  10.652  16.267  0.00  0.00    +0.000 A 
ATOM     23  C   UNL     1      -1.900   9.903  16.501  0.00  0.00    +0.000 A 
ATOM     24  C   UNL     1      -1.225   9.988  17.727  0.00  0.00    +0.000 A 
BRANCH  22  25
ATOM     25  C   UNL     1      -3.826  10.552  14.973  0.00  0.00    +0.000 C 
BRANCH  25  26
ATOM     26  O   UNL     1      -2.958  10.412  13.856  0.00  0.00    +0.000 OA
ATOM     27  H   UNL     1      -3.527  10.332  13.071  0.00  0.00    +0.000 HD
ENDBRANCH  25  26
ENDBRANCH  22  25
ENDBRANCH   4  19
TORSDOF 5
ENDMDL
