MODEL 1
REMARK VINA RESULT:      -7.0      0.000      0.000
REMARK  Name = 
REMARK  0 active torsions:
REMARK  status: ('A' for Active; 'I' for Inactive)
REMARK                            x       y       z     vdW  Elec       q    Type
REMARK                         _______ _______ _______ _____ _____    ______ ____
ROOT
ATOM      1  O   UNL     1       2.971   2.109  17.445  0.00  0.00    +0.000 OA
ATOM      2  C   UNL     1       2.849   3.276  17.795  0.00  0.00    +0.000 A 
ATOM      3  C   UNL     1       3.744   4.337  17.283  0.00  0.00    +0.000 A 
ATOM      4  C   UNL     1       4.728   4.044  16.333  0.00  0.00    +0.000 A 
ATOM      5  C   UNL     1       5.489   5.082  15.802  0.00  0.00    +0.000 A 
ATOM      6  C   UNL     1       5.242   6.400  16.197  0.00  0.00    +0.000 A 
ATOM      7  C   UNL     1       4.296   6.675  17.191  0.00  0.00    +0.000 A 
ATOM      8  C   UNL     1       3.573   5.634  17.778  0.00  0.00    +0.000 A 
ATOM      9  N   UNL     1       2.823   5.896  18.948  0.00  0.00    +0.000 NA
ATOM     10  C   UNL     1       2.109   4.917  19.375  0.00  0.00    +0.000 A 
ATOM     11  N   UNL     1       1.932   3.716  18.715  0.00  0.00    +0.000 N 
ATOM     12  C   UNL     1       0.994   2.885  19.422  0.00  0.00    +0.000 C 
ATOM     13  C   UNL     1       1.224   3.330  20.854  0.00  0.00    +0.000 C 
ATOM     14  C   UNL     1       1.405   4.847  20.703  0.00  0.00    +0.000 C 
ENDROOT
TORSDOF 0
ENDMDL
MODEL 2
REMARK VINA RESULT:      -6.8      2.242      2.558
REMARK  Name = 
REMARK  0 active torsions:
REMARK  status: ('A' for Active; 'I' for Inactive)
REMARK                            x       y       z     vdW  Elec       q    Type
REMARK                         _______ _______ _______ _____ _____    ______ ____
ROOT
ATOM      1  O   UNL     1       5.245   2.978  19.909  0.00  0.00    +0.000 OA
ATOM      2  C   UNL     1       4.868   3.737  19.025  0.00  0.00    +0.000 A 
ATOM      3  C   UNL     1       5.676   4.903  18.607  0.00  0.00    +0.000 A 
ATOM      4  C   UNL     1       6.932   5.143  19.176  0.00  0.00    +0.000 A 
ATOM      5  C   UNL     1       7.707   6.194  18.692  0.00  0.00    +0.000 A 
ATOM      6  C   UNL     1       7.240   6.972  17.630  0.00  0.00    +0.000 A 
ATOM      7  C   UNL     1       5.959   6.761  17.108  0.00  0.00    +0.000 A 
ATOM      8  C   UNL     1       5.147   5.752  17.630  0.00  0.00    +0.000 A 
ATOM      9  N   UNL     1       3.777   5.724  17.277  0.00  0.00    +0.000 NA
ATOM     10  C   UNL     1       3.115   4.714  17.717  0.00  0.00    +0.000 A 
ATOM     11  N   UNL     1       3.665   3.631  18.374  0.00  0.00    +0.000 N 
ATOM     12  C   UNL     1       2.659   2.637  18.638  0.00  0.00    +0.000 C 
ATOM     13  C   UNL     1       1.420   3.500  18.785  0.00  0.00    +0.000 C 
ATOM     14  C   UNL     1       1.620   4.553  17.686  0.00  0.00    +0.000 C 
ENDROOT
TORSDOF 0
ENDMDL
MODEL 3
REMARK VINA RESULT:      -6.8      1.629      2.473
REMARK  Name = 
REMARK  0 active torsions:
REMARK  status: ('A' for Active; 'I' for Inactive)
REMARK                            x       y       z     vdW  Elec       q    Type
REMARK                         _______ _______ _______ _____ _____    ______ ____
ROOT
ATOM      1  O   UNL     1       2.838   6.763  19.637  0.00  0.00    +0.000 OA
ATOM      2  C   UNL     1       3.126   5.672  19.161  0.00  0.00    +0.000 A 
ATOM      3  C   UNL     1       3.869   5.554  17.887  0.00  0.00    +0.000 A 
ATOM      4  C   UNL     1       4.314   6.695  17.212  0.00  0.00    +0.000 A 
ATOM      5  C   UNL     1       5.092   6.545  16.066  0.00  0.00    +0.000 A 
ATOM      6  C   UNL     1       5.443   5.267  15.625  0.00  0.00    +0.000 A 
ATOM      7  C   UNL     1       4.944   4.132  16.273  0.00  0.00    +0.000 A 
ATOM      8  C   UNL     1       4.109   4.271  17.385  0.00  0.00    +0.000 A 
ATOM      9  N   UNL     1       3.409   3.138  17.861  0.00  0.00    +0.000 NA
ATOM     10  C   UNL     1       2.737   3.319  18.942  0.00  0.00    +0.000 A 
ATOM     11  N   UNL     1       2.763   4.468  19.709  0.00  0.00    +0.000 N 
ATOM     12  C   UNL     1       1.975   4.297  20.900  0.00  0.00    +0.000 C 
ATOM     13  C   UNL     1       0.921   3.317  20.421  0.00  0.00    +0.000 C 
ATOM     14  C   UNL     1       1.735   2.366  19.532  0.00  0.00    +0.000 C 
ENDROOT
TORSDOF 0
ENDMDL
MODEL 4
REMARK VINA RESULT:      -6.7      2.732      4.950
REMARK  Name = 
REMARK  0 active torsions:
REMARK  status: ('A' for Active; 'I' for Inactive)
REMARK                            x       y       z     vdW  Elec       q    Type
REMARK                         _______ _______ _______ _____ _____    ______ ____
ROOT
ATOM      1  O   UNL     1       4.247   7.023  16.745  0.00  0.00    +0.000 OA
ATOM      2  C   UNL     1       4.717   6.105  17.406  0.00  0.00    +0.000 A 
ATOM      3  C   UNL     1       3.852   5.115  18.084  0.00  0.00    +0.000 A 
ATOM      4  C   UNL     1       2.461   5.168  17.945  0.00  0.00    +0.000 A 
ATOM      5  C   UNL     1       1.684   4.165  18.519  0.00  0.00    +0.000 A 
ATOM      6  C   UNL     1       2.297   3.108  19.196  0.00  0.00    +0.000 A 
ATOM      7  C   UNL     1       3.684   3.097  19.380  0.00  0.00    +0.000 A 
ATOM      8  C   UNL     1       4.469   4.132  18.865  0.00  0.00    +0.000 A 
ATOM      9  N   UNL     1       5.816   4.242  19.280  0.00  0.00    +0.000 NA
ATOM     10  C   UNL     1       6.501   5.157  18.693  0.00  0.00    +0.000 A 
ATOM     11  N   UNL     1       6.058   5.921  17.630  0.00  0.00    +0.000 N 
ATOM     12  C   UNL     1       7.110   6.778  17.152  0.00  0.00    +0.000 C 
ATOM     13  C   UNL     1       7.900   7.017  18.424  0.00  0.00    +0.000 C 
ATOM     14  C   UNL     1       7.868   5.637  19.096  0.00  0.00    +0.000 C 
ENDROOT
TORSDOF 0
ENDMDL
MODEL 5
REMARK VINA RESULT:      -6.7      2.329      5.014
REMARK  Name = 
REMARK  0 active torsions:
REMARK  status: ('A' for Active; 'I' for Inactive)
REMARK                            x       y       z     vdW  Elec       q    Type
REMARK                         _______ _______ _______ _____ _____    ______ ____
ROOT
ATOM      1  O   UNL     1       3.062   6.981  18.245  0.00  0.00    +0.000 OA
ATOM      2  C   UNL     1       3.688   5.950  18.455  0.00  0.00    +0.000 A 
ATOM      3  C   UNL     1       3.175   4.904  19.367  0.00  0.00    +0.000 A 
ATOM      4  C   UNL     1       1.924   5.040  19.978  0.00  0.00    +0.000 A 
ATOM      5  C   UNL     1       1.432   3.995  20.755  0.00  0.00    +0.000 A 
ATOM      6  C   UNL     1       2.171   2.817  20.889  0.00  0.00    +0.000 A 
ATOM      7  C   UNL     1       3.446   2.714  20.321  0.00  0.00    +0.000 A 
ATOM      8  C   UNL     1       3.978   3.782  19.595  0.00  0.00    +0.000 A 
ATOM      9  N   UNL     1       5.352   3.764  19.258  0.00  0.00    +0.000 NA
ATOM     10  C   UNL     1       5.748   4.730  18.509  0.00  0.00    +0.000 A 
ATOM     11  N   UNL     1       4.923   5.673  17.927  0.00  0.00    +0.000 N 
ATOM     12  C   UNL     1       5.680   6.548  17.072  0.00  0.00    +0.000 C 
ATOM     13  C   UNL     1       7.030   6.545  17.765  0.00  0.00    +0.000 C 
ATOM     14  C   UNL     1       7.177   5.078  18.193  0.00  0.00    +0.000 C 
ENDROOT
TORSDOF 0
ENDMDL
MODEL 6
REMARK VINA RESULT:      -6.6      2.423      4.750
REMARK  Name = 
REMARK  0 active torsions:
REMARK  status: ('A' for Active; 'I' for Inactive)
REMARK                            x       y       z     vdW  Elec       q    Type
REMARK                         _______ _______ _______ _____ _____    ______ ____
ROOT
ATOM      1  O   UNL     1       4.657   4.408  15.510  0.00  0.00    +0.000 OA
ATOM      2  C   UNL     1       4.961   4.239  16.684  0.00  0.00    +0.000 A 
ATOM      3  C   UNL     1       4.029   3.606  17.644  0.00  0.00    +0.000 A 
ATOM      4  C   UNL     1       2.784   3.130  17.221  0.00  0.00    +0.000 A 
ATOM      5  C   UNL     1       1.971   2.456  18.129  0.00  0.00    +0.000 A 
ATOM      6  C   UNL     1       2.418   2.236  19.434  0.00  0.00    +0.000 A 
ATOM      7  C   UNL     1       3.639   2.767  19.863  0.00  0.00    +0.000 A 
ATOM      8  C   UNL     1       4.433   3.502  18.979  0.00  0.00    +0.000 A 
ATOM      9  N   UNL     1       5.521   4.246  19.491  0.00  0.00    +0.000 NA
ATOM     10  C   UNL     1       6.262   4.817  18.610  0.00  0.00    +0.000 A 
ATOM     11  N   UNL     1       6.145   4.648  17.244  0.00  0.00    +0.000 N 
ATOM     12  C   UNL     1       7.193   5.353  16.556  0.00  0.00    +0.000 C 
ATOM     13  C   UNL     1       7.444   6.510  17.504  0.00  0.00    +0.000 C 
ATOM     14  C   UNL     1       7.331   5.840  18.881  0.00  0.00    +0.000 C 
ENDROOT
TORSDOF 0
ENDMDL
MODEL 7
REMARK VINA RESULT:      -6.6      1.650      1.688
REMARK  Name = 
REMARK  0 active torsions:
REMARK  status: ('A' for Active; 'I' for Inactive)
REMARK                            x       y       z     vdW  Elec       q    Type
REMARK                         _______ _______ _______ _____ _____    ______ ____
ROOT
ATOM      1  O   UNL     1       5.152   2.662  19.877  0.00  0.00    +0.000 OA
ATOM      2  C   UNL     1       4.354   3.474  19.427  0.00  0.00    +0.000 A 
ATOM      3  C   UNL     1       4.803   4.686  18.708  0.00  0.00    +0.000 A 
ATOM      4  C   UNL     1       6.163   4.914  18.472  0.00  0.00    +0.000 A 
ATOM      5  C   UNL     1       6.544   6.016  17.711  0.00  0.00    +0.000 A 
ATOM      6  C   UNL     1       5.571   6.858  17.166  0.00  0.00    +0.000 A 
ATOM      7  C   UNL     1       4.217   6.654  17.457  0.00  0.00    +0.000 A 
ATOM      8  C   UNL     1       3.828   5.591  18.275  0.00  0.00    +0.000 A 
ATOM      9  N   UNL     1       2.503   5.555  18.768  0.00  0.00    +0.000 NA
ATOM     10  C   UNL     1       2.189   4.500  19.432  0.00  0.00    +0.000 A 
ATOM     11  N   UNL     1       2.993   3.385  19.575  0.00  0.00    +0.000 N 
ATOM     12  C   UNL     1       2.297   2.351  20.294  0.00  0.00    +0.000 C 
ATOM     13  C   UNL     1       1.385   3.171  21.185  0.00  0.00    +0.000 C 
ATOM     14  C   UNL     1       0.943   4.306  20.250  0.00  0.00    +0.000 C 
ENDROOT
TORSDOF 0
ENDMDL
MODEL 8
REMARK VINA RESULT:      -6.6      1.776      4.920
REMARK  Name = 
REMARK  0 active torsions:
REMARK  status: ('A' for Active; 'I' for Inactive)
REMARK                            x       y       z     vdW  Elec       q    Type
REMARK                         _______ _______ _______ _____ _____    ______ ____
ROOT
ATOM      1  O   UNL     1       3.238   6.955  18.544  0.00  0.00    +0.000 OA
ATOM      2  C   UNL     1       3.347   5.834  18.063  0.00  0.00    +0.000 A 
ATOM      3  C   UNL     1       2.609   4.678  18.615  0.00  0.00    +0.000 A 
ATOM      4  C   UNL     1       1.714   4.843  19.677  0.00  0.00    +0.000 A 
ATOM      5  C   UNL     1       0.965   3.751  20.110  0.00  0.00    +0.000 A 
ATOM      6  C   UNL     1       1.090   2.520  19.462  0.00  0.00    +0.000 A 
ATOM      7  C   UNL     1       2.030   2.350  18.440  0.00  0.00    +0.000 A 
ATOM      8  C   UNL     1       2.834   3.422  18.042  0.00  0.00    +0.000 A 
ATOM      9  N   UNL     1       3.945   3.170  17.203  0.00  0.00    +0.000 NA
ATOM     10  C   UNL     1       4.579   4.213  16.801  0.00  0.00    +0.000 A 
ATOM     11  N   UNL     1       4.181   5.518  17.020  0.00  0.00    +0.000 N 
ATOM     12  C   UNL     1       5.064   6.434  16.350  0.00  0.00    +0.000 C 
ATOM     13  C   UNL     1       6.370   5.663  16.379  0.00  0.00    +0.000 C 
ATOM     14  C   UNL     1       5.910   4.225  16.101  0.00  0.00    +0.000 C 
ENDROOT
TORSDOF 0
ENDMDL
MODEL 9
REMARK VINA RESULT:      -6.5      2.247      4.492
REMARK  Name = 
REMARK  0 active torsions:
REMARK  status: ('A' for Active; 'I' for Inactive)
REMARK                            x       y       z     vdW  Elec       q    Type
REMARK                         _______ _______ _______ _____ _____    ______ ____
ROOT
ATOM      1  O   UNL     1       4.611   4.042  15.921  0.00  0.00    +0.000 OA
ATOM      2  C   UNL     1       4.706   4.175  17.134  0.00  0.00    +0.000 A 
ATOM      3  C   UNL     1       3.522   4.097  18.018  0.00  0.00    +0.000 A 
ATOM      4  C   UNL     1       2.257   3.812  17.493  0.00  0.00    +0.000 A 
ATOM      5  C   UNL     1       1.181   3.653  18.364  0.00  0.00    +0.000 A 
ATOM      6  C   UNL     1       1.382   3.746  19.743  0.00  0.00    +0.000 A 
ATOM      7  C   UNL     1       2.639   4.088  20.254  0.00  0.00    +0.000 A 
ATOM      8  C   UNL     1       3.709   4.316  19.387  0.00  0.00    +0.000 A 
ATOM      9  N   UNL     1       4.888   4.911  19.894  0.00  0.00    +0.000 NA
ATOM     10  C   UNL     1       5.863   5.000  19.062  0.00  0.00    +0.000 A 
ATOM     11  N   UNL     1       5.877   4.453  17.794  0.00  0.00    +0.000 N 
ATOM     12  C   UNL     1       7.157   4.655  17.170  0.00  0.00    +0.000 C 
ATOM     13  C   UNL     1       7.598   5.957  17.812  0.00  0.00    +0.000 C 
ATOM     14  C   UNL     1       7.131   5.783  19.264  0.00  0.00    +0.000 C 
ENDROOT
TORSDOF 0
ENDMDL
