MODEL 1
REMARK VINA RESULT:      -7.1      0.000      0.000
REMARK  Name = 
REMARK  6 active torsions:
REMARK  status: ('A' for Active; 'I' for Inactive)
REMARK    1  A    between atoms: C_1  and  C_2
REMARK    2  A    between atoms: C_2  and  C_3
REMARK    3  A    between atoms: C_3  and  O_4
REMARK    4  A    between atoms: O_4  and  C_5
REMARK    5  A    between atoms: C_8  and  C_9
REMARK    6  A    between atoms: C_16  and  O_17
REMARK                            x       y       z     vdW  Elec       q    Type
REMARK                         _______ _______ _______ _____ _____    ______ ____
ROOT
ATOM      1  C   UNL     1       4.325   4.051  18.336  0.00  0.00    +0.000 A 
ATOM      2  C   UNL     1       4.452   2.838  17.674  0.00  0.00    +0.000 A 
ATOM      3  S   UNL     1       3.259   1.705  18.116  0.00  0.00    +0.000 S 
ATOM      4  C   UNL     1       2.560   2.795  19.216  0.00  0.00    +0.000 A 
ATOM      5  N   UNL     1       1.489   2.422  19.938  0.00  0.00    +0.000 NA
ATOM      6  C   UNL     1       1.049   3.392  20.746  0.00  0.00    +0.000 A 
ATOM      7  N   UNL     1       1.547   4.630  20.878  0.00  0.00    +0.000 NA
ATOM      8  C   UNL     1       2.605   4.939  20.123  0.00  0.00    +0.000 A 
ATOM      9  C   UNL     1       3.200   4.026  19.248  0.00  0.00    +0.000 A 
ENDROOT
BRANCH   1  13
ATOM     10  C   UNL     1       7.040   7.258  17.454  0.00  0.00    +0.000 A 
ATOM     11  C   UNL     1       5.782   7.196  16.854  0.00  0.00    +0.000 A 
ATOM     12  C   UNL     1       4.902   6.157  17.158  0.00  0.00    +0.000 A 
ATOM     13  C   UNL     1       5.266   5.138  18.047  0.00  0.00    +0.000 A 
ATOM     14  C   UNL     1       6.537   5.194  18.629  0.00  0.00    +0.000 A 
ATOM     15  C   UNL     1       7.410   6.257  18.349  0.00  0.00    +0.000 A 
BRANCH  10  16
ATOM     16  O   UNL     1       7.971   8.244  17.232  0.00  0.00    +0.000 OA
BRANCH  16  17
ATOM     17  C   UNL     1       8.536   8.805  18.417  0.00  0.00    +0.000 C 
BRANCH  17  19
ATOM     18  C   UNL     1       9.659  10.794  19.408  0.00  0.00    +0.000 C 
ATOM     19  C   UNL     1       8.881  10.272  18.209  0.00  0.00    +0.000 C 
ENDBRANCH  17  19
ENDBRANCH  16  17
ENDBRANCH  10  16
ENDBRANCH   1  13
BRANCH   8  20
ATOM     20  O   UNL     1       3.041   6.220  20.300  0.00  0.00    +0.000 OA
ATOM     21  H   UNL     1       2.746   6.625  19.463  0.00  0.00    +0.000 HD
ENDBRANCH   8  20
TORSDOF 5
ENDMDL
MODEL 2
REMARK VINA RESULT:      -7.1      0.420      1.150
REMARK  Name = 
REMARK  6 active torsions:
REMARK  status: ('A' for Active; 'I' for Inactive)
REMARK    1  A    between atoms: C_1  and  C_2
REMARK    2  A    between atoms: C_2  and  C_3
REMARK    3  A    between atoms: C_3  and  O_4
REMARK    4  A    between atoms: O_4  and  C_5
REMARK    5  A    between atoms: C_8  and  C_9
REMARK    6  A    between atoms: C_16  and  O_17
REMARK                            x       y       z     vdW  Elec       q    Type
REMARK                         _______ _______ _______ _____ _____    ______ ____
ROOT
ATOM      1  C   UNL     1       4.259   4.072  18.346  0.00  0.00    +0.000 A 
ATOM      2  C   UNL     1       4.353   2.832  17.731  0.00  0.00    +0.000 A 
ATOM      3  S   UNL     1       3.093   1.770  18.166  0.00  0.00    +0.000 S 
ATOM      4  C   UNL     1       2.407   2.930  19.203  0.00  0.00    +0.000 A 
ATOM      5  N   UNL     1       1.295   2.632  19.896  0.00  0.00    +0.000 NA
ATOM      6  C   UNL     1       0.872   3.649  20.654  0.00  0.00    +0.000 A 
ATOM      7  N   UNL     1       1.422   4.866  20.761  0.00  0.00    +0.000 NA
ATOM      8  C   UNL     1       2.519   5.100  20.037  0.00  0.00    +0.000 A 
ATOM      9  C   UNL     1       3.102   4.131  19.216  0.00  0.00    +0.000 A 
ENDROOT
BRANCH   1  13
ATOM     10  C   UNL     1       7.226   7.065  17.527  0.00  0.00    +0.000 A 
ATOM     11  C   UNL     1       7.500   5.996  18.380  0.00  0.00    +0.000 A 
ATOM     12  C   UNL     1       6.533   5.021  18.630  0.00  0.00    +0.000 A 
ATOM     13  C   UNL     1       5.259   5.104  18.055  0.00  0.00    +0.000 A 
ATOM     14  C   UNL     1       4.983   6.190  17.218  0.00  0.00    +0.000 A 
ATOM     15  C   UNL     1       5.966   7.153  16.941  0.00  0.00    +0.000 A 
BRANCH  10  16
ATOM     16  O   UNL     1       8.112   8.066  17.209  0.00  0.00    +0.000 OA
BRANCH  16  17
ATOM     17  C   UNL     1       7.851   9.315  17.850  0.00  0.00    +0.000 C 
BRANCH  17  19
ATOM     18  C   UNL     1       9.450  11.129  18.446  0.00  0.00    +0.000 C 
ATOM     19  C   UNL     1       9.005   9.707  18.760  0.00  0.00    +0.000 C 
ENDBRANCH  17  19
ENDBRANCH  16  17
ENDBRANCH  10  16
ENDBRANCH   1  13
BRANCH   8  20
ATOM     20  O   UNL     1       3.008   6.366  20.186  0.00  0.00    +0.000 OA
ATOM     21  H   UNL     1       3.146   6.391  21.150  0.00  0.00    +0.000 HD
ENDBRANCH   8  20
TORSDOF 5
ENDMDL
MODEL 3
REMARK VINA RESULT:      -6.9      3.098      4.477
REMARK  Name = 
REMARK  6 active torsions:
REMARK  status: ('A' for Active; 'I' for Inactive)
REMARK    1  A    between atoms: C_1  and  C_2
REMARK    2  A    between atoms: C_2  and  C_3
REMARK    3  A    between atoms: C_3  and  O_4
REMARK    4  A    between atoms: O_4  and  C_5
REMARK    5  A    between atoms: C_8  and  C_9
REMARK    6  A    between atoms: C_16  and  O_17
REMARK                            x       y       z     vdW  Elec       q    Type
REMARK                         _______ _______ _______ _____ _____    ______ ____
ROOT
ATOM      1  C   UNL     1       3.848   5.233  18.626  0.00  0.00    +0.000 A 
ATOM      2  C   UNL     1       3.090   6.381  18.808  0.00  0.00    +0.000 A 
ATOM      3  S   UNL     1       2.024   6.277  20.134  0.00  0.00    +0.000 S 
ATOM      4  C   UNL     1       2.531   4.692  20.480  0.00  0.00    +0.000 A 
ATOM      5  N   UNL     1       1.982   4.025  21.511  0.00  0.00    +0.000 NA
ATOM      6  C   UNL     1       2.494   2.800  21.662  0.00  0.00    +0.000 A 
ATOM      7  N   UNL     1       3.455   2.223  20.928  0.00  0.00    +0.000 NA
ATOM      8  C   UNL     1       3.966   2.945  19.927  0.00  0.00    +0.000 A 
ATOM      9  C   UNL     1       3.519   4.233  19.621  0.00  0.00    +0.000 A 
ENDROOT
BRANCH   1  13
ATOM     10  C   UNL     1       6.753   5.107  15.467  0.00  0.00    +0.000 A 
ATOM     11  C   UNL     1       6.906   5.973  16.550  0.00  0.00    +0.000 A 
ATOM     12  C   UNL     1       5.963   5.997  17.578  0.00  0.00    +0.000 A 
ATOM     13  C   UNL     1       4.829   5.177  17.538  0.00  0.00    +0.000 A 
ATOM     14  C   UNL     1       4.671   4.326  16.439  0.00  0.00    +0.000 A 
ATOM     15  C   UNL     1       5.635   4.278  15.420  0.00  0.00    +0.000 A 
BRANCH  10  16
ATOM     16  O   UNL     1       7.629   5.000  14.414  0.00  0.00    +0.000 OA
BRANCH  16  17
ATOM     17  C   UNL     1       7.019   5.060  13.125  0.00  0.00    +0.000 C 
BRANCH  17  19
ATOM     18  C   UNL     1       5.742   3.220  12.038  0.00  0.00    +0.000 C 
ATOM     19  C   UNL     1       7.130   3.721  12.412  0.00  0.00    +0.000 C 
ENDBRANCH  17  19
ENDBRANCH  16  17
ENDBRANCH  10  16
ENDBRANCH   1  13
BRANCH   8  20
ATOM     20  O   UNL     1       4.951   2.298  19.239  0.00  0.00    +0.000 OA
ATOM     21  H   UNL     1       5.421   3.056  18.845  0.00  0.00    +0.000 HD
ENDBRANCH   8  20
TORSDOF 5
ENDMDL
MODEL 4
REMARK VINA RESULT:      -6.9      3.163      4.440
REMARK  Name = 
REMARK  6 active torsions:
REMARK  status: ('A' for Active; 'I' for Inactive)
REMARK    1  A    between atoms: C_1  and  C_2
REMARK    2  A    between atoms: C_2  and  C_3
REMARK    3  A    between atoms: C_3  and  O_4
REMARK    4  A    between atoms: O_4  and  C_5
REMARK    5  A    between atoms: C_8  and  C_9
REMARK    6  A    between atoms: C_16  and  O_17
REMARK                            x       y       z     vdW  Elec       q    Type
REMARK                         _______ _______ _______ _____ _____    ______ ____
ROOT
ATOM      1  C   UNL     1       3.913   5.192  18.547  0.00  0.00    +0.000 A 
ATOM      2  C   UNL     1       3.183   6.364  18.674  0.00  0.00    +0.000 A 
ATOM      3  S   UNL     1       2.114   6.349  20.002  0.00  0.00    +0.000 S 
ATOM      4  C   UNL     1       2.582   4.770  20.422  0.00  0.00    +0.000 A 
ATOM      5  N   UNL     1       2.017   4.165  21.482  0.00  0.00    +0.000 NA
ATOM      6  C   UNL     1       2.498   2.935  21.690  0.00  0.00    +0.000 A 
ATOM      7  N   UNL     1       3.446   2.302  20.985  0.00  0.00    +0.000 NA
ATOM      8  C   UNL     1       3.974   2.964  19.952  0.00  0.00    +0.000 A 
ATOM      9  C   UNL     1       3.559   4.247  19.586  0.00  0.00    +0.000 A 
ENDROOT
BRANCH   1  13
ATOM     10  C   UNL     1       6.747   4.769  15.350  0.00  0.00    +0.000 A 
ATOM     11  C   UNL     1       5.587   3.994  15.389  0.00  0.00    +0.000 A 
ATOM     12  C   UNL     1       4.666   4.149  16.426  0.00  0.00    +0.000 A 
ATOM     13  C   UNL     1       4.892   5.061  17.464  0.00  0.00    +0.000 A 
ATOM     14  C   UNL     1       6.067   5.819  17.429  0.00  0.00    +0.000 A 
ATOM     15  C   UNL     1       6.978   5.687  16.370  0.00  0.00    +0.000 A 
BRANCH  10  16
ATOM     16  O   UNL     1       7.706   4.700  14.368  0.00  0.00    +0.000 OA
BRANCH  16  17
ATOM     17  C   UNL     1       7.277   5.159  13.086  0.00  0.00    +0.000 C 
BRANCH  17  19
ATOM     18  C   UNL     1       5.981   3.279  12.092  0.00  0.00    +0.000 C 
ATOM     19  C   UNL     1       7.306   4.027  12.070  0.00  0.00    +0.000 C 
ENDBRANCH  17  19
ENDBRANCH  16  17
ENDBRANCH  10  16
ENDBRANCH   1  13
BRANCH   8  20
ATOM     20  O   UNL     1       4.944   2.262  19.297  0.00  0.00    +0.000 OA
ATOM     21  H   UNL     1       5.739   2.751  19.578  0.00  0.00    +0.000 HD
ENDBRANCH   8  20
TORSDOF 5
ENDMDL
MODEL 5
REMARK VINA RESULT:      -6.8      3.259      4.434
REMARK  Name = 
REMARK  6 active torsions:
REMARK  status: ('A' for Active; 'I' for Inactive)
REMARK    1  A    between atoms: C_1  and  C_2
REMARK    2  A    between atoms: C_2  and  C_3
REMARK    3  A    between atoms: C_3  and  O_4
REMARK    4  A    between atoms: O_4  and  C_5
REMARK    5  A    between atoms: C_8  and  C_9
REMARK    6  A    between atoms: C_16  and  O_17
REMARK                            x       y       z     vdW  Elec       q    Type
REMARK                         _______ _______ _______ _____ _____    ______ ____
ROOT
ATOM      1  C   UNL     1       3.626   5.204  18.543  0.00  0.00    +0.000 A 
ATOM      2  C   UNL     1       3.330   6.374  19.228  0.00  0.00    +0.000 A 
ATOM      3  S   UNL     1       2.104   6.176  20.396  0.00  0.00    +0.000 S 
ATOM      4  C   UNL     1       1.923   4.533  19.997  0.00  0.00    +0.000 A 
ATOM      5  N   UNL     1       1.008   3.787  20.641  0.00  0.00    +0.000 NA
ATOM      6  C   UNL     1       0.996   2.516  20.225  0.00  0.00    +0.000 A 
ATOM      7  N   UNL     1       1.779   1.958  19.291  0.00  0.00    +0.000 NA
ATOM      8  C   UNL     1       2.674   2.753  18.700  0.00  0.00    +0.000 A 
ATOM      9  C   UNL     1       2.793   4.112  19.002  0.00  0.00    +0.000 A 
ENDROOT
BRANCH   1  13
ATOM     10  C   UNL     1       6.734   5.182  15.581  0.00  0.00    +0.000 A 
ATOM     11  C   UNL     1       6.883   4.492  16.785  0.00  0.00    +0.000 A 
ATOM     12  C   UNL     1       5.862   4.495  17.735  0.00  0.00    +0.000 A 
ATOM     13  C   UNL     1       4.676   5.209  17.520  0.00  0.00    +0.000 A 
ATOM     14  C   UNL     1       4.542   5.915  16.321  0.00  0.00    +0.000 A 
ATOM     15  C   UNL     1       5.556   5.886  15.350  0.00  0.00    +0.000 A 
BRANCH  10  16
ATOM     16  O   UNL     1       7.673   5.229  14.580  0.00  0.00    +0.000 OA
BRANCH  16  17
ATOM     17  C   UNL     1       7.165   4.950  13.275  0.00  0.00    +0.000 C 
BRANCH  17  19
ATOM     18  C   UNL     1       5.421   3.539  12.195  0.00  0.00    +0.000 C 
ATOM     19  C   UNL     1       6.544   3.563  13.222  0.00  0.00    +0.000 C 
ENDBRANCH  17  19
ENDBRANCH  16  17
ENDBRANCH  10  16
ENDBRANCH   1  13
BRANCH   8  20
ATOM     20  O   UNL     1       3.445   2.108  17.777  0.00  0.00    +0.000 OA
ATOM     21  H   UNL     1       2.874   2.174  16.990  0.00  0.00    +0.000 HD
ENDBRANCH   8  20
TORSDOF 5
ENDMDL
MODEL 6
REMARK VINA RESULT:      -6.7      3.808      5.520
REMARK  Name = 
REMARK  6 active torsions:
REMARK  status: ('A' for Active; 'I' for Inactive)
REMARK    1  A    between atoms: C_1  and  C_2
REMARK    2  A    between atoms: C_2  and  C_3
REMARK    3  A    between atoms: C_3  and  O_4
REMARK    4  A    between atoms: O_4  and  C_5
REMARK    5  A    between atoms: C_8  and  C_9
REMARK    6  A    between atoms: C_16  and  O_17
REMARK                            x       y       z     vdW  Elec       q    Type
REMARK                         _______ _______ _______ _____ _____    ______ ____
ROOT
ATOM      1  C   UNL     1       3.242   5.967  18.166  0.00  0.00    +0.000 A 
ATOM      2  C   UNL     1       4.377   6.144  17.389  0.00  0.00    +0.000 A 
ATOM      3  S   UNL     1       5.103   4.676  16.917  0.00  0.00    +0.000 S 
ATOM      4  C   UNL     1       3.935   3.772  17.758  0.00  0.00    +0.000 A 
ATOM      5  N   UNL     1       4.002   2.429  17.758  0.00  0.00    +0.000 NA
ATOM      6  C   UNL     1       3.008   1.863  18.450  0.00  0.00    +0.000 A 
ATOM      7  N   UNL     1       2.008   2.484  19.091  0.00  0.00    +0.000 NA
ATOM      8  C   UNL     1       1.994   3.818  19.042  0.00  0.00    +0.000 A 
ATOM      9  C   UNL     1       2.978   4.559  18.382  0.00  0.00    +0.000 A 
ENDROOT
BRANCH   1  13
ATOM     10  C   UNL     1       1.044   9.414  19.478  0.00  0.00    +0.000 A 
ATOM     11  C   UNL     1       1.410   9.261  18.140  0.00  0.00    +0.000 A 
ATOM     12  C   UNL     1       2.113   8.131  17.722  0.00  0.00    +0.000 A 
ATOM     13  C   UNL     1       2.492   7.137  18.633  0.00  0.00    +0.000 A 
ATOM     14  C   UNL     1       2.141   7.307  19.977  0.00  0.00    +0.000 A 
ATOM     15  C   UNL     1       1.406   8.428  20.393  0.00  0.00    +0.000 A 
BRANCH  10  16
ATOM     16  O   UNL     1       0.343  10.481  19.986  0.00  0.00    +0.000 OA
BRANCH  16  17
ATOM     17  C   UNL     1       0.759  10.901  21.286  0.00  0.00    +0.000 C 
BRANCH  17  19
ATOM     18  C   UNL     1      -0.638   9.984  23.132  0.00  0.00    +0.000 C 
ATOM     19  C   UNL     1      -0.443  11.157  22.181  0.00  0.00    +0.000 C 
ENDBRANCH  17  19
ENDBRANCH  16  17
ENDBRANCH  10  16
ENDBRANCH   1  13
BRANCH   8  20
ATOM     20  O   UNL     1       0.936   4.374  19.701  0.00  0.00    +0.000 OA
ATOM     21  H   UNL     1       0.826   3.738  20.431  0.00  0.00    +0.000 HD
ENDBRANCH   8  20
TORSDOF 5
ENDMDL
MODEL 7
REMARK VINA RESULT:      -6.6      3.275      4.321
REMARK  Name = 
REMARK  6 active torsions:
REMARK  status: ('A' for Active; 'I' for Inactive)
REMARK    1  A    between atoms: C_1  and  C_2
REMARK    2  A    between atoms: C_2  and  C_3
REMARK    3  A    between atoms: C_3  and  O_4
REMARK    4  A    between atoms: O_4  and  C_5
REMARK    5  A    between atoms: C_8  and  C_9
REMARK    6  A    between atoms: C_16  and  O_17
REMARK                            x       y       z     vdW  Elec       q    Type
REMARK                         _______ _______ _______ _____ _____    ______ ____
ROOT
ATOM      1  C   UNL     1       3.754   5.205  18.455  0.00  0.00    +0.000 A 
ATOM      2  C   UNL     1       3.372   6.414  19.016  0.00  0.00    +0.000 A 
ATOM      3  S   UNL     1       2.179   6.248  20.222  0.00  0.00    +0.000 S 
ATOM      4  C   UNL     1       2.127   4.563  20.006  0.00  0.00    +0.000 A 
ATOM      5  N   UNL     1       1.282   3.821  20.743  0.00  0.00    +0.000 NA
ATOM      6  C   UNL     1       1.368   2.515  20.467  0.00  0.00    +0.000 A 
ATOM      7  N   UNL     1       2.184   1.923  19.583  0.00  0.00    +0.000 NA
ATOM      8  C   UNL     1       3.005   2.717  18.892  0.00  0.00    +0.000 A 
ATOM      9  C   UNL     1       3.017   4.106  19.044  0.00  0.00    +0.000 A 
ENDROOT
BRANCH   1  13
ATOM     10  C   UNL     1       6.753   5.170  15.382  0.00  0.00    +0.000 A 
ATOM     11  C   UNL     1       5.544   5.842  15.199  0.00  0.00    +0.000 A 
ATOM     12  C   UNL     1       4.581   5.858  16.209  0.00  0.00    +0.000 A 
ATOM     13  C   UNL     1       4.789   5.181  17.417  0.00  0.00    +0.000 A 
ATOM     14  C   UNL     1       5.995   4.491  17.586  0.00  0.00    +0.000 A 
ATOM     15  C   UNL     1       6.977   4.502  16.583  0.00  0.00    +0.000 A 
BRANCH  10  16
ATOM     16  O   UNL     1       7.766   5.106  14.456  0.00  0.00    +0.000 OA
BRANCH  16  17
ATOM     17  C   UNL     1       7.328   5.088  13.097  0.00  0.00    +0.000 C 
BRANCH  17  19
ATOM     18  C   UNL     1       5.574   3.520  12.282  0.00  0.00    +0.000 C 
ATOM     19  C   UNL     1       7.046   3.666  12.638  0.00  0.00    +0.000 C 
ENDBRANCH  17  19
ENDBRANCH  16  17
ENDBRANCH  10  16
ENDBRANCH   1  13
BRANCH   8  20
ATOM     20  O   UNL     1       3.816   2.039  18.028  0.00  0.00    +0.000 OA
ATOM     21  H   UNL     1       4.692   2.336  18.335  0.00  0.00    +0.000 HD
ENDBRANCH   8  20
TORSDOF 5
ENDMDL
MODEL 8
REMARK VINA RESULT:      -6.6      3.789      5.566
REMARK  Name = 
REMARK  6 active torsions:
REMARK  status: ('A' for Active; 'I' for Inactive)
REMARK    1  A    between atoms: C_1  and  C_2
REMARK    2  A    between atoms: C_2  and  C_3
REMARK    3  A    between atoms: C_3  and  O_4
REMARK    4  A    between atoms: O_4  and  C_5
REMARK    5  A    between atoms: C_8  and  C_9
REMARK    6  A    between atoms: C_16  and  O_17
REMARK                            x       y       z     vdW  Elec       q    Type
REMARK                         _______ _______ _______ _____ _____    ______ ____
ROOT
ATOM      1  C   UNL     1       3.140   5.894  18.166  0.00  0.00    +0.000 A 
ATOM      2  C   UNL     1       4.249   6.020  17.341  0.00  0.00    +0.000 A 
ATOM      3  S   UNL     1       4.918   4.520  16.885  0.00  0.00    +0.000 S 
ATOM      4  C   UNL     1       3.761   3.671  17.796  0.00  0.00    +0.000 A 
ATOM      5  N   UNL     1       3.794   2.327  17.833  0.00  0.00    +0.000 NA
ATOM      6  C   UNL     1       2.813   1.809  18.579  0.00  0.00    +0.000 A 
ATOM      7  N   UNL     1       1.854   2.473  19.239  0.00  0.00    +0.000 NA
ATOM      8  C   UNL     1       1.873   3.806  19.151  0.00  0.00    +0.000 A 
ATOM      9  C   UNL     1       2.849   4.501  18.433  0.00  0.00    +0.000 A 
ENDROOT
BRANCH   1  13
ATOM     10  C   UNL     1       1.091   9.397  19.568  0.00  0.00    +0.000 A 
ATOM     11  C   UNL     1       1.473   8.386  20.450  0.00  0.00    +0.000 A 
ATOM     12  C   UNL     1       2.150   7.258  19.987  0.00  0.00    +0.000 A 
ATOM     13  C   UNL     1       2.439   7.097  18.626  0.00  0.00    +0.000 A 
ATOM     14  C   UNL     1       2.035   8.105  17.743  0.00  0.00    +0.000 A 
ATOM     15  C   UNL     1       1.382   9.255  18.214  0.00  0.00    +0.000 A 
BRANCH  10  16
ATOM     16  O   UNL     1       0.433  10.549  19.927  0.00  0.00    +0.000 OA
BRANCH  16  17
ATOM     17  C   UNL     1       0.704  10.998  21.255  0.00  0.00    +0.000 C 
BRANCH  17  19
ATOM     18  C   UNL     1      -0.544   9.979  23.153  0.00  0.00    +0.000 C 
ATOM     19  C   UNL     1      -0.574  11.055  22.077  0.00  0.00    +0.000 C 
ENDBRANCH  17  19
ENDBRANCH  16  17
ENDBRANCH  10  16
ENDBRANCH   1  13
BRANCH   8  20
ATOM     20  O   UNL     1       0.855   4.408  19.832  0.00  0.00    +0.000 OA
ATOM     21  H   UNL     1       0.248   3.654  19.950  0.00  0.00    +0.000 HD
ENDBRANCH   8  20
TORSDOF 5
ENDMDL
MODEL 9
REMARK VINA RESULT:      -6.6      3.938      5.640
REMARK  Name = 
REMARK  6 active torsions:
REMARK  status: ('A' for Active; 'I' for Inactive)
REMARK    1  A    between atoms: C_1  and  C_2
REMARK    2  A    between atoms: C_2  and  C_3
REMARK    3  A    between atoms: C_3  and  O_4
REMARK    4  A    between atoms: O_4  and  C_5
REMARK    5  A    between atoms: C_8  and  C_9
REMARK    6  A    between atoms: C_16  and  O_17
REMARK                            x       y       z     vdW  Elec       q    Type
REMARK                         _______ _______ _______ _____ _____    ______ ____
ROOT
ATOM      1  C   UNL     1       3.219   5.863  18.218  0.00  0.00    +0.000 A 
ATOM      2  C   UNL     1       4.339   5.996  17.410  0.00  0.00    +0.000 A 
ATOM      3  S   UNL     1       5.024   4.501  16.963  0.00  0.00    +0.000 S 
ATOM      4  C   UNL     1       3.859   3.644  17.856  0.00  0.00    +0.000 A 
ATOM      5  N   UNL     1       3.900   2.300  17.892  0.00  0.00    +0.000 NA
ATOM      6  C   UNL     1       2.911   1.775  18.623  0.00  0.00    +0.000 A 
ATOM      7  N   UNL     1       1.938   2.433  19.268  0.00  0.00    +0.000 NA
ATOM      8  C   UNL     1       1.949   3.765  19.181  0.00  0.00    +0.000 A 
ATOM      9  C   UNL     1       2.932   4.468  18.479  0.00  0.00    +0.000 A 
ENDROOT
BRANCH   1  13
ATOM     10  C   UNL     1       1.121   9.390  19.481  0.00  0.00    +0.000 A 
ATOM     11  C   UNL     1       1.484   9.209  18.146  0.00  0.00    +0.000 A 
ATOM     12  C   UNL     1       2.154   8.053  17.743  0.00  0.00    +0.000 A 
ATOM     13  C   UNL     1       2.503   7.061  18.668  0.00  0.00    +0.000 A 
ATOM     14  C   UNL     1       2.155   7.259  20.008  0.00  0.00    +0.000 A 
ATOM     15  C   UNL     1       1.453   8.406  20.408  0.00  0.00    +0.000 A 
BRANCH  10  16
ATOM     16  O   UNL     1       0.451  10.484  19.973  0.00  0.00    +0.000 OA
BRANCH  16  17
ATOM     17  C   UNL     1      -0.148  11.311  18.975  0.00  0.00    +0.000 C 
BRANCH  17  19
ATOM     18  C   UNL     1      -2.090  10.300  17.789  0.00  0.00    +0.000 C 
ATOM     19  C   UNL     1      -1.661  11.150  18.976  0.00  0.00    +0.000 C 
ENDBRANCH  17  19
ENDBRANCH  16  17
ENDBRANCH  10  16
ENDBRANCH   1  13
BRANCH   8  20
ATOM     20  O   UNL     1       0.918   4.361  19.848  0.00  0.00    +0.000 OA
ATOM     21  H   UNL     1       0.172   4.133  19.263  0.00  0.00    +0.000 HD
ENDBRANCH   8  20
TORSDOF 5
ENDMDL
