MODEL 1
REMARK VINA RESULT:      -7.9      0.000      0.000
REMARK  Name = 
REMARK  6 active torsions:
REMARK  status: ('A' for Active; 'I' for Inactive)
REMARK    1  A    between atoms: C_1  and  N_2
REMARK    2  A    between atoms: C_3  and  C_4
REMARK    3  A    between atoms: C_11  and  N_12
REMARK    4  A    between atoms: C_15  and  O_16
REMARK    5  A    between atoms: O_16  and  C_17
REMARK    6  A    between atoms: C_17  and  C_18
REMARK                            x       y       z     vdW  Elec       q    Type
REMARK                         _______ _______ _______ _____ _____    ______ ____
ROOT
ATOM      1  N   UNL     1       1.906   7.994  19.592  0.00  0.00    +0.000 N 
ATOM      2  C   UNL     1       1.795   7.780  20.957  0.00  0.00    +0.000 A 
ATOM      3  C   UNL     1       1.223   8.672  21.767  0.00  0.00    +0.000 A 
ATOM      4  C   UNL     1       0.681   9.895  21.228  0.00  0.00    +0.000 A 
ATOM      5  C   UNL     1       0.750  10.133  19.911  0.00  0.00    +0.000 A 
ATOM      6  C   UNL     1       1.429   9.171  18.994  0.00  0.00    +0.000 A 
ATOM      7  O   UNL     1       1.491   9.461  17.801  0.00  0.00    +0.000 OA
ENDROOT
BRANCH   1  15
ATOM      8  C   UNL     1       6.631   6.840  16.968  0.00  0.00    +0.000 C 
ATOM      9  N   UNL     1       5.523   5.920  16.881  0.00  0.00    +0.000 N 
ATOM     10  C   UNL     1       5.486   4.707  16.236  0.00  0.00    +0.000 A 
ATOM     11  N   UNL     1       4.351   4.081  16.476  0.00  0.00    +0.000 NA
ATOM     12  C   UNL     1       3.620   4.926  17.261  0.00  0.00    +0.000 A 
ATOM     13  C   UNL     1       2.352   4.739  17.824  0.00  0.00    +0.000 A 
ATOM     14  C   UNL     1       1.810   5.766  18.603  0.00  0.00    +0.000 A 
ATOM     15  C   UNL     1       2.489   6.983  18.774  0.00  0.00    +0.000 A 
ATOM     16  C   UNL     1       3.753   7.187  18.200  0.00  0.00    +0.000 A 
ATOM     17  C   UNL     1       4.302   6.117  17.484  0.00  0.00    +0.000 A 
BRANCH  10  18
ATOM     18  C   UNL     1       6.569   4.111  15.342  0.00  0.00    +0.000 C 
ATOM     19  C   UNL     1       6.181   3.678  13.942  0.00  0.00    +0.000 C 
ATOM     20  C   UNL     1       6.986   4.917  14.127  0.00  0.00    +0.000 C 
ENDBRANCH  10  18
ENDBRANCH   1  15
BRANCH   4  21
ATOM     21  O   UNL     1       0.065  10.814  22.060  0.00  0.00    +0.000 OA
BRANCH  21  22
ATOM     22  C   UNL     1      -0.317  12.053  21.447  0.00  0.00    +0.000 C 
BRANCH  22  23
ATOM     23  C   UNL     1      -1.768  12.400  21.679  0.00  0.00    +0.000 A 
ATOM     24  C   UNL     1      -2.335  12.371  22.951  0.00  0.00    +0.000 A 
ATOM     25  C   UNL     1      -3.708  12.568  23.082  0.00  0.00    +0.000 A 
ATOM     26  C   UNL     1      -4.478  12.780  21.945  0.00  0.00    +0.000 A 
ATOM     27 CL   UNL     1      -6.175  12.988  22.061  0.00  0.00    +0.000 Cl
ATOM     28  C   UNL     1      -3.842  12.799  20.716  0.00  0.00    +0.000 A 
ATOM     29  N   UNL     1      -2.509  12.610  20.557  0.00  0.00    +0.000 NA
ENDBRANCH  22  23
ENDBRANCH  21  22
ENDBRANCH   4  21
TORSDOF 5
ENDMDL
MODEL 2
REMARK VINA RESULT:      -7.8      1.329      1.473
REMARK  Name = 
REMARK  6 active torsions:
REMARK  status: ('A' for Active; 'I' for Inactive)
REMARK    1  A    between atoms: C_1  and  N_2
REMARK    2  A    between atoms: C_3  and  C_4
REMARK    3  A    between atoms: C_11  and  N_12
REMARK    4  A    between atoms: C_15  and  O_16
REMARK    5  A    between atoms: O_16  and  C_17
REMARK    6  A    between atoms: C_17  and  C_18
REMARK                            x       y       z     vdW  Elec       q    Type
REMARK                         _______ _______ _______ _____ _____    ______ ____
ROOT
ATOM      1  N   UNL     1       1.918   8.088  19.688  0.00  0.00    +0.000 N 
ATOM      2  C   UNL     1       1.786   7.893  21.054  0.00  0.00    +0.000 A 
ATOM      3  C   UNL     1       1.267   8.825  21.854  0.00  0.00    +0.000 A 
ATOM      4  C   UNL     1       0.806  10.076  21.302  0.00  0.00    +0.000 A 
ATOM      5  C   UNL     1       0.898  10.299  19.984  0.00  0.00    +0.000 A 
ATOM      6  C   UNL     1       1.520   9.289  19.078  0.00  0.00    +0.000 A 
ATOM      7  O   UNL     1       1.607   9.565  17.884  0.00  0.00    +0.000 OA
ENDROOT
BRANCH   1  15
ATOM      8  C   UNL     1       6.515   6.705  16.949  0.00  0.00    +0.000 C 
ATOM      9  N   UNL     1       5.375   5.821  16.923  0.00  0.00    +0.000 N 
ATOM     10  C   UNL     1       5.278   4.593  16.314  0.00  0.00    +0.000 A 
ATOM     11  N   UNL     1       4.131   4.012  16.608  0.00  0.00    +0.000 NA
ATOM     12  C   UNL     1       3.454   4.903  17.392  0.00  0.00    +0.000 A 
ATOM     13  C   UNL     1       2.199   4.774  17.999  0.00  0.00    +0.000 A 
ATOM     14  C   UNL     1       1.717   5.839  18.766  0.00  0.00    +0.000 A 
ATOM     15  C   UNL     1       2.441   7.036  18.881  0.00  0.00    +0.000 A 
ATOM     16  C   UNL     1       3.691   7.182  18.262  0.00  0.00    +0.000 A 
ATOM     17  C   UNL     1       4.182   6.075  17.559  0.00  0.00    +0.000 A 
BRANCH  10  18
ATOM     18  C   UNL     1       6.310   3.937  15.403  0.00  0.00    +0.000 C 
ATOM     19  C   UNL     1       5.935   3.696  13.954  0.00  0.00    +0.000 C 
ATOM     20  C   UNL     1       6.893   4.787  14.291  0.00  0.00    +0.000 C 
ENDBRANCH  10  18
ENDBRANCH   1  15
BRANCH   4  21
ATOM     21  O   UNL     1       0.245  11.038  22.124  0.00  0.00    +0.000 OA
BRANCH  21  22
ATOM     22  C   UNL     1      -1.083  10.763  22.589  0.00  0.00    +0.000 C 
BRANCH  22  23
ATOM     23  C   UNL     1      -1.817  12.005  23.034  0.00  0.00    +0.000 A 
ATOM     24  C   UNL     1      -1.198  13.253  23.062  0.00  0.00    +0.000 A 
ATOM     25  C   UNL     1      -1.885  14.335  23.610  0.00  0.00    +0.000 A 
ATOM     26  C   UNL     1      -3.163  14.143  24.121  0.00  0.00    +0.000 A 
ATOM     27 CL   UNL     1      -4.025  15.439  24.838  0.00  0.00    +0.000 Cl
ATOM     28  C   UNL     1      -3.713  12.875  24.054  0.00  0.00    +0.000 A 
ATOM     29  N   UNL     1      -3.069  11.803  23.528  0.00  0.00    +0.000 NA
ENDBRANCH  22  23
ENDBRANCH  21  22
ENDBRANCH   4  21
TORSDOF 5
ENDMDL
MODEL 3
REMARK VINA RESULT:      -7.6      0.631      1.034
REMARK  Name = 
REMARK  6 active torsions:
REMARK  status: ('A' for Active; 'I' for Inactive)
REMARK    1  A    between atoms: C_1  and  N_2
REMARK    2  A    between atoms: C_3  and  C_4
REMARK    3  A    between atoms: C_11  and  N_12
REMARK    4  A    between atoms: C_15  and  O_16
REMARK    5  A    between atoms: O_16  and  C_17
REMARK    6  A    between atoms: C_17  and  C_18
REMARK                            x       y       z     vdW  Elec       q    Type
REMARK                         _______ _______ _______ _____ _____    ______ ____
ROOT
ATOM      1  N   UNL     1       1.903   8.064  19.380  0.00  0.00    +0.000 N 
ATOM      2  C   UNL     1       1.674   7.837  20.728  0.00  0.00    +0.000 A 
ATOM      3  C   UNL     1       1.066   8.736  21.503  0.00  0.00    +0.000 A 
ATOM      4  C   UNL     1       0.608   9.983  20.940  0.00  0.00    +0.000 A 
ATOM      5  C   UNL     1       0.792  10.235  19.637  0.00  0.00    +0.000 A 
ATOM      6  C   UNL     1       1.513   9.264  18.763  0.00  0.00    +0.000 A 
ATOM      7  O   UNL     1       1.682   9.567  17.584  0.00  0.00    +0.000 OA
ENDROOT
BRANCH   1  15
ATOM      8  C   UNL     1       6.705   6.924  16.893  0.00  0.00    +0.000 C 
ATOM      9  N   UNL     1       5.612   5.987  16.799  0.00  0.00    +0.000 N 
ATOM     10  C   UNL     1       5.607   4.762  16.178  0.00  0.00    +0.000 A 
ATOM     11  N   UNL     1       4.475   4.124  16.403  0.00  0.00    +0.000 NA
ATOM     12  C   UNL     1       3.714   4.975  17.153  0.00  0.00    +0.000 A 
ATOM     13  C   UNL     1       2.435   4.782  17.689  0.00  0.00    +0.000 A 
ATOM     14  C   UNL     1       1.861   5.816  18.434  0.00  0.00    +0.000 A 
ATOM     15  C   UNL     1       2.519   7.045  18.597  0.00  0.00    +0.000 A 
ATOM     16  C   UNL     1       3.793   7.256  18.050  0.00  0.00    +0.000 A 
ATOM     17  C   UNL     1       4.374   6.179  17.368  0.00  0.00    +0.000 A 
BRANCH  10  18
ATOM     18  C   UNL     1       6.719   4.163  15.322  0.00  0.00    +0.000 C 
ATOM     19  C   UNL     1       6.364   3.667  13.934  0.00  0.00    +0.000 C 
ATOM     20  C   UNL     1       7.132   4.935  14.083  0.00  0.00    +0.000 C 
ENDBRANCH  10  18
ENDBRANCH   1  15
BRANCH   4  21
ATOM     21  O   UNL     1      -0.045  10.911  21.733  0.00  0.00    +0.000 OA
BRANCH  21  22
ATOM     22  C   UNL     1      -0.448  12.120  21.077  0.00  0.00    +0.000 C 
BRANCH  22  23
ATOM     23  C   UNL     1      -1.947  12.252  20.958  0.00  0.00    +0.000 A 
ATOM     24  C   UNL     1      -2.590  12.228  19.722  0.00  0.00    +0.000 A 
ATOM     25  C   UNL     1      -3.958  12.490  19.668  0.00  0.00    +0.000 A 
ATOM     26  C   UNL     1      -4.644  12.777  20.842  0.00  0.00    +0.000 A 
ATOM     27 CL   UNL     1      -6.318  13.142  20.813  0.00  0.00    +0.000 Cl
ATOM     28  C   UNL     1      -3.937  12.778  22.032  0.00  0.00    +0.000 A 
ATOM     29  N   UNL     1      -2.607  12.527  22.116  0.00  0.00    +0.000 NA
ENDBRANCH  22  23
ENDBRANCH  21  22
ENDBRANCH   4  21
TORSDOF 5
ENDMDL
MODEL 4
REMARK VINA RESULT:      -7.6      4.597      9.966
REMARK  Name = 
REMARK  6 active torsions:
REMARK  status: ('A' for Active; 'I' for Inactive)
REMARK    1  A    between atoms: C_1  and  N_2
REMARK    2  A    between atoms: C_3  and  C_4
REMARK    3  A    between atoms: C_11  and  N_12
REMARK    4  A    between atoms: C_15  and  O_16
REMARK    5  A    between atoms: O_16  and  C_17
REMARK    6  A    between atoms: C_17  and  C_18
REMARK                            x       y       z     vdW  Elec       q    Type
REMARK                         _______ _______ _______ _____ _____    ______ ____
ROOT
ATOM      1  N   UNL     1       1.321   9.850  19.152  0.00  0.00    +0.000 N 
ATOM      2  C   UNL     1       1.805   9.220  18.015  0.00  0.00    +0.000 A 
ATOM      3  C   UNL     1       2.233   7.957  18.035  0.00  0.00    +0.000 A 
ATOM      4  C   UNL     1       2.184   7.197  19.260  0.00  0.00    +0.000 A 
ATOM      5  C   UNL     1       1.706   7.761  20.378  0.00  0.00    +0.000 A 
ATOM      6  C   UNL     1       1.268   9.187  20.389  0.00  0.00    +0.000 A 
ATOM      7  O   UNL     1       0.872   9.658  21.452  0.00  0.00    +0.000 OA
ENDROOT
BRANCH   1  15
ATOM      8  C   UNL     1       3.186  15.011  18.502  0.00  0.00    +0.000 C 
ATOM      9  N   UNL     1       1.770  14.777  18.652  0.00  0.00    +0.000 N 
ATOM     10  C   UNL     1       0.757  15.703  18.611  0.00  0.00    +0.000 A 
ATOM     11  N   UNL     1      -0.422  15.114  18.655  0.00  0.00    +0.000 NA
ATOM     12  C   UNL     1      -0.163  13.777  18.768  0.00  0.00    +0.000 A 
ATOM     13  C   UNL     1      -1.059  12.703  18.825  0.00  0.00    +0.000 A 
ATOM     14  C   UNL     1      -0.542  11.409  18.940  0.00  0.00    +0.000 A 
ATOM     15  C   UNL     1       0.839  11.187  19.055  0.00  0.00    +0.000 A 
ATOM     16  C   UNL     1       1.744  12.258  19.017  0.00  0.00    +0.000 A 
ATOM     17  C   UNL     1       1.204  13.536  18.831  0.00  0.00    +0.000 A 
BRANCH  10  18
ATOM     18  C   UNL     1       0.903  17.220  18.536  0.00  0.00    +0.000 C 
ATOM     19  C   UNL     1       1.470  17.822  17.265  0.00  0.00    +0.000 C 
ATOM     20  C   UNL     1       0.014  17.954  17.551  0.00  0.00    +0.000 C 
ENDBRANCH  10  18
ENDBRANCH   1  15
BRANCH   4  21
ATOM     21  O   UNL     1       2.605   5.878  19.282  0.00  0.00    +0.000 OA
BRANCH  21  22
ATOM     22  C   UNL     1       4.022   5.677  19.365  0.00  0.00    +0.000 C 
BRANCH  22  23
ATOM     23  C   UNL     1       4.666   5.477  18.014  0.00  0.00    +0.000 A 
ATOM     24  C   UNL     1       4.322   4.408  17.188  0.00  0.00    +0.000 A 
ATOM     25  C   UNL     1       5.047   4.201  16.016  0.00  0.00    +0.000 A 
ATOM     26  C   UNL     1       6.097   5.057  15.704  0.00  0.00    +0.000 A 
ATOM     27 CL   UNL     1       7.036   4.813  14.291  0.00  0.00    +0.000 Cl
ATOM     28  C   UNL     1       6.375   6.099  16.571  0.00  0.00    +0.000 A 
ATOM     29  N   UNL     1       5.688   6.325  17.718  0.00  0.00    +0.000 NA
ENDBRANCH  22  23
ENDBRANCH  21  22
ENDBRANCH   4  21
TORSDOF 5
ENDMDL
MODEL 5
REMARK VINA RESULT:      -7.6      4.251     10.001
REMARK  Name = 
REMARK  6 active torsions:
REMARK  status: ('A' for Active; 'I' for Inactive)
REMARK    1  A    between atoms: C_1  and  N_2
REMARK    2  A    between atoms: C_3  and  C_4
REMARK    3  A    between atoms: C_11  and  N_12
REMARK    4  A    between atoms: C_15  and  O_16
REMARK    5  A    between atoms: O_16  and  C_17
REMARK    6  A    between atoms: C_17  and  C_18
REMARK                            x       y       z     vdW  Elec       q    Type
REMARK                         _______ _______ _______ _____ _____    ______ ____
ROOT
ATOM      1  N   UNL     1       1.389   8.999  19.331  0.00  0.00    +0.000 N 
ATOM      2  C   UNL     1       1.946   8.482  18.172  0.00  0.00    +0.000 A 
ATOM      3  C   UNL     1       2.529   7.283  18.142  0.00  0.00    +0.000 A 
ATOM      4  C   UNL     1       2.578   6.473  19.335  0.00  0.00    +0.000 A 
ATOM      5  C   UNL     1       2.034   6.926  20.472  0.00  0.00    +0.000 A 
ATOM      6  C   UNL     1       1.421   8.285  20.540  0.00  0.00    +0.000 A 
ATOM      7  O   UNL     1       0.970   8.658  21.621  0.00  0.00    +0.000 OA
ENDROOT
BRANCH   1  15
ATOM      8  C   UNL     1       2.512  14.317  18.334  0.00  0.00    +0.000 C 
ATOM      9  N   UNL     1       1.171  13.927  18.696  0.00  0.00    +0.000 N 
ATOM     10  C   UNL     1       0.060  14.728  18.793  0.00  0.00    +0.000 A 
ATOM     11  N   UNL     1      -1.021  14.009  19.022  0.00  0.00    +0.000 NA
ATOM     12  C   UNL     1      -0.592  12.715  19.115  0.00  0.00    +0.000 A 
ATOM     13  C   UNL     1      -1.336  11.547  19.321  0.00  0.00    +0.000 A 
ATOM     14  C   UNL     1      -0.657  10.325  19.377  0.00  0.00    +0.000 A 
ATOM     15  C   UNL     1       0.742  10.268  19.288  0.00  0.00    +0.000 A 
ATOM     16  C   UNL     1       1.499  11.434  19.099  0.00  0.00    +0.000 A 
ATOM     17  C   UNL     1       0.789  12.635  18.977  0.00  0.00    +0.000 A 
BRANCH  10  18
ATOM     18  C   UNL     1       0.012  16.248  18.675  0.00  0.00    +0.000 C 
ATOM     19  C   UNL     1      -1.053  16.993  19.455  0.00  0.00    +0.000 C 
ATOM     20  C   UNL     1       0.364  17.051  19.912  0.00  0.00    +0.000 C 
ENDBRANCH  10  18
ENDBRANCH   1  15
BRANCH   4  21
ATOM     21  O   UNL     1       3.161   5.218  19.304  0.00  0.00    +0.000 OA
BRANCH  21  22
ATOM     22  C   UNL     1       4.594   5.196  19.278  0.00  0.00    +0.000 C 
BRANCH  22  23
ATOM     23  C   UNL     1       5.155   5.167  17.876  0.00  0.00    +0.000 A 
ATOM     24  C   UNL     1       4.630   4.331  16.893  0.00  0.00    +0.000 A 
ATOM     25  C   UNL     1       5.276   4.250  15.661  0.00  0.00    +0.000 A 
ATOM     26  C   UNL     1       6.428   4.996  15.445  0.00  0.00    +0.000 A 
ATOM     27 CL   UNL     1       7.273   4.894  13.957  0.00  0.00    +0.000 Cl
ATOM     28  C   UNL     1       6.886   5.807  16.468  0.00  0.00    +0.000 A 
ATOM     29  N   UNL     1       6.280   5.906  17.677  0.00  0.00    +0.000 NA
ENDBRANCH  22  23
ENDBRANCH  21  22
ENDBRANCH   4  21
TORSDOF 5
ENDMDL
MODEL 6
REMARK VINA RESULT:      -7.6      4.103     10.504
REMARK  Name = 
REMARK  6 active torsions:
REMARK  status: ('A' for Active; 'I' for Inactive)
REMARK    1  A    between atoms: C_1  and  N_2
REMARK    2  A    between atoms: C_3  and  C_4
REMARK    3  A    between atoms: C_11  and  N_12
REMARK    4  A    between atoms: C_15  and  O_16
REMARK    5  A    between atoms: O_16  and  C_17
REMARK    6  A    between atoms: C_17  and  C_18
REMARK                            x       y       z     vdW  Elec       q    Type
REMARK                         _______ _______ _______ _____ _____    ______ ____
ROOT
ATOM      1  N   UNL     1       2.749   7.187  18.849  0.00  0.00    +0.000 N 
ATOM      2  C   UNL     1       3.766   7.411  17.934  0.00  0.00    +0.000 A 
ATOM      3  C   UNL     1       4.648   6.463  17.613  0.00  0.00    +0.000 A 
ATOM      4  C   UNL     1       4.552   5.153  18.209  0.00  0.00    +0.000 A 
ATOM      5  C   UNL     1       3.572   4.888  19.084  0.00  0.00    +0.000 A 
ATOM      6  C   UNL     1       2.605   5.948  19.495  0.00  0.00    +0.000 A 
ATOM      7  O   UNL     1       1.750   5.654  20.328  0.00  0.00    +0.000 OA
ENDROOT
BRANCH   1  15
ATOM      8  C   UNL     1       0.141   9.577  23.095  0.00  0.00    +0.000 C 
ATOM      9  N   UNL     1      -0.115  10.034  21.751  0.00  0.00    +0.000 N 
ATOM     10  C   UNL     1      -0.931  11.066  21.357  0.00  0.00    +0.000 A 
ATOM     11  N   UNL     1      -0.823  11.282  20.061  0.00  0.00    +0.000 NA
ATOM     12  C   UNL     1       0.053  10.341  19.600  0.00  0.00    +0.000 A 
ATOM     13  C   UNL     1       0.540  10.143  18.302  0.00  0.00    +0.000 A 
ATOM     14  C   UNL     1       1.443   9.097  18.081  0.00  0.00    +0.000 A 
ATOM     15  C   UNL     1       1.812   8.226  19.117  0.00  0.00    +0.000 A 
ATOM     16  C   UNL     1       1.316   8.405  20.418  0.00  0.00    +0.000 A 
ATOM     17  C   UNL     1       0.469   9.501  20.626  0.00  0.00    +0.000 A 
BRANCH  10  18
ATOM     18  C   UNL     1      -1.867  11.885  22.240  0.00  0.00    +0.000 C 
ATOM     19  C   UNL     1      -1.272  13.017  23.056  0.00  0.00    +0.000 C 
ATOM     20  C   UNL     1      -2.094  13.334  21.854  0.00  0.00    +0.000 C 
ENDBRANCH  10  18
ENDBRANCH   1  15
BRANCH   4  21
ATOM     21  O   UNL     1       5.450   4.159  17.862  0.00  0.00    +0.000 OA
BRANCH  21  22
ATOM     22  C   UNL     1       6.684   4.607  17.286  0.00  0.00    +0.000 C 
BRANCH  22  23
ATOM     23  C   UNL     1       6.673   4.576  15.777  0.00  0.00    +0.000 A 
ATOM     24  C   UNL     1       5.850   3.702  15.068  0.00  0.00    +0.000 A 
ATOM     25  C   UNL     1       5.984   3.625  13.682  0.00  0.00    +0.000 A 
ATOM     26  C   UNL     1       6.936   4.411  13.045  0.00  0.00    +0.000 A 
ATOM     27 CL   UNL     1       7.157   4.316  11.348  0.00  0.00    +0.000 Cl
ATOM     28  C   UNL     1       7.713   5.257  13.816  0.00  0.00    +0.000 A 
ATOM     29  N   UNL     1       7.607   5.353  15.165  0.00  0.00    +0.000 NA
ENDBRANCH  22  23
ENDBRANCH  21  22
ENDBRANCH   4  21
TORSDOF 5
ENDMDL
MODEL 7
REMARK VINA RESULT:      -7.6      3.940     10.531
REMARK  Name = 
REMARK  6 active torsions:
REMARK  status: ('A' for Active; 'I' for Inactive)
REMARK    1  A    between atoms: C_1  and  N_2
REMARK    2  A    between atoms: C_3  and  C_4
REMARK    3  A    between atoms: C_11  and  N_12
REMARK    4  A    between atoms: C_15  and  O_16
REMARK    5  A    between atoms: O_16  and  C_17
REMARK    6  A    between atoms: C_17  and  C_18
REMARK                            x       y       z     vdW  Elec       q    Type
REMARK                         _______ _______ _______ _____ _____    ______ ____
ROOT
ATOM      1  N   UNL     1       1.833   8.196  19.428  0.00  0.00    +0.000 N 
ATOM      2  C   UNL     1       2.086   7.011  20.102  0.00  0.00    +0.000 A 
ATOM      3  C   UNL     1       2.899   6.077  19.607  0.00  0.00    +0.000 A 
ATOM      4  C   UNL     1       3.560   6.290  18.342  0.00  0.00    +0.000 A 
ATOM      5  C   UNL     1       3.358   7.430  17.667  0.00  0.00    +0.000 A 
ATOM      6  C   UNL     1       2.415   8.466  18.179  0.00  0.00    +0.000 A 
ATOM      7  O   UNL     1       2.244   9.474  17.497  0.00  0.00    +0.000 OA
ENDROOT
BRANCH   1  15
ATOM      8  C   UNL     1      -2.332  11.595  18.147  0.00  0.00    +0.000 C 
ATOM      9  N   UNL     1      -1.804  11.587  19.489  0.00  0.00    +0.000 N 
ATOM     10  C   UNL     1      -2.242  12.316  20.568  0.00  0.00    +0.000 A 
ATOM     11  N   UNL     1      -1.607  11.958  21.667  0.00  0.00    +0.000 NA
ATOM     12  C   UNL     1      -0.708  11.004  21.281  0.00  0.00    +0.000 A 
ATOM     13  C   UNL     1       0.196  10.271  22.060  0.00  0.00    +0.000 A 
ATOM     14  C   UNL     1       1.020   9.337  21.424  0.00  0.00    +0.000 A 
ATOM     15  C   UNL     1       0.988   9.172  20.030  0.00  0.00    +0.000 A 
ATOM     16  C   UNL     1       0.098   9.914  19.239  0.00  0.00    +0.000 A 
ATOM     17  C   UNL     1      -0.764  10.791  19.909  0.00  0.00    +0.000 A 
BRANCH  10  18
ATOM     18  C   UNL     1      -3.304  13.410  20.565  0.00  0.00    +0.000 C 
ATOM     19  C   UNL     1      -4.722  13.030  20.187  0.00  0.00    +0.000 C 
ATOM     20  C   UNL     1      -4.398  13.318  21.612  0.00  0.00    +0.000 C 
ENDBRANCH  10  18
ENDBRANCH   1  15
BRANCH   4  21
ATOM     21  O   UNL     1       4.423   5.335  17.835  0.00  0.00    +0.000 OA
BRANCH  21  22
ATOM     22  C   UNL     1       5.653   5.831  17.290  0.00  0.00    +0.000 C 
BRANCH  22  23
ATOM     23  C   UNL     1       5.916   5.337  15.888  0.00  0.00    +0.000 A 
ATOM     24  C   UNL     1       5.033   4.479  15.235  0.00  0.00    +0.000 A 
ATOM     25  C   UNL     1       5.397   3.951  13.997  0.00  0.00    +0.000 A 
ATOM     26  C   UNL     1       6.629   4.285  13.450  0.00  0.00    +0.000 A 
ATOM     27 CL   UNL     1       7.129   3.627  11.948  0.00  0.00    +0.000 Cl
ATOM     28  C   UNL     1       7.449   5.148  14.155  0.00  0.00    +0.000 A 
ATOM     29  N   UNL     1       7.124   5.676  15.361  0.00  0.00    +0.000 NA
ENDBRANCH  22  23
ENDBRANCH  21  22
ENDBRANCH   4  21
TORSDOF 5
ENDMDL
MODEL 8
REMARK VINA RESULT:      -7.6      4.347      9.984
REMARK  Name = 
REMARK  6 active torsions:
REMARK  status: ('A' for Active; 'I' for Inactive)
REMARK    1  A    between atoms: C_1  and  N_2
REMARK    2  A    between atoms: C_3  and  C_4
REMARK    3  A    between atoms: C_11  and  N_12
REMARK    4  A    between atoms: C_15  and  O_16
REMARK    5  A    between atoms: O_16  and  C_17
REMARK    6  A    between atoms: C_17  and  C_18
REMARK                            x       y       z     vdW  Elec       q    Type
REMARK                         _______ _______ _______ _____ _____    ______ ____
ROOT
ATOM      1  N   UNL     1       1.403   9.181  19.243  0.00  0.00    +0.000 N 
ATOM      2  C   UNL     1       1.958   8.693  18.071  0.00  0.00    +0.000 A 
ATOM      3  C   UNL     1       2.512   7.481  18.003  0.00  0.00    +0.000 A 
ATOM      4  C   UNL     1       2.529   6.628  19.166  0.00  0.00    +0.000 A 
ATOM      5  C   UNL     1       1.986   7.053  20.314  0.00  0.00    +0.000 A 
ATOM      6  C   UNL     1       1.406   8.424  20.426  0.00  0.00    +0.000 A 
ATOM      7  O   UNL     1       0.954   8.769  21.515  0.00  0.00    +0.000 OA
ENDROOT
BRANCH   1  15
ATOM      8  C   UNL     1       2.727  14.533  18.860  0.00  0.00    +0.000 C 
ATOM      9  N   UNL     1       1.347  14.150  19.030  0.00  0.00    +0.000 N 
ATOM     10  C   UNL     1       0.246  14.970  19.071  0.00  0.00    +0.000 A 
ATOM     11  N   UNL     1      -0.867  14.264  19.109  0.00  0.00    +0.000 NA
ATOM     12  C   UNL     1      -0.474  12.955  19.135  0.00  0.00    +0.000 A 
ATOM     13  C   UNL     1      -1.257  11.795  19.149  0.00  0.00    +0.000 A 
ATOM     14  C   UNL     1      -0.611  10.555  19.173  0.00  0.00    +0.000 A 
ATOM     15  C   UNL     1       0.788  10.467  19.240  0.00  0.00    +0.000 A 
ATOM     16  C   UNL     1       1.581  11.624  19.243  0.00  0.00    +0.000 A 
ATOM     17  C   UNL     1       0.912  12.850  19.149  0.00  0.00    +0.000 A 
BRANCH  10  18
ATOM     18  C   UNL     1       0.239  16.496  19.084  0.00  0.00    +0.000 C 
ATOM     19  C   UNL     1       0.968  17.223  17.972  0.00  0.00    +0.000 C 
ATOM     20  C   UNL     1      -0.522  17.195  17.975  0.00  0.00    +0.000 C 
ENDBRANCH  10  18
ENDBRANCH   1  15
BRANCH   4  21
ATOM     21  O   UNL     1       3.081   5.361  19.095  0.00  0.00    +0.000 OA
BRANCH  21  22
ATOM     22  C   UNL     1       4.490   5.279  19.350  0.00  0.00    +0.000 C 
BRANCH  22  23
ATOM     23  C   UNL     1       5.308   5.143  18.088  0.00  0.00    +0.000 A 
ATOM     24  C   UNL     1       6.328   6.040  17.775  0.00  0.00    +0.000 A 
ATOM     25  C   UNL     1       6.954   5.943  16.534  0.00  0.00    +0.000 A 
ATOM     26  C   UNL     1       6.543   4.963  15.638  0.00  0.00    +0.000 A 
ATOM     27 CL   UNL     1       7.263   4.835  14.088  0.00  0.00    +0.000 Cl
ATOM     28  C   UNL     1       5.527   4.107  16.023  0.00  0.00    +0.000 A 
ATOM     29  N   UNL     1       4.898   4.177  17.222  0.00  0.00    +0.000 NA
ENDBRANCH  22  23
ENDBRANCH  21  22
ENDBRANCH   4  21
TORSDOF 5
ENDMDL
MODEL 9
REMARK VINA RESULT:      -7.5      2.438      3.433
REMARK  Name = 
REMARK  6 active torsions:
REMARK  status: ('A' for Active; 'I' for Inactive)
REMARK    1  A    between atoms: C_1  and  N_2
REMARK    2  A    between atoms: C_3  and  C_4
REMARK    3  A    between atoms: C_11  and  N_12
REMARK    4  A    between atoms: C_15  and  O_16
REMARK    5  A    between atoms: O_16  and  C_17
REMARK    6  A    between atoms: C_17  and  C_18
REMARK                            x       y       z     vdW  Elec       q    Type
REMARK                         _______ _______ _______ _____ _____    ______ ____
ROOT
ATOM      1  N   UNL     1       0.649   9.799  20.121  0.00  0.00    +0.000 N 
ATOM      2  C   UNL     1      -0.251  10.466  19.304  0.00  0.00    +0.000 A 
ATOM      3  C   UNL     1      -1.006  11.468  19.755  0.00  0.00    +0.000 A 
ATOM      4  C   UNL     1      -0.890  11.900  21.126  0.00  0.00    +0.000 A 
ATOM      5  C   UNL     1      -0.019  11.296  21.946  0.00  0.00    +0.000 A 
ATOM      6  C   UNL     1       0.800  10.141  21.475  0.00  0.00    +0.000 A 
ATOM      7  O   UNL     1       1.556   9.606  22.283  0.00  0.00    +0.000 OA
ENDROOT
BRANCH   1  15
ATOM      8  C   UNL     1       2.146   4.572  21.112  0.00  0.00    +0.000 C 
ATOM      9  N   UNL     1       2.676   5.261  19.961  0.00  0.00    +0.000 N 
ATOM     10  C   UNL     1       3.516   4.760  18.996  0.00  0.00    +0.000 A 
ATOM     11  N   UNL     1       3.689   5.633  18.024  0.00  0.00    +0.000 NA
ATOM     12  C   UNL     1       2.978   6.741  18.389  0.00  0.00    +0.000 A 
ATOM     13  C   UNL     1       2.800   7.947  17.701  0.00  0.00    +0.000 A 
ATOM     14  C   UNL     1       2.013   8.942  18.291  0.00  0.00    +0.000 A 
ATOM     15  C   UNL     1       1.459   8.766  19.568  0.00  0.00    +0.000 A 
ATOM     16  C   UNL     1       1.645   7.567  20.274  0.00  0.00    +0.000 A 
ATOM     17  C   UNL     1       2.379   6.563  19.631  0.00  0.00    +0.000 A 
BRANCH  10  18
ATOM     18  C   UNL     1       4.197   3.395  18.992  0.00  0.00    +0.000 C 
ATOM     19  C   UNL     1       3.338   2.166  19.218  0.00  0.00    +0.000 C 
ATOM     20  C   UNL     1       3.857   2.455  17.852  0.00  0.00    +0.000 C 
ENDBRANCH  10  18
ENDBRANCH   1  15
BRANCH   4  21
ATOM     21  O   UNL     1      -1.655  12.955  21.594  0.00  0.00    +0.000 OA
BRANCH  21  22
ATOM     22  C   UNL     1      -1.966  12.928  22.993  0.00  0.00    +0.000 C 
BRANCH  22  23
ATOM     23  C   UNL     1      -3.449  12.985  23.267  0.00  0.00    +0.000 A 
ATOM     24  C   UNL     1      -3.996  12.499  24.453  0.00  0.00    +0.000 A 
ATOM     25  C   UNL     1      -5.383  12.456  24.589  0.00  0.00    +0.000 A 
ATOM     26  C   UNL     1      -6.184  12.888  23.539  0.00  0.00    +0.000 A 
ATOM     27 CL   UNL     1      -7.892  12.815  23.653  0.00  0.00    +0.000 Cl
ATOM     28  C   UNL     1      -5.567  13.361  22.394  0.00  0.00    +0.000 A 
ATOM     29  N   UNL     1      -4.222  13.415  22.232  0.00  0.00    +0.000 NA
ENDBRANCH  22  23
ENDBRANCH  21  22
ENDBRANCH   4  21
TORSDOF 5
ENDMDL
