MODEL 1
REMARK VINA RESULT:      -7.4      0.000      0.000
REMARK  Name = 
REMARK  7 active torsions:
REMARK  status: ('A' for Active; 'I' for Inactive)
REMARK    1  A    between atoms: C_1  and  O_2
REMARK    2  A    between atoms: O_2  and  C_3
REMARK    3  A    between atoms: N_6  and  C_7
REMARK    4  A    between atoms: C_7  and  C_8
REMARK    5  A    between atoms: N_11  and  C_12
REMARK    6  A    between atoms: N_16  and  C_17
REMARK    7  A    between atoms: C_17  and  C_18
REMARK                            x       y       z     vdW  Elec       q    Type
REMARK                         _______ _______ _______ _____ _____    ______ ____
ROOT
ATOM      1  C   UNL     1       3.543   3.550  18.923  0.00  0.00    +0.000 C 
ATOM      2  C   UNL     1       2.071   3.937  19.057  0.00  0.00    +0.000 C 
ATOM      3  C   UNL     1       1.723   5.146  18.199  0.00  0.00    +0.000 C 
ATOM      4  N   UNL     1       2.575   6.316  18.458  0.00  0.00    +0.000 NA
ATOM      5  C   UNL     1       4.004   5.983  18.255  0.00  0.00    +0.000 C 
ATOM      6  C   UNL     1       4.476   5.651  16.823  0.00  0.00    +0.000 C 
ATOM      7  N   UNL     1       5.748   4.904  16.981  0.00  0.00    +0.000 NA
ATOM      8  C   UNL     1       5.837   4.478  18.392  0.00  0.00    +0.000 C 
ATOM      9  C   UNL     1       4.483   4.764  19.041  0.00  0.00    +0.000 C 
ENDROOT
BRANCH   1  11
ATOM     10  C   UNL     1       3.016   2.549  21.036  0.00  0.00    +0.000 C 
ATOM     11  O   UNL     1       3.935   2.633  19.956  0.00  0.00    +0.000 OA
ENDBRANCH   1  11
BRANCH   4  12
ATOM     12  C   UNL     1       2.405   6.852  19.833  0.00  0.00    +0.000 C 
BRANCH  12  13
ATOM     13  C   UNL     1       1.686   8.157  19.871  0.00  0.00    +0.000 A 
ATOM     14  C   UNL     1       1.064   8.751  20.997  0.00  0.00    +0.000 A 
ATOM     15  N   UNL     1       0.575   9.965  20.736  0.00  0.00    +0.000 NA
ATOM     16  N   UNL     1       0.894  10.160  19.446  0.00  0.00    +0.000 N 
ATOM     17  C   UNL     1       0.655  11.442  18.830  0.00  0.00    +0.000 C 
ATOM     18  C   UNL     1       1.522   9.093  18.872  0.00  0.00    +0.000 A 
ENDBRANCH  12  13
ENDBRANCH   4  12
BRANCH   7  19
ATOM     19  C   UNL     1       5.838   3.800  16.013  0.00  0.00    +0.000 C 
BRANCH  19  20
ATOM     20  C   UNL     1       6.420   4.179  14.673  0.00  0.00    +0.000 A 
ATOM     21  C   UNL     1       6.023   3.552  13.489  0.00  0.00    +0.000 A 
ATOM     22  C   UNL     1       6.604   3.933  12.281  0.00  0.00    +0.000 A 
ATOM     23  C   UNL     1       7.568   4.930  12.298  0.00  0.00    +0.000 A 
ATOM     24  N   UNL     1       7.978   5.557  13.419  0.00  0.00    +0.000 NA
ATOM     25  C   UNL     1       7.395   5.168  14.576  0.00  0.00    +0.000 A 
ENDBRANCH  19  20
ENDBRANCH   7  19
TORSDOF 5
ENDMDL
MODEL 2
REMARK VINA RESULT:      -7.4      0.594      1.009
REMARK  Name = 
REMARK  7 active torsions:
REMARK  status: ('A' for Active; 'I' for Inactive)
REMARK    1  A    between atoms: C_1  and  O_2
REMARK    2  A    between atoms: O_2  and  C_3
REMARK    3  A    between atoms: N_6  and  C_7
REMARK    4  A    between atoms: C_7  and  C_8
REMARK    5  A    between atoms: N_11  and  C_12
REMARK    6  A    between atoms: N_16  and  C_17
REMARK    7  A    between atoms: C_17  and  C_18
REMARK                            x       y       z     vdW  Elec       q    Type
REMARK                         _______ _______ _______ _____ _____    ______ ____
ROOT
ATOM      1  C   UNL     1       3.224   3.420  18.693  0.00  0.00    +0.000 C 
ATOM      2  C   UNL     1       1.804   3.960  18.861  0.00  0.00    +0.000 C 
ATOM      3  C   UNL     1       1.616   5.290  18.142  0.00  0.00    +0.000 C 
ATOM      4  N   UNL     1       2.594   6.315  18.537  0.00  0.00    +0.000 NA
ATOM      5  C   UNL     1       3.978   5.841  18.306  0.00  0.00    +0.000 C 
ATOM      6  C   UNL     1       4.435   5.617  16.849  0.00  0.00    +0.000 C 
ATOM      7  N   UNL     1       5.609   4.712  16.930  0.00  0.00    +0.000 NA
ATOM      8  C   UNL     1       5.620   4.124  18.284  0.00  0.00    +0.000 C 
ATOM      9  C   UNL     1       4.296   4.494  18.952  0.00  0.00    +0.000 C 
ENDROOT
BRANCH   1  11
ATOM     10  C   UNL     1       2.956   2.571  20.918  0.00  0.00    +0.000 C 
ATOM     11  O   UNL     1       3.486   2.354  19.618  0.00  0.00    +0.000 OA
ENDBRANCH   1  11
BRANCH   4  12
ATOM     12  C   UNL     1       2.461   6.712  19.962  0.00  0.00    +0.000 C 
BRANCH  12  13
ATOM     13  C   UNL     1       1.744   8.004  20.149  0.00  0.00    +0.000 A 
ATOM     14  C   UNL     1       1.458   8.970  19.152  0.00  0.00    +0.000 A 
ATOM     15  N   UNL     1       0.726   9.986  19.613  0.00  0.00    +0.000 NA
ATOM     16  N   UNL     1       0.527   9.670  20.903  0.00  0.00    +0.000 N 
ATOM     17  C   UNL     1      -0.359  10.469  21.713  0.00  0.00    +0.000 C 
ATOM     18  C   UNL     1       1.149   8.516  21.283  0.00  0.00    +0.000 A 
ENDBRANCH  12  13
ENDBRANCH   4  12
BRANCH   7  19
ATOM     19  C   UNL     1       5.588   3.719  15.844  0.00  0.00    +0.000 C 
BRANCH  19  20
ATOM     20  C   UNL     1       6.311   4.140  14.588  0.00  0.00    +0.000 A 
ATOM     21  C   UNL     1       6.001   3.598  13.338  0.00  0.00    +0.000 A 
ATOM     22  C   UNL     1       6.710   4.014  12.213  0.00  0.00    +0.000 A 
ATOM     23  C   UNL     1       7.710   4.960  12.376  0.00  0.00    +0.000 A 
ATOM     24  N   UNL     1       8.039   5.506  13.565  0.00  0.00    +0.000 NA
ATOM     25  C   UNL     1       7.332   5.085  14.638  0.00  0.00    +0.000 A 
ENDBRANCH  19  20
ENDBRANCH   7  19
TORSDOF 5
ENDMDL
MODEL 3
REMARK VINA RESULT:      -7.1      1.057      7.621
REMARK  Name = 
REMARK  7 active torsions:
REMARK  status: ('A' for Active; 'I' for Inactive)
REMARK    1  A    between atoms: C_1  and  O_2
REMARK    2  A    between atoms: O_2  and  C_3
REMARK    3  A    between atoms: N_6  and  C_7
REMARK    4  A    between atoms: C_7  and  C_8
REMARK    5  A    between atoms: N_11  and  C_12
REMARK    6  A    between atoms: N_16  and  C_17
REMARK    7  A    between atoms: C_17  and  C_18
REMARK                            x       y       z     vdW  Elec       q    Type
REMARK                         _______ _______ _______ _____ _____    ______ ____
ROOT
ATOM      1  C   UNL     1       3.024   3.853  19.350  0.00  0.00    +0.000 C 
ATOM      2  C   UNL     1       4.400   3.187  19.352  0.00  0.00    +0.000 C 
ATOM      3  C   UNL     1       5.494   4.149  18.907  0.00  0.00    +0.000 C 
ATOM      4  N   UNL     1       5.237   4.768  17.597  0.00  0.00    +0.000 NA
ATOM      5  C   UNL     1       3.942   5.488  17.599  0.00  0.00    +0.000 C 
ATOM      6  C   UNL     1       3.809   6.741  18.490  0.00  0.00    +0.000 C 
ATOM      7  N   UNL     1       2.352   6.946  18.682  0.00  0.00    +0.000 NA
ATOM      8  C   UNL     1       1.673   5.701  18.270  0.00  0.00    +0.000 C 
ATOM      9  C   UNL     1       2.755   4.642  18.055  0.00  0.00    +0.000 C 
ENDROOT
BRANCH   1  11
ATOM     10  C   UNL     1       1.471   2.708  20.771  0.00  0.00    +0.000 C 
ATOM     11  O   UNL     1       1.976   2.877  19.455  0.00  0.00    +0.000 OA
ENDBRANCH   1  11
BRANCH   4  12
ATOM     12  C   UNL     1       5.226   3.777  16.491  0.00  0.00    +0.000 C 
BRANCH  12  13
ATOM     13  C   UNL     1       5.992   4.224  15.293  0.00  0.00    +0.000 A 
ATOM     14  C   UNL     1       7.106   5.100  15.275  0.00  0.00    +0.000 A 
ATOM     15  N   UNL     1       7.630   5.242  14.056  0.00  0.00    +0.000 NA
ATOM     16  N   UNL     1       6.863   4.448  13.290  0.00  0.00    +0.000 N 
ATOM     17  C   UNL     1       7.214   4.221  11.910  0.00  0.00    +0.000 C 
ATOM     18  C   UNL     1       5.846   3.849  13.974  0.00  0.00    +0.000 A 
ENDBRANCH  12  13
ENDBRANCH   4  12
BRANCH   7  19
ATOM     19  C   UNL     1       2.052   7.367  20.059  0.00  0.00    +0.000 C 
BRANCH  19  20
ATOM     20  C   UNL     1       1.225   8.624  20.171  0.00  0.00    +0.000 A 
ATOM     21  C   UNL     1       0.525   8.949  21.336  0.00  0.00    +0.000 A 
ATOM     22  C   UNL     1      -0.234  10.117  21.379  0.00  0.00    +0.000 A 
ATOM     23  C   UNL     1      -0.270  10.923  20.251  0.00  0.00    +0.000 A 
ATOM     24  N   UNL     1       0.391  10.643  19.109  0.00  0.00    +0.000 NA
ATOM     25  C   UNL     1       1.122   9.505  19.097  0.00  0.00    +0.000 A 
ENDBRANCH  19  20
ENDBRANCH   7  19
TORSDOF 5
ENDMDL
MODEL 4
REMARK VINA RESULT:      -7.1      1.164      7.675
REMARK  Name = 
REMARK  7 active torsions:
REMARK  status: ('A' for Active; 'I' for Inactive)
REMARK    1  A    between atoms: C_1  and  O_2
REMARK    2  A    between atoms: O_2  and  C_3
REMARK    3  A    between atoms: N_6  and  C_7
REMARK    4  A    between atoms: C_7  and  C_8
REMARK    5  A    between atoms: N_11  and  C_12
REMARK    6  A    between atoms: N_16  and  C_17
REMARK    7  A    between atoms: C_17  and  C_18
REMARK                            x       y       z     vdW  Elec       q    Type
REMARK                         _______ _______ _______ _____ _____    ______ ____
ROOT
ATOM      1  C   UNL     1       3.229   3.746  19.625  0.00  0.00    +0.000 C 
ATOM      2  C   UNL     1       4.664   3.251  19.449  0.00  0.00    +0.000 C 
ATOM      3  C   UNL     1       5.571   4.335  18.882  0.00  0.00    +0.000 C 
ATOM      4  N   UNL     1       5.081   4.911  17.620  0.00  0.00    +0.000 NA
ATOM      5  C   UNL     1       3.720   5.471  17.790  0.00  0.00    +0.000 C 
ATOM      6  C   UNL     1       3.550   6.703  18.704  0.00  0.00    +0.000 C 
ATOM      7  N   UNL     1       2.114   6.733  19.076  0.00  0.00    +0.000 NA
ATOM      8  C   UNL     1       1.543   5.414  18.739  0.00  0.00    +0.000 C 
ATOM      9  C   UNL     1       2.708   4.491  18.381  0.00  0.00    +0.000 C 
ENDROOT
BRANCH   1  11
ATOM     10  C   UNL     1       2.174   1.788  18.733  0.00  0.00    +0.000 C 
ATOM     11  O   UNL     1       2.327   2.653  19.849  0.00  0.00    +0.000 OA
ENDBRANCH   1  11
BRANCH   4  12
ATOM     12  C   UNL     1       5.052   3.921  16.514  0.00  0.00    +0.000 C 
BRANCH  12  13
ATOM     13  C   UNL     1       5.885   4.320  15.345  0.00  0.00    +0.000 A 
ATOM     14  C   UNL     1       7.043   5.137  15.366  0.00  0.00    +0.000 A 
ATOM     15  N   UNL     1       7.620   5.244  14.167  0.00  0.00    +0.000 NA
ATOM     16  N   UNL     1       6.844   4.485  13.376  0.00  0.00    +0.000 N 
ATOM     17  C   UNL     1       7.235   4.230  12.011  0.00  0.00    +0.000 C 
ATOM     18  C   UNL     1       5.771   3.943  14.023  0.00  0.00    +0.000 A 
ENDBRANCH  12  13
ENDBRANCH   4  12
BRANCH   7  19
ATOM     19  C   UNL     1       1.940   7.122  20.484  0.00  0.00    +0.000 C 
BRANCH  19  20
ATOM     20  C   UNL     1       1.371   8.504  20.694  0.00  0.00    +0.000 A 
ATOM     21  C   UNL     1       1.035   9.337  19.623  0.00  0.00    +0.000 A 
ATOM     22  C   UNL     1       0.525  10.609  19.875  0.00  0.00    +0.000 A 
ATOM     23  C   UNL     1       0.370  11.009  21.194  0.00  0.00    +0.000 A 
ATOM     24  N   UNL     1       0.683  10.234  22.253  0.00  0.00    +0.000 NA
ATOM     25  C   UNL     1       1.173   9.004  21.978  0.00  0.00    +0.000 A 
ENDBRANCH  19  20
ENDBRANCH   7  19
TORSDOF 5
ENDMDL
MODEL 5
REMARK VINA RESULT:      -7.0      0.811      1.332
REMARK  Name = 
REMARK  7 active torsions:
REMARK  status: ('A' for Active; 'I' for Inactive)
REMARK    1  A    between atoms: C_1  and  O_2
REMARK    2  A    between atoms: O_2  and  C_3
REMARK    3  A    between atoms: N_6  and  C_7
REMARK    4  A    between atoms: C_7  and  C_8
REMARK    5  A    between atoms: N_11  and  C_12
REMARK    6  A    between atoms: N_16  and  C_17
REMARK    7  A    between atoms: C_17  and  C_18
REMARK                            x       y       z     vdW  Elec       q    Type
REMARK                         _______ _______ _______ _____ _____    ______ ____
ROOT
ATOM      1  C   UNL     1       3.645   3.636  18.763  0.00  0.00    +0.000 C 
ATOM      2  C   UNL     1       2.170   4.025  18.860  0.00  0.00    +0.000 C 
ATOM      3  C   UNL     1       1.831   5.193  17.944  0.00  0.00    +0.000 C 
ATOM      4  N   UNL     1       2.678   6.376  18.161  0.00  0.00    +0.000 NA
ATOM      5  C   UNL     1       4.110   6.038  17.992  0.00  0.00    +0.000 C 
ATOM      6  C   UNL     1       4.602   5.643  16.583  0.00  0.00    +0.000 C 
ATOM      7  N   UNL     1       5.873   4.907  16.792  0.00  0.00    +0.000 NA
ATOM      8  C   UNL     1       5.944   4.546  18.221  0.00  0.00    +0.000 C 
ATOM      9  C   UNL     1       4.581   4.857  18.838  0.00  0.00    +0.000 C 
ENDROOT
BRANCH   1  11
ATOM     10  C   UNL     1       3.071   2.695  20.891  0.00  0.00    +0.000 C 
ATOM     11  O   UNL     1       4.025   2.768  19.841  0.00  0.00    +0.000 OA
ENDBRANCH   1  11
BRANCH   4  12
ATOM     12  C   UNL     1       2.489   6.973  19.508  0.00  0.00    +0.000 C 
BRANCH  12  13
ATOM     13  C   UNL     1       1.766   8.276  19.478  0.00  0.00    +0.000 A 
ATOM     14  C   UNL     1       1.600   9.130  18.359  0.00  0.00    +0.000 A 
ATOM     15  N   UNL     1       0.830  10.187  18.627  0.00  0.00    +0.000 NA
ATOM     16  N   UNL     1       0.488  10.008  19.914  0.00  0.00    +0.000 N 
ATOM     17  C   UNL     1      -0.475  10.885  20.532  0.00  0.00    +0.000 C 
ATOM     18  C   UNL     1       1.054   8.902  20.480  0.00  0.00    +0.000 A 
ENDBRANCH  12  13
ENDBRANCH   4  12
BRANCH   7  19
ATOM     19  C   UNL     1       5.979   3.761  15.875  0.00  0.00    +0.000 C 
BRANCH  19  20
ATOM     20  C   UNL     1       6.499   4.096  14.499  0.00  0.00    +0.000 A 
ATOM     21  C   UNL     1       7.447   5.101  14.290  0.00  0.00    +0.000 A 
ATOM     22  C   UNL     1       7.882   5.377  12.995  0.00  0.00    +0.000 A 
ATOM     23  C   UNL     1       7.351   4.638  11.949  0.00  0.00    +0.000 A 
ATOM     24  N   UNL     1       6.435   3.662  12.111  0.00  0.00    +0.000 NA
ATOM     25  C   UNL     1       6.033   3.414  13.378  0.00  0.00    +0.000 A 
ENDBRANCH  19  20
ENDBRANCH   7  19
TORSDOF 5
ENDMDL
MODEL 6
REMARK VINA RESULT:      -6.9      3.117      4.725
REMARK  Name = 
REMARK  7 active torsions:
REMARK  status: ('A' for Active; 'I' for Inactive)
REMARK    1  A    between atoms: C_1  and  O_2
REMARK    2  A    between atoms: O_2  and  C_3
REMARK    3  A    between atoms: N_6  and  C_7
REMARK    4  A    between atoms: C_7  and  C_8
REMARK    5  A    between atoms: N_11  and  C_12
REMARK    6  A    between atoms: N_16  and  C_17
REMARK    7  A    between atoms: C_17  and  C_18
REMARK                            x       y       z     vdW  Elec       q    Type
REMARK                         _______ _______ _______ _____ _____    ______ ____
ROOT
ATOM      1  C   UNL     1       7.111   6.582  17.013  0.00  0.00    +0.000 C 
ATOM      2  C   UNL     1       7.643   6.083  18.356  0.00  0.00    +0.000 C 
ATOM      3  C   UNL     1       7.270   4.628  18.607  0.00  0.00    +0.000 C 
ATOM      4  N   UNL     1       5.826   4.366  18.510  0.00  0.00    +0.000 NA
ATOM      5  C   UNL     1       5.305   4.769  17.183  0.00  0.00    +0.000 C 
ATOM      6  C   UNL     1       5.780   3.977  15.946  0.00  0.00    +0.000 C 
ATOM      7  N   UNL     1       5.524   4.861  14.781  0.00  0.00    +0.000 NA
ATOM      8  C   UNL     1       5.281   6.220  15.303  0.00  0.00    +0.000 C 
ATOM      9  C   UNL     1       5.635   6.207  16.790  0.00  0.00    +0.000 C 
ENDROOT
BRANCH   1  11
ATOM     10  C   UNL     1       8.062   8.608  17.870  0.00  0.00    +0.000 C 
ATOM     11  O   UNL     1       7.184   8.013  16.925  0.00  0.00    +0.000 OA
ENDBRANCH   1  11
BRANCH   4  12
ATOM     12  C   UNL     1       5.046   5.071  19.559  0.00  0.00    +0.000 C 
BRANCH  12  13
ATOM     13  C   UNL     1       3.655   4.558  19.703  0.00  0.00    +0.000 A 
ATOM     14  C   UNL     1       2.546   5.252  20.249  0.00  0.00    +0.000 A 
ATOM     15  N   UNL     1       1.410   4.557  20.164  0.00  0.00    +0.000 NA
ATOM     16  N   UNL     1       1.782   3.421  19.551  0.00  0.00    +0.000 N 
ATOM     17  C   UNL     1       0.786   2.461  19.145  0.00  0.00    +0.000 C 
ATOM     18  C   UNL     1       3.121   3.355  19.291  0.00  0.00    +0.000 A 
ENDBRANCH  12  13
ENDBRANCH   4  12
BRANCH   7  19
ATOM     19  C   UNL     1       6.620   4.779  13.803  0.00  0.00    +0.000 C 
BRANCH  19  20
ATOM     20  C   UNL     1       6.450   3.711  12.750  0.00  0.00    +0.000 A 
ATOM     21  C   UNL     1       5.192   3.233  12.375  0.00  0.00    +0.000 A 
ATOM     22  C   UNL     1       5.095   2.237  11.406  0.00  0.00    +0.000 A 
ATOM     23  C   UNL     1       6.264   1.747  10.843  0.00  0.00    +0.000 A 
ATOM     24  N   UNL     1       7.496   2.183  11.179  0.00  0.00    +0.000 NA
ATOM     25  C   UNL     1       7.559   3.152  12.120  0.00  0.00    +0.000 A 
ENDBRANCH  19  20
ENDBRANCH   7  19
TORSDOF 5
ENDMDL
MODEL 7
REMARK VINA RESULT:      -6.8      1.015      7.634
REMARK  Name = 
REMARK  7 active torsions:
REMARK  status: ('A' for Active; 'I' for Inactive)
REMARK    1  A    between atoms: C_1  and  O_2
REMARK    2  A    between atoms: O_2  and  C_3
REMARK    3  A    between atoms: N_6  and  C_7
REMARK    4  A    between atoms: C_7  and  C_8
REMARK    5  A    between atoms: N_11  and  C_12
REMARK    6  A    between atoms: N_16  and  C_17
REMARK    7  A    between atoms: C_17  and  C_18
REMARK                            x       y       z     vdW  Elec       q    Type
REMARK                         _______ _______ _______ _____ _____    ______ ____
ROOT
ATOM      1  C   UNL     1       3.683   4.189  19.348  0.00  0.00    +0.000 C 
ATOM      2  C   UNL     1       5.135   3.733  19.210  0.00  0.00    +0.000 C 
ATOM      3  C   UNL     1       5.973   4.740  18.432  0.00  0.00    +0.000 C 
ATOM      4  N   UNL     1       5.421   5.067  17.109  0.00  0.00    +0.000 NA
ATOM      5  C   UNL     1       4.039   5.589  17.228  0.00  0.00    +0.000 C 
ATOM      6  C   UNL     1       3.836   6.953  17.921  0.00  0.00    +0.000 C 
ATOM      7  N   UNL     1       2.410   6.985  18.334  0.00  0.00    +0.000 NA
ATOM      8  C   UNL     1       1.895   5.604  18.250  0.00  0.00    +0.000 C 
ATOM      9  C   UNL     1       3.093   4.685  18.015  0.00  0.00    +0.000 C 
ENDROOT
BRANCH   1  11
ATOM     10  C   UNL     1       2.799   2.008  18.899  0.00  0.00    +0.000 C 
ATOM     11  O   UNL     1       2.841   3.114  19.789  0.00  0.00    +0.000 OA
ENDBRANCH   1  11
BRANCH   4  12
ATOM     12  C   UNL     1       5.408   3.900  16.191  0.00  0.00    +0.000 C 
BRANCH  12  13
ATOM     13  C   UNL     1       6.145   4.143  14.919  0.00  0.00    +0.000 A 
ATOM     14  C   UNL     1       5.846   3.597  13.646  0.00  0.00    +0.000 A 
ATOM     15  N   UNL     1       6.638   4.071  12.682  0.00  0.00    +0.000 NA
ATOM     16  N   UNL     1       7.439   4.933  13.330  0.00  0.00    +0.000 N 
ATOM     17  C   UNL     1       8.353   5.766  12.587  0.00  0.00    +0.000 C 
ATOM     18  C   UNL     1       7.212   4.983  14.675  0.00  0.00    +0.000 A 
ENDBRANCH  12  13
ENDBRANCH   4  12
BRANCH   7  19
ATOM     19  C   UNL     1       2.257   7.605  19.660  0.00  0.00    +0.000 C 
BRANCH  19  20
ATOM     20  C   UNL     1       1.293   8.766  19.708  0.00  0.00    +0.000 A 
ATOM     21  C   UNL     1       1.042   9.567  18.591  0.00  0.00    +0.000 A 
ATOM     22  C   UNL     1       0.152  10.634  18.697  0.00  0.00    +0.000 A 
ATOM     23  C   UNL     1      -0.457  10.867  19.920  0.00  0.00    +0.000 A 
ATOM     24  N   UNL     1      -0.239  10.117  21.020  0.00  0.00    +0.000 NA
ATOM     25  C   UNL     1       0.627   9.087  20.888  0.00  0.00    +0.000 A 
ENDBRANCH  19  20
ENDBRANCH   7  19
TORSDOF 5
ENDMDL
MODEL 8
REMARK VINA RESULT:      -6.6      3.684      6.802
REMARK  Name = 
REMARK  7 active torsions:
REMARK  status: ('A' for Active; 'I' for Inactive)
REMARK    1  A    between atoms: C_1  and  O_2
REMARK    2  A    between atoms: O_2  and  C_3
REMARK    3  A    between atoms: N_6  and  C_7
REMARK    4  A    between atoms: C_7  and  C_8
REMARK    5  A    between atoms: N_11  and  C_12
REMARK    6  A    between atoms: N_16  and  C_17
REMARK    7  A    between atoms: C_17  and  C_18
REMARK                            x       y       z     vdW  Elec       q    Type
REMARK                         _______ _______ _______ _____ _____    ______ ____
ROOT
ATOM      1  C   UNL     1       6.418   4.166  16.279  0.00  0.00    +0.000 C 
ATOM      2  C   UNL     1       7.794   4.577  16.802  0.00  0.00    +0.000 C 
ATOM      3  C   UNL     1       7.695   5.336  18.119  0.00  0.00    +0.000 C 
ATOM      4  N   UNL     1       6.810   6.509  18.057  0.00  0.00    +0.000 NA
ATOM      5  C   UNL     1       5.447   6.120  17.629  0.00  0.00    +0.000 C 
ATOM      6  C   UNL     1       4.612   5.235  18.580  0.00  0.00    +0.000 C 
ATOM      7  N   UNL     1       3.563   4.613  17.734  0.00  0.00    +0.000 NA
ATOM      8  C   UNL     1       3.967   4.795  16.326  0.00  0.00    +0.000 C 
ATOM      9  C   UNL     1       5.402   5.322  16.327  0.00  0.00    +0.000 C 
ENDROOT
BRANCH   1  11
ATOM     10  C   UNL     1       6.919   4.759  14.012  0.00  0.00    +0.000 C 
ATOM     11  O   UNL     1       6.488   3.745  14.909  0.00  0.00    +0.000 OA
ENDBRANCH   1  11
BRANCH   4  12
ATOM     12  C   UNL     1       7.315   7.556  17.134  0.00  0.00    +0.000 C 
BRANCH  12  13
ATOM     13  C   UNL     1       7.975   8.693  17.836  0.00  0.00    +0.000 A 
ATOM     14  C   UNL     1       8.832   8.614  18.961  0.00  0.00    +0.000 A 
ATOM     15  N   UNL     1       9.336   9.800  19.311  0.00  0.00    +0.000 NA
ATOM     16  N   UNL     1       8.814  10.642  18.403  0.00  0.00    +0.000 N 
ATOM     17  C   UNL     1       9.247  12.017  18.363  0.00  0.00    +0.000 C 
ATOM     18  C   UNL     1       7.963  10.037  17.524  0.00  0.00    +0.000 A 
ENDBRANCH  12  13
ENDBRANCH   4  12
BRANCH   7  19
ATOM     19  C   UNL     1       3.335   3.211  18.118  0.00  0.00    +0.000 C 
BRANCH  19  20
ATOM     20  C   UNL     1       2.694   3.022  19.471  0.00  0.00    +0.000 A 
ATOM     21  C   UNL     1       1.334   3.260  19.687  0.00  0.00    +0.000 A 
ATOM     22  C   UNL     1       0.799   3.081  20.961  0.00  0.00    +0.000 A 
ATOM     23  C   UNL     1       1.644   2.670  21.981  0.00  0.00    +0.000 A 
ATOM     24  N   UNL     1       2.960   2.431  21.811  0.00  0.00    +0.000 NA
ATOM     25  C   UNL     1       3.452   2.610  20.564  0.00  0.00    +0.000 A 
ENDBRANCH  19  20
ENDBRANCH   7  19
TORSDOF 5
ENDMDL
MODEL 9
REMARK VINA RESULT:      -6.2      1.204      1.692
REMARK  Name = 
REMARK  7 active torsions:
REMARK  status: ('A' for Active; 'I' for Inactive)
REMARK    1  A    between atoms: C_1  and  O_2
REMARK    2  A    between atoms: O_2  and  C_3
REMARK    3  A    between atoms: N_6  and  C_7
REMARK    4  A    between atoms: C_7  and  C_8
REMARK    5  A    between atoms: N_11  and  C_12
REMARK    6  A    between atoms: N_16  and  C_17
REMARK    7  A    between atoms: C_17  and  C_18
REMARK                            x       y       z     vdW  Elec       q    Type
REMARK                         _______ _______ _______ _____ _____    ______ ____
ROOT
ATOM      1  C   UNL     1       4.548   3.639  18.938  0.00  0.00    +0.000 C 
ATOM      2  C   UNL     1       3.092   3.606  18.476  0.00  0.00    +0.000 C 
ATOM      3  C   UNL     1       2.778   4.743  17.511  0.00  0.00    +0.000 C 
ATOM      4  N   UNL     1       3.106   6.074  18.045  0.00  0.00    +0.000 NA
ATOM      5  C   UNL     1       4.535   6.152  18.425  0.00  0.00    +0.000 C 
ATOM      6  C   UNL     1       5.591   6.074  17.301  0.00  0.00    +0.000 C 
ATOM      7  N   UNL     1       6.859   5.684  17.966  0.00  0.00    +0.000 NA
ATOM      8  C   UNL     1       6.515   5.186  19.313  0.00  0.00    +0.000 C 
ATOM      9  C   UNL     1       4.995   5.047  19.373  0.00  0.00    +0.000 C 
ENDROOT
BRANCH   1  11
ATOM     10  C   UNL     1       3.577   2.529  20.827  0.00  0.00    +0.000 C 
ATOM     11  O   UNL     1       4.752   2.780  20.070  0.00  0.00    +0.000 OA
ENDBRANCH   1  11
BRANCH   4  12
ATOM     12  C   UNL     1       2.282   6.433  19.227  0.00  0.00    +0.000 C 
BRANCH  12  13
ATOM     13  C   UNL     1       1.889   7.870  19.256  0.00  0.00    +0.000 A 
ATOM     14  C   UNL     1       1.878   8.770  18.161  0.00  0.00    +0.000 A 
ATOM     15  N   UNL     1       1.395   9.972  18.485  0.00  0.00    +0.000 NA
ATOM     16  N   UNL     1       1.082   9.843  19.785  0.00  0.00    +0.000 N 
ATOM     17  C   UNL     1       0.386  10.905  20.468  0.00  0.00    +0.000 C 
ATOM     18  C   UNL     1       1.395   8.619  20.303  0.00  0.00    +0.000 A 
ENDBRANCH  12  13
ENDBRANCH   4  12
BRANCH   7  19
ATOM     19  C   UNL     1       7.615   4.725  17.146  0.00  0.00    +0.000 C 
BRANCH  19  20
ATOM     20  C   UNL     1       7.052   4.492  15.765  0.00  0.00    +0.000 A 
ATOM     21  C   UNL     1       7.601   5.095  14.630  0.00  0.00    +0.000 A 
ATOM     22  C   UNL     1       7.032   4.854  13.381  0.00  0.00    +0.000 A 
ATOM     23  C   UNL     1       5.929   4.017  13.308  0.00  0.00    +0.000 A 
ATOM     24  N   UNL     1       5.371   3.418  14.380  0.00  0.00    +0.000 NA
ATOM     25  C   UNL     1       5.945   3.668  15.579  0.00  0.00    +0.000 A 
ENDBRANCH  19  20
ENDBRANCH   7  19
TORSDOF 5
ENDMDL
