MODEL 1
REMARK VINA RESULT:      -7.1      0.000      0.000
REMARK  Name = 
REMARK  7 active torsions:
REMARK  status: ('A' for Active; 'I' for Inactive)
REMARK    1  A    between atoms: C_1  and  O_2
REMARK    2  A    between atoms: O_2  and  C_3
REMARK    3  A    between atoms: N_8  and  C_9
REMARK    4  A    between atoms: C_9  and  C_10
REMARK    5  A    between atoms: C_16  and  C_17
REMARK    6  A    between atoms: C_26  and  O_27
REMARK    7  A    between atoms: O_27  and  C_28
REMARK                            x       y       z     vdW  Elec       q    Type
REMARK                         _______ _______ _______ _____ _____    ______ ____
ROOT
ATOM      1  C   UNL     1       0.603  11.329  20.033  0.00  0.00    +0.000 A 
ATOM      2  C   UNL     1       1.530  10.501  19.373  0.00  0.00    +0.000 A 
ATOM      3  C   UNL     1       1.612   9.140  19.631  0.00  0.00    +0.000 A 
ATOM      4  N   UNL     1       2.416   8.368  18.866  0.00  0.00    +0.000 NA
ATOM      5  C   UNL     1       2.442   7.037  19.116  0.00  0.00    +0.000 A 
ATOM      6  N   UNL     1       3.257   6.220  18.319  0.00  0.00    +0.000 N 
ATOM      7  C   UNL     1       1.712   6.503  20.202  0.00  0.00    +0.000 A 
ATOM      8  N   UNL     1       0.883   7.285  20.952  0.00  0.00    +0.000 NA
ATOM      9  C   UNL     1       0.824   8.600  20.657  0.00  0.00    +0.000 A 
ATOM     10  C   UNL     1      -0.039   9.423  21.356  0.00  0.00    +0.000 A 
ATOM     11  C   UNL     1      -0.177  10.785  21.057  0.00  0.00    +0.000 A 
ATOM     12  H   UNL     1       2.824   5.309  18.203  0.00  0.00    +0.000 HD
ENDROOT
BRANCH   7  13
ATOM     13  C   UNL     1       1.685   5.064  20.558  0.00  0.00    +0.000 A 
ATOM     14  C   UNL     1       2.503   4.520  21.559  0.00  0.00    +0.000 A 
ATOM     15  C   UNL     1       2.535   3.149  21.744  0.00  0.00    +0.000 A 
ATOM     16  N   UNL     1       1.769   2.284  21.052  0.00  0.00    +0.000 NA
ATOM     17  C   UNL     1       0.925   2.819  20.148  0.00  0.00    +0.000 A 
ATOM     18  C   UNL     1       0.850   4.174  19.867  0.00  0.00    +0.000 A 
ENDBRANCH   7  13
BRANCH   1  20
ATOM     19  C   UNL     1      -0.473  12.936  18.661  0.00  0.00    +0.000 C 
ATOM     20  O   UNL     1       0.470  12.647  19.697  0.00  0.00    +0.000 OA
ENDBRANCH   1  20
BRANCH  11  21
ATOM     21  O   UNL     1      -1.123  11.389  21.841  0.00  0.00    +0.000 OA
ATOM     22  C   UNL     1      -1.393  10.885  23.139  0.00  0.00    +0.000 C 
ENDBRANCH  11  21
BRANCH   6  23
ATOM     23  C   UNL     1       3.702   6.715  17.029  0.00  0.00    +0.000 C 
BRANCH  23  24
ATOM     24  C   UNL     1       4.955   5.971  16.651  0.00  0.00    +0.000 A 
ATOM     25  C   UNL     1       4.885   4.663  16.156  0.00  0.00    +0.000 A 
ATOM     26  C   UNL     1       6.051   3.989  15.809  0.00  0.00    +0.000 A 
ATOM     27  C   UNL     1       7.258   4.646  15.967  0.00  0.00    +0.000 A 
ATOM     28  N   UNL     1       7.369   5.909  16.435  0.00  0.00    +0.000 NA
ATOM     29  C   UNL     1       6.218   6.541  16.763  0.00  0.00    +0.000 A 
ENDBRANCH  23  24
ENDBRANCH   6  23
TORSDOF 5
ENDMDL
MODEL 2
REMARK VINA RESULT:      -7.0      0.527      1.029
REMARK  Name = 
REMARK  7 active torsions:
REMARK  status: ('A' for Active; 'I' for Inactive)
REMARK    1  A    between atoms: C_1  and  O_2
REMARK    2  A    between atoms: O_2  and  C_3
REMARK    3  A    between atoms: N_8  and  C_9
REMARK    4  A    between atoms: C_9  and  C_10
REMARK    5  A    between atoms: C_16  and  C_17
REMARK    6  A    between atoms: C_26  and  O_27
REMARK    7  A    between atoms: O_27  and  C_28
REMARK                            x       y       z     vdW  Elec       q    Type
REMARK                         _______ _______ _______ _____ _____    ______ ____
ROOT
ATOM      1  C   UNL     1       0.398  11.280  20.041  0.00  0.00    +0.000 A 
ATOM      2  C   UNL     1       1.408  10.520  19.422  0.00  0.00    +0.000 A 
ATOM      3  C   UNL     1       1.535   9.156  19.637  0.00  0.00    +0.000 A 
ATOM      4  N   UNL     1       2.428   8.450  18.906  0.00  0.00    +0.000 NA
ATOM      5  C   UNL     1       2.499   7.113  19.111  0.00  0.00    +0.000 A 
ATOM      6  N   UNL     1       3.406   6.364  18.347  0.00  0.00    +0.000 N 
ATOM      7  C   UNL     1       1.720   6.505  20.121  0.00  0.00    +0.000 A 
ATOM      8  N   UNL     1       0.804   7.221  20.837  0.00  0.00    +0.000 NA
ATOM      9  C   UNL     1       0.704   8.542  20.584  0.00  0.00    +0.000 A 
ATOM     10  C   UNL     1      -0.245   9.298  21.246  0.00  0.00    +0.000 A 
ATOM     11  C   UNL     1      -0.426  10.662  20.986  0.00  0.00    +0.000 A 
ATOM     12  H   UNL     1       3.026   5.440  18.168  0.00  0.00    +0.000 HD
ENDROOT
BRANCH   7  13
ATOM     13  C   UNL     1       1.736   5.055  20.425  0.00  0.00    +0.000 A 
ATOM     14  C   UNL     1       0.960   4.128  19.713  0.00  0.00    +0.000 A 
ATOM     15  C   UNL     1       0.909   2.812  20.138  0.00  0.00    +0.000 A 
ATOM     16  N   UNL     1       1.618   2.335  21.178  0.00  0.00    +0.000 NA
ATOM     17  C   UNL     1       2.424   3.211  21.809  0.00  0.00    +0.000 A 
ATOM     18  C   UNL     1       2.514   4.554  21.479  0.00  0.00    +0.000 A 
ENDBRANCH   7  13
BRANCH   1  20
ATOM     19  C   UNL     1       1.368  13.441  19.942  0.00  0.00    +0.000 C 
ATOM     20  O   UNL     1       0.227  12.603  19.742  0.00  0.00    +0.000 OA
ENDBRANCH   1  20
BRANCH  11  21
ATOM     21  O   UNL     1      -1.453  11.193  21.720  0.00  0.00    +0.000 OA
ATOM     22  C   UNL     1      -1.174  11.896  22.920  0.00  0.00    +0.000 C 
ENDBRANCH  11  21
BRANCH   6  23
ATOM     23  C   UNL     1       3.917   6.928  17.110  0.00  0.00    +0.000 C 
BRANCH  23  24
ATOM     24  C   UNL     1       5.022   6.034  16.613  0.00  0.00    +0.000 A 
ATOM     25  C   UNL     1       4.760   4.703  16.266  0.00  0.00    +0.000 A 
ATOM     26  C   UNL     1       5.791   3.891  15.805  0.00  0.00    +0.000 A 
ATOM     27  C   UNL     1       7.059   4.436  15.705  0.00  0.00    +0.000 A 
ATOM     28  N   UNL     1       7.353   5.716  16.023  0.00  0.00    +0.000 NA
ATOM     29  C   UNL     1       6.329   6.483  16.466  0.00  0.00    +0.000 A 
ENDBRANCH  23  24
ENDBRANCH   6  23
TORSDOF 5
ENDMDL
MODEL 3
REMARK VINA RESULT:      -6.7      3.478      7.566
REMARK  Name = 
REMARK  7 active torsions:
REMARK  status: ('A' for Active; 'I' for Inactive)
REMARK    1  A    between atoms: C_1  and  O_2
REMARK    2  A    between atoms: O_2  and  C_3
REMARK    3  A    between atoms: N_8  and  C_9
REMARK    4  A    between atoms: C_9  and  C_10
REMARK    5  A    between atoms: C_16  and  C_17
REMARK    6  A    between atoms: C_26  and  O_27
REMARK    7  A    between atoms: O_27  and  C_28
REMARK                            x       y       z     vdW  Elec       q    Type
REMARK                         _______ _______ _______ _____ _____    ______ ____
ROOT
ATOM      1  C   UNL     1       4.054   5.722  17.686  0.00  0.00    +0.000 A 
ATOM      2  C   UNL     1       3.586   7.023  17.424  0.00  0.00    +0.000 A 
ATOM      3  C   UNL     1       2.786   7.710  18.325  0.00  0.00    +0.000 A 
ATOM      4  N   UNL     1       2.487   9.008  18.090  0.00  0.00    +0.000 NA
ATOM      5  C   UNL     1       1.738   9.663  19.009  0.00  0.00    +0.000 A 
ATOM      6  N   UNL     1       1.435  11.015  18.789  0.00  0.00    +0.000 N 
ATOM      7  C   UNL     1       1.221   8.972  20.129  0.00  0.00    +0.000 A 
ATOM      8  N   UNL     1       1.550   7.669  20.371  0.00  0.00    +0.000 NA
ATOM      9  C   UNL     1       2.342   7.045  19.476  0.00  0.00    +0.000 A 
ATOM     10  C   UNL     1       2.743   5.742  19.705  0.00  0.00    +0.000 A 
ATOM     11  C   UNL     1       3.605   5.063  18.834  0.00  0.00    +0.000 A 
ATOM     12  H   UNL     1       1.389  11.506  19.676  0.00  0.00    +0.000 HD
ENDROOT
BRANCH   7  13
ATOM     13  C   UNL     1       0.388   9.599  21.181  0.00  0.00    +0.000 A 
ATOM     14  C   UNL     1      -0.403  10.733  20.941  0.00  0.00    +0.000 A 
ATOM     15  C   UNL     1      -1.043  11.355  21.998  0.00  0.00    +0.000 A 
ATOM     16  N   UNL     1      -1.007  10.900  23.265  0.00  0.00    +0.000 NA
ATOM     17  C   UNL     1      -0.313   9.765  23.477  0.00  0.00    +0.000 A 
ATOM     18  C   UNL     1       0.390   9.093  22.490  0.00  0.00    +0.000 A 
ENDBRANCH   7  13
BRANCH   1  20
ATOM     19  C   UNL     1       5.432   5.901  15.764  0.00  0.00    +0.000 C 
ATOM     20  O   UNL     1       4.920   5.099  16.832  0.00  0.00    +0.000 OA
ENDBRANCH   1  20
BRANCH  11  21
ATOM     21  O   UNL     1       3.906   3.806  19.286  0.00  0.00    +0.000 OA
ATOM     22  C   UNL     1       2.886   2.992  19.841  0.00  0.00    +0.000 C 
ENDBRANCH  11  21
BRANCH   6  23
ATOM     23  C   UNL     1       2.245  11.773  17.853  0.00  0.00    +0.000 C 
BRANCH  23  24
ATOM     24  C   UNL     1       2.112  13.233  18.198  0.00  0.00    +0.000 A 
ATOM     25  C   UNL     1       3.211  14.094  18.090  0.00  0.00    +0.000 A 
ATOM     26  C   UNL     1       3.072  15.440  18.410  0.00  0.00    +0.000 A 
ATOM     27  C   UNL     1       1.831  15.887  18.831  0.00  0.00    +0.000 A 
ATOM     28  N   UNL     1       0.745  15.092  18.944  0.00  0.00    +0.000 NA
ATOM     29  C   UNL     1       0.910  13.787  18.623  0.00  0.00    +0.000 A 
ENDBRANCH  23  24
ENDBRANCH   6  23
TORSDOF 5
ENDMDL
MODEL 4
REMARK VINA RESULT:      -6.6      0.943      1.093
REMARK  Name = 
REMARK  7 active torsions:
REMARK  status: ('A' for Active; 'I' for Inactive)
REMARK    1  A    between atoms: C_1  and  O_2
REMARK    2  A    between atoms: O_2  and  C_3
REMARK    3  A    between atoms: N_8  and  C_9
REMARK    4  A    between atoms: C_9  and  C_10
REMARK    5  A    between atoms: C_16  and  C_17
REMARK    6  A    between atoms: C_26  and  O_27
REMARK    7  A    between atoms: O_27  and  C_28
REMARK                            x       y       z     vdW  Elec       q    Type
REMARK                         _______ _______ _______ _____ _____    ______ ____
ROOT
ATOM      1  C   UNL     1       0.505  11.179  19.459  0.00  0.00    +0.000 A 
ATOM      2  C   UNL     1       1.499  10.448  18.782  0.00  0.00    +0.000 A 
ATOM      3  C   UNL     1       1.773   9.123  19.089  0.00  0.00    +0.000 A 
ATOM      4  N   UNL     1       2.632   8.427  18.311  0.00  0.00    +0.000 NA
ATOM      5  C   UNL     1       2.847   7.123  18.612  0.00  0.00    +0.000 A 
ATOM      6  N   UNL     1       3.720   6.382  17.804  0.00  0.00    +0.000 N 
ATOM      7  C   UNL     1       2.250   6.551  19.758  0.00  0.00    +0.000 A 
ATOM      8  N   UNL     1       1.364   7.254  20.523  0.00  0.00    +0.000 NA
ATOM      9  C   UNL     1       1.117   8.534  20.179  0.00  0.00    +0.000 A 
ATOM     10  C   UNL     1       0.189   9.271  20.892  0.00  0.00    +0.000 A 
ATOM     11  C   UNL     1      -0.143  10.587  20.547  0.00  0.00    +0.000 A 
ATOM     12  H   UNL     1       3.406   5.418  17.749  0.00  0.00    +0.000 HD
ENDROOT
BRANCH   7  13
ATOM     13  C   UNL     1       2.431   5.140  20.173  0.00  0.00    +0.000 A 
ATOM     14  C   UNL     1       1.506   4.469  20.987  0.00  0.00    +0.000 A 
ATOM     15  C   UNL     1       1.803   3.202  21.458  0.00  0.00    +0.000 A 
ATOM     16  N   UNL     1       2.922   2.527  21.130  0.00  0.00    +0.000 NA
ATOM     17  C   UNL     1       3.769   3.143  20.282  0.00  0.00    +0.000 A 
ATOM     18  C   UNL     1       3.574   4.424  19.789  0.00  0.00    +0.000 A 
ENDBRANCH   7  13
BRANCH   1  20
ATOM     19  C   UNL     1      -0.972  12.580  18.244  0.00  0.00    +0.000 C 
ATOM     20  O   UNL     1       0.183  12.451  19.078  0.00  0.00    +0.000 OA
ENDBRANCH   1  20
BRANCH  11  21
ATOM     21  O   UNL     1      -1.119  11.100  21.358  0.00  0.00    +0.000 OA
ATOM     22  C   UNL     1      -0.761  11.865  22.498  0.00  0.00    +0.000 C 
ENDBRANCH  11  21
BRANCH   6  23
ATOM     23  C   UNL     1       4.029   6.870  16.471  0.00  0.00    +0.000 C 
BRANCH  23  24
ATOM     24  C   UNL     1       5.220   6.104  15.960  0.00  0.00    +0.000 A 
ATOM     25  C   UNL     1       5.082   5.189  14.909  0.00  0.00    +0.000 A 
ATOM     26  C   UNL     1       6.192   4.491  14.445  0.00  0.00    +0.000 A 
ATOM     27  C   UNL     1       7.414   4.730  15.050  0.00  0.00    +0.000 A 
ATOM     28  N   UNL     1       7.591   5.607  16.062  0.00  0.00    +0.000 NA
ATOM     29  C   UNL     1       6.494   6.273  16.491  0.00  0.00    +0.000 A 
ENDBRANCH  23  24
ENDBRANCH   6  23
TORSDOF 5
ENDMDL
MODEL 5
REMARK VINA RESULT:      -6.5      3.470      7.578
REMARK  Name = 
REMARK  7 active torsions:
REMARK  status: ('A' for Active; 'I' for Inactive)
REMARK    1  A    between atoms: C_1  and  O_2
REMARK    2  A    between atoms: O_2  and  C_3
REMARK    3  A    between atoms: N_8  and  C_9
REMARK    4  A    between atoms: C_9  and  C_10
REMARK    5  A    between atoms: C_16  and  C_17
REMARK    6  A    between atoms: C_26  and  O_27
REMARK    7  A    between atoms: O_27  and  C_28
REMARK                            x       y       z     vdW  Elec       q    Type
REMARK                         _______ _______ _______ _____ _____    ______ ____
ROOT
ATOM      1  C   UNL     1       3.973   5.754  17.499  0.00  0.00    +0.000 A 
ATOM      2  C   UNL     1       3.520   7.069  17.281  0.00  0.00    +0.000 A 
ATOM      3  C   UNL     1       2.772   7.752  18.229  0.00  0.00    +0.000 A 
ATOM      4  N   UNL     1       2.489   9.060  18.031  0.00  0.00    +0.000 NA
ATOM      5  C   UNL     1       1.793   9.711  18.994  0.00  0.00    +0.000 A 
ATOM      6  N   UNL     1       1.507  11.072  18.813  0.00  0.00    +0.000 N 
ATOM      7  C   UNL     1       1.311   9.008  20.121  0.00  0.00    +0.000 A 
ATOM      8  N   UNL     1       1.624   7.694  20.325  0.00  0.00    +0.000 NA
ATOM      9  C   UNL     1       2.365   7.073  19.385  0.00  0.00    +0.000 A 
ATOM     10  C   UNL     1       2.750   5.758  19.572  0.00  0.00    +0.000 A 
ATOM     11  C   UNL     1       3.561   5.081  18.652  0.00  0.00    +0.000 A 
ATOM     12  H   UNL     1       1.509  11.546  19.710  0.00  0.00    +0.000 HD
ENDROOT
BRANCH   7  13
ATOM     13  C   UNL     1       0.536   9.629  21.221  0.00  0.00    +0.000 A 
ATOM     14  C   UNL     1       0.604   9.170  22.545  0.00  0.00    +0.000 A 
ATOM     15  C   UNL     1      -0.252   9.699  23.495  0.00  0.00    +0.000 A 
ATOM     16  N   UNL     1      -1.127  10.691  23.243  0.00  0.00    +0.000 NA
ATOM     17  C   UNL     1      -1.131  11.185  21.989  0.00  0.00    +0.000 A 
ATOM     18  C   UNL     1      -0.338  10.696  20.963  0.00  0.00    +0.000 A 
ENDBRANCH   7  13
BRANCH   1  20
ATOM     19  C   UNL     1       6.192   5.212  16.862  0.00  0.00    +0.000 C 
ATOM     20  O   UNL     1       4.789   5.131  16.596  0.00  0.00    +0.000 OA
ENDBRANCH   1  20
BRANCH  11  21
ATOM     21  O   UNL     1       3.856   3.810  19.067  0.00  0.00    +0.000 OA
ATOM     22  C   UNL     1       3.193   2.703  18.478  0.00  0.00    +0.000 C 
ENDBRANCH  11  21
BRANCH   6  23
ATOM     23  C   UNL     1       2.292  11.833  17.857  0.00  0.00    +0.000 C 
BRANCH  23  24
ATOM     24  C   UNL     1       2.164  13.292  18.207  0.00  0.00    +0.000 A 
ATOM     25  C   UNL     1       0.938  13.819  18.630  0.00  0.00    +0.000 A 
ATOM     26  C   UNL     1       0.837  15.168  18.953  0.00  0.00    +0.000 A 
ATOM     27  C   UNL     1       1.970  15.954  18.841  0.00  0.00    +0.000 A 
ATOM     28  N   UNL     1       3.173  15.484  18.442  0.00  0.00    +0.000 NA
ATOM     29  C   UNL     1       3.242  14.167  18.138  0.00  0.00    +0.000 A 
ENDBRANCH  23  24
ENDBRANCH   6  23
TORSDOF 5
ENDMDL
MODEL 6
REMARK VINA RESULT:      -6.4      3.427      7.492
REMARK  Name = 
REMARK  7 active torsions:
REMARK  status: ('A' for Active; 'I' for Inactive)
REMARK    1  A    between atoms: C_1  and  O_2
REMARK    2  A    between atoms: O_2  and  C_3
REMARK    3  A    between atoms: N_8  and  C_9
REMARK    4  A    between atoms: C_9  and  C_10
REMARK    5  A    between atoms: C_16  and  C_17
REMARK    6  A    between atoms: C_26  and  O_27
REMARK    7  A    between atoms: O_27  and  C_28
REMARK                            x       y       z     vdW  Elec       q    Type
REMARK                         _______ _______ _______ _____ _____    ______ ____
ROOT
ATOM      1  C   UNL     1       3.496   5.593  18.600  0.00  0.00    +0.000 A 
ATOM      2  C   UNL     1       3.204   6.896  18.155  0.00  0.00    +0.000 A 
ATOM      3  C   UNL     1       2.398   7.756  18.886  0.00  0.00    +0.000 A 
ATOM      4  N   UNL     1       2.269   9.042  18.487  0.00  0.00    +0.000 NA
ATOM      5  C   UNL     1       1.509   9.868  19.245  0.00  0.00    +0.000 A 
ATOM      6  N   UNL     1       1.381  11.210  18.856  0.00  0.00    +0.000 N 
ATOM      7  C   UNL     1       0.809   9.363  20.364  0.00  0.00    +0.000 A 
ATOM      8  N   UNL     1       0.965   8.070  20.774  0.00  0.00    +0.000 NA
ATOM      9  C   UNL     1       1.769   7.273  20.042  0.00  0.00    +0.000 A 
ATOM     10  C   UNL     1       1.999   5.971  20.446  0.00  0.00    +0.000 A 
ATOM     11  C   UNL     1       2.863   5.116  19.752  0.00  0.00    +0.000 A 
ATOM     12  H   UNL     1       1.301  11.800  19.677  0.00  0.00    +0.000 HD
ENDROOT
BRANCH   7  13
ATOM     13  C   UNL     1      -0.052  10.185  21.247  0.00  0.00    +0.000 A 
ATOM     14  C   UNL     1      -0.252   9.879  22.602  0.00  0.00    +0.000 A 
ATOM     15  C   UNL     1      -1.179  10.600  23.334  0.00  0.00    +0.000 A 
ATOM     16  N   UNL     1      -1.877  11.640  22.840  0.00  0.00    +0.000 NA
ATOM     17  C   UNL     1      -1.621  11.982  21.561  0.00  0.00    +0.000 A 
ATOM     18  C   UNL     1      -0.739  11.298  20.740  0.00  0.00    +0.000 A 
ENDBRANCH   7  13
BRANCH   1  20
ATOM     19  C   UNL     1       3.779   3.794  17.081  0.00  0.00    +0.000 C 
ATOM     20  O   UNL     1       4.369   4.793  17.916  0.00  0.00    +0.000 OA
ENDBRANCH   1  20
BRANCH  11  21
ATOM     21  O   UNL     1       2.976   3.894  20.360  0.00  0.00    +0.000 OA
ATOM     22  C   UNL     1       2.176   3.592  21.491  0.00  0.00    +0.000 C 
ENDBRANCH  11  21
BRANCH   6  23
ATOM     23  C   UNL     1       2.360  11.773  17.944  0.00  0.00    +0.000 C 
BRANCH  23  24
ATOM     24  C   UNL     1       2.443  13.253  18.206  0.00  0.00    +0.000 A 
ATOM     25  C   UNL     1       1.302  13.976  18.575  0.00  0.00    +0.000 A 
ATOM     26  C   UNL     1       1.395  15.343  18.816  0.00  0.00    +0.000 A 
ATOM     27  C   UNL     1       2.631  15.949  18.678  0.00  0.00    +0.000 A 
ATOM     28  N   UNL     1       3.757  15.287  18.329  0.00  0.00    +0.000 NA
ATOM     29  C   UNL     1       3.637  13.958  18.104  0.00  0.00    +0.000 A 
ENDBRANCH  23  24
ENDBRANCH   6  23
TORSDOF 5
ENDMDL
MODEL 7
REMARK VINA RESULT:      -6.4      3.495      6.625
REMARK  Name = 
REMARK  7 active torsions:
REMARK  status: ('A' for Active; 'I' for Inactive)
REMARK    1  A    between atoms: C_1  and  O_2
REMARK    2  A    between atoms: O_2  and  C_3
REMARK    3  A    between atoms: N_8  and  C_9
REMARK    4  A    between atoms: C_9  and  C_10
REMARK    5  A    between atoms: C_16  and  C_17
REMARK    6  A    between atoms: C_26  and  O_27
REMARK    7  A    between atoms: O_27  and  C_28
REMARK                            x       y       z     vdW  Elec       q    Type
REMARK                         _______ _______ _______ _____ _____    ______ ____
ROOT
ATOM      1  C   UNL     1       3.245  14.967  20.394  0.00  0.00    +0.000 A 
ATOM      2  C   UNL     1       2.777  13.742  20.904  0.00  0.00    +0.000 A 
ATOM      3  C   UNL     1       1.681  13.091  20.357  0.00  0.00    +0.000 A 
ATOM      4  N   UNL     1       1.364  11.850  20.788  0.00  0.00    +0.000 NA
ATOM      5  C   UNL     1       0.313  11.224  20.205  0.00  0.00    +0.000 A 
ATOM      6  N   UNL     1      -0.017   9.928  20.629  0.00  0.00    +0.000 N 
ATOM      7  C   UNL     1      -0.468  11.898  19.239  0.00  0.00    +0.000 A 
ATOM      8  N   UNL     1      -0.126  13.141  18.791  0.00  0.00    +0.000 NA
ATOM      9  C   UNL     1       0.956  13.730  19.341  0.00  0.00    +0.000 A 
ATOM     10  C   UNL     1       1.372  14.966  18.884  0.00  0.00    +0.000 A 
ATOM     11  C   UNL     1       2.516  15.600  19.384  0.00  0.00    +0.000 A 
ATOM     12  H   UNL     1      -0.379   9.392  19.847  0.00  0.00    +0.000 HD
ENDROOT
BRANCH   7  13
ATOM     13  C   UNL     1      -1.638  11.301  18.553  0.00  0.00    +0.000 A 
ATOM     14  C   UNL     1      -1.513  10.278  17.601  0.00  0.00    +0.000 A 
ATOM     15  C   UNL     1      -2.627   9.865  16.892  0.00  0.00    +0.000 A 
ATOM     16  N   UNL     1      -3.867  10.348  17.102  0.00  0.00    +0.000 NA
ATOM     17  C   UNL     1      -3.996  11.272  18.074  0.00  0.00    +0.000 A 
ATOM     18  C   UNL     1      -2.934  11.773  18.810  0.00  0.00    +0.000 A 
ENDBRANCH   7  13
BRANCH   1  20
ATOM     19  C   UNL     1       5.593  15.233  20.185  0.00  0.00    +0.000 C 
ATOM     20  O   UNL     1       4.384  15.545  20.883  0.00  0.00    +0.000 OA
ENDBRANCH   1  20
BRANCH  11  21
ATOM     21  O   UNL     1       2.764  16.788  18.750  0.00  0.00    +0.000 OA
ATOM     22  C   UNL     1       3.164  16.793  17.389  0.00  0.00    +0.000 C 
ENDBRANCH  11  21
BRANCH   6  23
ATOM     23  C   UNL     1       0.980   9.146  21.337  0.00  0.00    +0.000 C 
BRANCH  23  24
ATOM     24  C   UNL     1       1.554   8.141  20.374  0.00  0.00    +0.000 A 
ATOM     25  C   UNL     1       1.741   6.808  20.762  0.00  0.00    +0.000 A 
ATOM     26  C   UNL     1       2.270   5.891  19.860  0.00  0.00    +0.000 A 
ATOM     27  C   UNL     1       2.598   6.336  18.591  0.00  0.00    +0.000 A 
ATOM     28  N   UNL     1       2.429   7.610  18.176  0.00  0.00    +0.000 NA
ATOM     29  C   UNL     1       1.910   8.480  19.074  0.00  0.00    +0.000 A 
ENDBRANCH  23  24
ENDBRANCH   6  23
TORSDOF 5
ENDMDL
MODEL 8
REMARK VINA RESULT:      -6.4      3.520      6.639
REMARK  Name = 
REMARK  7 active torsions:
REMARK  status: ('A' for Active; 'I' for Inactive)
REMARK    1  A    between atoms: C_1  and  O_2
REMARK    2  A    between atoms: O_2  and  C_3
REMARK    3  A    between atoms: N_8  and  C_9
REMARK    4  A    between atoms: C_9  and  C_10
REMARK    5  A    between atoms: C_16  and  C_17
REMARK    6  A    between atoms: C_26  and  O_27
REMARK    7  A    between atoms: O_27  and  C_28
REMARK                            x       y       z     vdW  Elec       q    Type
REMARK                         _______ _______ _______ _____ _____    ______ ____
ROOT
ATOM      1  C   UNL     1       3.369  14.942  20.349  0.00  0.00    +0.000 A 
ATOM      2  C   UNL     1       2.893  13.720  20.858  0.00  0.00    +0.000 A 
ATOM      3  C   UNL     1       1.795  13.074  20.308  0.00  0.00    +0.000 A 
ATOM      4  N   UNL     1       1.470  11.835  20.739  0.00  0.00    +0.000 NA
ATOM      5  C   UNL     1       0.418  11.214  20.153  0.00  0.00    +0.000 A 
ATOM      6  N   UNL     1       0.081   9.920  20.576  0.00  0.00    +0.000 N 
ATOM      7  C   UNL     1      -0.357  11.891  19.185  0.00  0.00    +0.000 A 
ATOM      8  N   UNL     1      -0.007  13.132  18.737  0.00  0.00    +0.000 NA
ATOM      9  C   UNL     1       1.076  13.716  19.289  0.00  0.00    +0.000 A 
ATOM     10  C   UNL     1       1.500  14.950  18.833  0.00  0.00    +0.000 A 
ATOM     11  C   UNL     1       2.646  15.579  19.336  0.00  0.00    +0.000 A 
ATOM     12  H   UNL     1      -0.282   9.386  19.793  0.00  0.00    +0.000 HD
ENDROOT
BRANCH   7  13
ATOM     13  C   UNL     1      -1.528  11.300  18.495  0.00  0.00    +0.000 A 
ATOM     14  C   UNL     1      -1.404  10.286  17.534  0.00  0.00    +0.000 A 
ATOM     15  C   UNL     1      -2.520   9.879  16.823  0.00  0.00    +0.000 A 
ATOM     16  N   UNL     1      -3.759  10.360  17.039  0.00  0.00    +0.000 NA
ATOM     17  C   UNL     1      -3.887  11.275  18.020  0.00  0.00    +0.000 A 
ATOM     18  C   UNL     1      -2.824  11.770  18.759  0.00  0.00    +0.000 A 
ENDBRANCH   7  13
BRANCH   1  20
ATOM     19  C   UNL     1       4.340  16.372  21.973  0.00  0.00    +0.000 C 
ATOM     20  O   UNL     1       4.509  15.515  20.841  0.00  0.00    +0.000 OA
ENDBRANCH   1  20
BRANCH  11  21
ATOM     21  O   UNL     1       2.901  16.765  18.703  0.00  0.00    +0.000 OA
ATOM     22  C   UNL     1       2.900  16.824  17.285  0.00  0.00    +0.000 C 
ENDBRANCH  11  21
BRANCH   6  23
ATOM     23  C   UNL     1       1.071   9.133  21.287  0.00  0.00    +0.000 C 
BRANCH  23  24
ATOM     24  C   UNL     1       1.593   8.080  20.346  0.00  0.00    +0.000 A 
ATOM     25  C   UNL     1       1.993   8.421  19.048  0.00  0.00    +0.000 A 
ATOM     26  C   UNL     1       2.476   7.437  18.190  0.00  0.00    +0.000 A 
ATOM     27  C   UNL     1       2.544   6.137  18.658  0.00  0.00    +0.000 A 
ATOM     28  N   UNL     1       2.173   5.768  19.904  0.00  0.00    +0.000 NA
ATOM     29  C   UNL     1       1.710   6.746  20.717  0.00  0.00    +0.000 A 
ENDBRANCH  23  24
ENDBRANCH   6  23
TORSDOF 5
ENDMDL
MODEL 9
REMARK VINA RESULT:      -6.3      6.295      8.347
REMARK  Name = 
REMARK  7 active torsions:
REMARK  status: ('A' for Active; 'I' for Inactive)
REMARK    1  A    between atoms: C_1  and  O_2
REMARK    2  A    between atoms: O_2  and  C_3
REMARK    3  A    between atoms: N_8  and  C_9
REMARK    4  A    between atoms: C_9  and  C_10
REMARK    5  A    between atoms: C_16  and  C_17
REMARK    6  A    between atoms: C_26  and  O_27
REMARK    7  A    between atoms: O_27  and  C_28
REMARK                            x       y       z     vdW  Elec       q    Type
REMARK                         _______ _______ _______ _____ _____    ______ ____
ROOT
ATOM      1  C   UNL     1       3.275  14.915  18.467  0.00  0.00    +0.000 A 
ATOM      2  C   UNL     1       2.603  13.679  18.411  0.00  0.00    +0.000 A 
ATOM      3  C   UNL     1       1.491  13.414  19.197  0.00  0.00    +0.000 A 
ATOM      4  N   UNL     1       0.797  12.270  18.999  0.00  0.00    +0.000 NA
ATOM      5  C   UNL     1      -0.308  12.059  19.754  0.00  0.00    +0.000 A 
ATOM      6  N   UNL     1      -1.049  10.886  19.546  0.00  0.00    +0.000 N 
ATOM      7  C   UNL     1      -0.659  12.974  20.771  0.00  0.00    +0.000 A 
ATOM      8  N   UNL     1       0.032  14.138  20.948  0.00  0.00    +0.000 NA
ATOM      9  C   UNL     1       1.097  14.362  20.152  0.00  0.00    +0.000 A 
ATOM     10  C   UNL     1       1.797  15.550  20.258  0.00  0.00    +0.000 A 
ATOM     11  C   UNL     1       2.880  15.855  19.423  0.00  0.00    +0.000 A 
ATOM     12  H   UNL     1      -2.034  11.069  19.707  0.00  0.00    +0.000 HD
ENDROOT
BRANCH   7  13
ATOM     13  C   UNL     1      -1.842  12.825  21.652  0.00  0.00    +0.000 A 
ATOM     14  C   UNL     1      -1.756  12.285  22.943  0.00  0.00    +0.000 A 
ATOM     15  C   UNL     1      -2.916  12.039  23.658  0.00  0.00    +0.000 A 
ATOM     16  N   UNL     1      -4.148  12.347  23.211  0.00  0.00    +0.000 NA
ATOM     17  C   UNL     1      -4.219  12.941  22.004  0.00  0.00    +0.000 A 
ATOM     18  C   UNL     1      -3.118  13.193  21.201  0.00  0.00    +0.000 A 
ENDBRANCH   7  13
BRANCH   1  20
ATOM     19  C   UNL     1       5.601  14.745  18.034  0.00  0.00    +0.000 C 
ATOM     20  O   UNL     1       4.308  15.194  17.617  0.00  0.00    +0.000 OA
ENDBRANCH   1  20
BRANCH  11  21
ATOM     21  O   UNL     1       3.386  17.102  19.674  0.00  0.00    +0.000 OA
ATOM     22  C   UNL     1       2.594  18.062  20.355  0.00  0.00    +0.000 C 
ENDBRANCH  11  21
BRANCH   6  23
ATOM     23  C   UNL     1      -0.884  10.163  18.298  0.00  0.00    +0.000 C 
BRANCH  23  24
ATOM     24  C   UNL     1      -2.068  10.471  17.421  0.00  0.00    +0.000 A 
ATOM     25  C   UNL     1      -2.183   9.896  16.150  0.00  0.00    +0.000 A 
ATOM     26  C   UNL     1      -3.284  10.189  15.352  0.00  0.00    +0.000 A 
ATOM     27  C   UNL     1      -4.242  11.054  15.852  0.00  0.00    +0.000 A 
ATOM     28  N   UNL     1      -4.172  11.626  17.074  0.00  0.00    +0.000 NA
ATOM     29  C   UNL     1      -3.091  11.320  17.829  0.00  0.00    +0.000 A 
ENDBRANCH  23  24
ENDBRANCH   6  23
TORSDOF 5
ENDMDL
