MODEL 1
REMARK VINA RESULT:      -8.9      0.000      0.000
REMARK  Name = 
REMARK  7 active torsions:
REMARK  status: ('A' for Active; 'I' for Inactive)
REMARK    1  A    between atoms: C_1  and  N_2
REMARK    2  A    between atoms: N_2  and  C_3
REMARK    3  A    between atoms: N_2  and  C_18
REMARK    4  A    between atoms: C_3  and  C_4
REMARK    5  A    between atoms: N_8  and  C_9
REMARK    6  A    between atoms: C_9  and  C_10
REMARK    7  A    between atoms: C_23  and  O_24
REMARK                            x       y       z     vdW  Elec       q    Type
REMARK                         _______ _______ _______ _____ _____    ______ ____
ROOT
ATOM      1  C   UNL     1       5.763   5.380  17.542  0.00  0.00    +0.000 A 
ATOM      2  C   UNL     1       6.082   6.449  16.743  0.00  0.00    +0.000 A 
ATOM      3  N   UNL     1       7.027   7.355  17.046  0.00  0.00    +0.000 NA
ATOM      4  C   UNL     1       7.686   7.190  18.197  0.00  0.00    +0.000 A 
ATOM      5  N   UNL     1       8.631   8.121  18.600  0.00  0.00    +0.000 N 
ATOM      6  N   UNL     1       7.469   6.166  19.041  0.00  0.00    +0.000 NA
ATOM      7  C   UNL     1       6.516   5.283  18.693  0.00  0.00    +0.000 A 
ATOM      8  H   UNL     1       8.746   8.027  19.602  0.00  0.00    +0.000 HD
ENDROOT
BRANCH   1   9
ATOM      9  C   UNL     1       4.604   4.471  17.234  0.00  0.00    +0.000 C 
BRANCH   9  11
ATOM     10  C   UNL     1       2.733   5.736  18.015  0.00  0.00    +0.000 C 
ATOM     11  N   UNL     1       3.523   4.512  18.240  0.00  0.00    +0.000 NA
BRANCH  11  12
ATOM     12  C   UNL     1       2.652   3.284  18.237  0.00  0.00    +0.000 C 
ATOM     13  C   UNL     1       1.210   3.621  18.714  0.00  0.00    +0.000 C 
ATOM     14  C   UNL     1       1.173   4.068  20.181  0.00  0.00    +0.000 C 
ATOM     15  C   UNL     1       1.805   3.039  21.121  0.00  0.00    +0.000 C 
ATOM     16  C   UNL     1       3.180   2.574  20.638  0.00  0.00    +0.000 C 
ATOM     17  C   UNL     1       3.092   2.110  19.179  0.00  0.00    +0.000 C 
BRANCH  17  18
ATOM     18  O   UNL     1       4.268   1.449  18.724  0.00  0.00    +0.000 OA
ATOM     19  H   UNL     1       4.381   1.631  17.777  0.00  0.00    +0.000 HD
ENDBRANCH  17  18
ENDBRANCH  11  12
ENDBRANCH   9  11
ENDBRANCH   1   9
BRANCH   5  20
ATOM     20  C   UNL     1       8.348   9.462  18.126  0.00  0.00    +0.000 C 
BRANCH  20  21
ATOM     21  C   UNL     1       9.352  10.425  18.719  0.00  0.00    +0.000 A 
ATOM     22  C   UNL     1      10.277  11.075  17.888  0.00  0.00    +0.000 A 
ATOM     23  C   UNL     1      11.232  11.935  18.427  0.00  0.00    +0.000 A 
ATOM     24  C   UNL     1      11.258  12.171  19.800  0.00  0.00    +0.000 A 
ATOM     25  C   UNL     1      10.322  11.560  20.632  0.00  0.00    +0.000 A 
ATOM     26  C   UNL     1       9.371  10.691  20.095  0.00  0.00    +0.000 A 
ENDBRANCH  20  21
ENDBRANCH   5  20
TORSDOF 6
ENDMDL
MODEL 2
REMARK VINA RESULT:      -7.9      1.195      1.827
REMARK  Name = 
REMARK  7 active torsions:
REMARK  status: ('A' for Active; 'I' for Inactive)
REMARK    1  A    between atoms: C_1  and  N_2
REMARK    2  A    between atoms: N_2  and  C_3
REMARK    3  A    between atoms: N_2  and  C_18
REMARK    4  A    between atoms: C_3  and  C_4
REMARK    5  A    between atoms: N_8  and  C_9
REMARK    6  A    between atoms: C_9  and  C_10
REMARK    7  A    between atoms: C_23  and  O_24
REMARK                            x       y       z     vdW  Elec       q    Type
REMARK                         _______ _______ _______ _____ _____    ______ ____
ROOT
ATOM      1  C   UNL     1       4.667   5.016  16.998  0.00  0.00    +0.000 A 
ATOM      2  C   UNL     1       4.964   5.741  18.125  0.00  0.00    +0.000 A 
ATOM      3  N   UNL     1       5.877   6.727  18.164  0.00  0.00    +0.000 NA
ATOM      4  C   UNL     1       6.525   7.004  17.028  0.00  0.00    +0.000 A 
ATOM      5  N   UNL     1       7.523   7.967  17.012  0.00  0.00    +0.000 N 
ATOM      6  N   UNL     1       6.296   6.372  15.864  0.00  0.00    +0.000 NA
ATOM      7  C   UNL     1       5.370   5.396  15.875  0.00  0.00    +0.000 A 
ATOM      8  H   UNL     1       8.111   7.785  16.206  0.00  0.00    +0.000 HD
ENDROOT
BRANCH   1   9
ATOM      9  C   UNL     1       3.742   3.831  17.033  0.00  0.00    +0.000 C 
BRANCH   9  11
ATOM     10  C   UNL     1       1.596   4.773  17.498  0.00  0.00    +0.000 C 
ATOM     11  N   UNL     1       2.674   3.929  18.047  0.00  0.00    +0.000 NA
BRANCH  11  12
ATOM     12  C   UNL     1       2.151   2.593  18.502  0.00  0.00    +0.000 C 
ATOM     13  C   UNL     1       0.880   2.761  19.384  0.00  0.00    +0.000 C 
ATOM     14  C   UNL     1       1.180   3.482  20.704  0.00  0.00    +0.000 C 
ATOM     15  C   UNL     1       2.285   2.793  21.508  0.00  0.00    +0.000 C 
ATOM     16  C   UNL     1       3.521   2.488  20.661  0.00  0.00    +0.000 C 
ATOM     17  C   UNL     1       3.111   1.729  19.392  0.00  0.00    +0.000 C 
BRANCH  17  18
ATOM     18  O   UNL     1       4.218   1.208  18.664  0.00  0.00    +0.000 OA
ATOM     19  H   UNL     1       4.842   1.930  18.487  0.00  0.00    +0.000 HD
ENDBRANCH  17  18
ENDBRANCH  11  12
ENDBRANCH   9  11
ENDBRANCH   1   9
BRANCH   5  20
ATOM     20  C   UNL     1       8.219   8.089  18.278  0.00  0.00    +0.000 C 
BRANCH  20  21
ATOM     21  C   UNL     1       8.631   9.529  18.486  0.00  0.00    +0.000 A 
ATOM     22  C   UNL     1       9.393   9.886  19.609  0.00  0.00    +0.000 A 
ATOM     23  C   UNL     1       9.746  11.215  19.833  0.00  0.00    +0.000 A 
ATOM     24  C   UNL     1       9.361  12.198  18.924  0.00  0.00    +0.000 A 
ATOM     25  C   UNL     1       8.635  11.852  17.786  0.00  0.00    +0.000 A 
ATOM     26  C   UNL     1       8.271  10.523  17.566  0.00  0.00    +0.000 A 
ENDBRANCH  20  21
ENDBRANCH   5  20
TORSDOF 6
ENDMDL
MODEL 3
REMARK VINA RESULT:      -7.8      1.263      1.664
REMARK  Name = 
REMARK  7 active torsions:
REMARK  status: ('A' for Active; 'I' for Inactive)
REMARK    1  A    between atoms: C_1  and  N_2
REMARK    2  A    between atoms: N_2  and  C_3
REMARK    3  A    between atoms: N_2  and  C_18
REMARK    4  A    between atoms: C_3  and  C_4
REMARK    5  A    between atoms: N_8  and  C_9
REMARK    6  A    between atoms: C_9  and  C_10
REMARK    7  A    between atoms: C_23  and  O_24
REMARK                            x       y       z     vdW  Elec       q    Type
REMARK                         _______ _______ _______ _____ _____    ______ ____
ROOT
ATOM      1  C   UNL     1       5.200   4.817  17.334  0.00  0.00    +0.000 A 
ATOM      2  C   UNL     1       5.782   5.335  18.464  0.00  0.00    +0.000 A 
ATOM      3  N   UNL     1       6.478   6.485  18.489  0.00  0.00    +0.000 NA
ATOM      4  C   UNL     1       6.600   7.150  17.336  0.00  0.00    +0.000 A 
ATOM      5  N   UNL     1       7.357   8.311  17.278  0.00  0.00    +0.000 N 
ATOM      6  N   UNL     1       6.052   6.744  16.178  0.00  0.00    +0.000 NA
ATOM      7  C   UNL     1       5.361   5.590  16.204  0.00  0.00    +0.000 A 
ATOM      8  H   UNL     1       7.619   8.457  16.309  0.00  0.00    +0.000 HD
ENDROOT
BRANCH   1   9
ATOM      9  C   UNL     1       4.552   3.459  17.321  0.00  0.00    +0.000 C 
BRANCH   9  11
ATOM     10  C   UNL     1       2.197   3.637  16.959  0.00  0.00    +0.000 C 
ATOM     11  N   UNL     1       3.233   3.414  17.984  0.00  0.00    +0.000 NA
BRANCH  11  12
ATOM     12  C   UNL     1       2.988   2.142  18.750  0.00  0.00    +0.000 C 
ATOM     13  C   UNL     1       1.467   1.921  18.993  0.00  0.00    +0.000 C 
ATOM     14  C   UNL     1       0.862   2.996  19.906  0.00  0.00    +0.000 C 
ATOM     15  C   UNL     1       1.593   3.104  21.245  0.00  0.00    +0.000 C 
ATOM     16  C   UNL     1       3.111   3.201  21.077  0.00  0.00    +0.000 C 
ATOM     17  C   UNL     1       3.612   2.056  20.187  0.00  0.00    +0.000 C 
BRANCH  17  18
ATOM     18  O   UNL     1       5.030   1.937  20.165  0.00  0.00    +0.000 OA
ATOM     19  H   UNL     1       5.376   2.468  19.430  0.00  0.00    +0.000 HD
ENDBRANCH  17  18
ENDBRANCH  11  12
ENDBRANCH   9  11
ENDBRANCH   1   9
BRANCH   5  20
ATOM     20  C   UNL     1       8.449   8.329  18.231  0.00  0.00    +0.000 C 
BRANCH  20  21
ATOM     21  C   UNL     1       8.809   9.762  18.553  0.00  0.00    +0.000 A 
ATOM     22  C   UNL     1       8.528  10.780  17.629  0.00  0.00    +0.000 A 
ATOM     23  C   UNL     1       8.891  12.099  17.896  0.00  0.00    +0.000 A 
ATOM     24  C   UNL     1       9.517  12.417  19.099  0.00  0.00    +0.000 A 
ATOM     25  C   UNL     1       9.769  11.420  20.041  0.00  0.00    +0.000 A 
ATOM     26  C   UNL     1       9.416  10.098  19.770  0.00  0.00    +0.000 A 
ENDBRANCH  20  21
ENDBRANCH   5  20
TORSDOF 6
ENDMDL
MODEL 4
REMARK VINA RESULT:      -7.8      4.250      6.960
REMARK  Name = 
REMARK  7 active torsions:
REMARK  status: ('A' for Active; 'I' for Inactive)
REMARK    1  A    between atoms: C_1  and  N_2
REMARK    2  A    between atoms: N_2  and  C_3
REMARK    3  A    between atoms: N_2  and  C_18
REMARK    4  A    between atoms: C_3  and  C_4
REMARK    5  A    between atoms: N_8  and  C_9
REMARK    6  A    between atoms: C_9  and  C_10
REMARK    7  A    between atoms: C_23  and  O_24
REMARK                            x       y       z     vdW  Elec       q    Type
REMARK                         _______ _______ _______ _____ _____    ______ ____
ROOT
ATOM      1  C   UNL     1       5.918   4.403  18.049  0.00  0.00    +0.000 A 
ATOM      2  C   UNL     1       5.246   3.987  16.927  0.00  0.00    +0.000 A 
ATOM      3  N   UNL     1       5.750   4.057  15.683  0.00  0.00    +0.000 NA
ATOM      4  C   UNL     1       6.980   4.565  15.549  0.00  0.00    +0.000 A 
ATOM      5  N   UNL     1       7.535   4.723  14.289  0.00  0.00    +0.000 N 
ATOM      6  N   UNL     1       7.732   4.981  16.583  0.00  0.00    +0.000 NA
ATOM      7  C   UNL     1       7.186   4.886  17.808  0.00  0.00    +0.000 A 
ATOM      8  H   UNL     1       8.270   5.418  14.363  0.00  0.00    +0.000 HD
ENDROOT
BRANCH   1   9
ATOM      9  C   UNL     1       5.264   4.438  19.403  0.00  0.00    +0.000 C 
BRANCH   9  11
ATOM     10  C   UNL     1       4.377   2.447  20.384  0.00  0.00    +0.000 C 
ATOM     11  N   UNL     1       4.057   3.593  19.512  0.00  0.00    +0.000 NA
BRANCH  11  12
ATOM     12  C   UNL     1       2.844   4.336  20.000  0.00  0.00    +0.000 C 
ATOM     13  C   UNL     1       1.896   3.396  20.799  0.00  0.00    +0.000 C 
ATOM     14  C   UNL     1       1.295   2.293  19.919  0.00  0.00    +0.000 C 
ATOM     15  C   UNL     1       0.563   2.854  18.698  0.00  0.00    +0.000 C 
ATOM     16  C   UNL     1       1.402   3.882  17.936  0.00  0.00    +0.000 C 
ATOM     17  C   UNL     1       1.913   4.958  18.902  0.00  0.00    +0.000 C 
BRANCH  17  18
ATOM     18  O   UNL     1       2.506   6.072  18.243  0.00  0.00    +0.000 OA
ATOM     19  H   UNL     1       2.852   6.683  18.914  0.00  0.00    +0.000 HD
ENDBRANCH  17  18
ENDBRANCH  11  12
ENDBRANCH   9  11
ENDBRANCH   1   9
BRANCH   5  20
ATOM     20  C   UNL     1       6.547   4.965  13.255  0.00  0.00    +0.000 C 
BRANCH  20  21
ATOM     21  C   UNL     1       6.406   3.727  12.398  0.00  0.00    +0.000 A 
ATOM     22  C   UNL     1       5.131   3.233  12.085  0.00  0.00    +0.000 A 
ATOM     23  C   UNL     1       4.987   2.072  11.328  0.00  0.00    +0.000 A 
ATOM     24  C   UNL     1       6.117   1.405  10.857  0.00  0.00    +0.000 A 
ATOM     25  C   UNL     1       7.388   1.906  11.131  0.00  0.00    +0.000 A 
ATOM     26  C   UNL     1       7.534   3.063  11.897  0.00  0.00    +0.000 A 
ENDBRANCH  20  21
ENDBRANCH   5  20
TORSDOF 6
ENDMDL
MODEL 5
REMARK VINA RESULT:      -7.7      4.332      6.943
REMARK  Name = 
REMARK  7 active torsions:
REMARK  status: ('A' for Active; 'I' for Inactive)
REMARK    1  A    between atoms: C_1  and  N_2
REMARK    2  A    between atoms: N_2  and  C_3
REMARK    3  A    between atoms: N_2  and  C_18
REMARK    4  A    between atoms: C_3  and  C_4
REMARK    5  A    between atoms: N_8  and  C_9
REMARK    6  A    between atoms: C_9  and  C_10
REMARK    7  A    between atoms: C_23  and  O_24
REMARK                            x       y       z     vdW  Elec       q    Type
REMARK                         _______ _______ _______ _____ _____    ______ ____
ROOT
ATOM      1  C   UNL     1       5.905   4.382  18.032  0.00  0.00    +0.000 A 
ATOM      2  C   UNL     1       5.230   4.047  16.886  0.00  0.00    +0.000 A 
ATOM      3  N   UNL     1       5.776   4.079  15.657  0.00  0.00    +0.000 NA
ATOM      4  C   UNL     1       7.055   4.460  15.567  0.00  0.00    +0.000 A 
ATOM      5  N   UNL     1       7.662   4.574  14.326  0.00  0.00    +0.000 N 
ATOM      6  N   UNL     1       7.813   4.787  16.628  0.00  0.00    +0.000 NA
ATOM      7  C   UNL     1       7.223   4.736  17.835  0.00  0.00    +0.000 A 
ATOM      8  H   UNL     1       8.460   5.190  14.431  0.00  0.00    +0.000 HD
ENDROOT
BRANCH   1   9
ATOM      9  C   UNL     1       5.217   4.469  19.367  0.00  0.00    +0.000 C 
BRANCH   9  11
ATOM     10  C   UNL     1       4.594   2.371  20.326  0.00  0.00    +0.000 C 
ATOM     11  N   UNL     1       4.103   3.514  19.534  0.00  0.00    +0.000 NA
BRANCH  11  12
ATOM     12  C   UNL     1       2.874   4.125  20.151  0.00  0.00    +0.000 C 
ATOM     13  C   UNL     1       1.971   3.035  20.796  0.00  0.00    +0.000 C 
ATOM     14  C   UNL     1       1.392   2.068  19.755  0.00  0.00    +0.000 C 
ATOM     15  C   UNL     1       0.622   2.794  18.650  0.00  0.00    +0.000 C 
ATOM     16  C   UNL     1       1.413   3.961  18.056  0.00  0.00    +0.000 C 
ATOM     17  C   UNL     1       1.904   4.884  19.179  0.00  0.00    +0.000 C 
BRANCH  17  18
ATOM     18  O   UNL     1       2.449   6.110  18.703  0.00  0.00    +0.000 OA
ATOM     19  H   UNL     1       1.757   6.593  18.223  0.00  0.00    +0.000 HD
ENDBRANCH  17  18
ENDBRANCH  11  12
ENDBRANCH   9  11
ENDBRANCH   1   9
BRANCH   5  20
ATOM     20  C   UNL     1       6.735   4.926  13.267  0.00  0.00    +0.000 C 
BRANCH  20  21
ATOM     21  C   UNL     1       6.454   3.704  12.421  0.00  0.00    +0.000 A 
ATOM     22  C   UNL     1       7.517   2.948  11.905  0.00  0.00    +0.000 A 
ATOM     23  C   UNL     1       7.271   1.843  11.092  0.00  0.00    +0.000 A 
ATOM     24  C   UNL     1       5.960   1.468  10.806  0.00  0.00    +0.000 A 
ATOM     25  C   UNL     1       4.895   2.190  11.343  0.00  0.00    +0.000 A 
ATOM     26  C   UNL     1       5.139   3.303  12.148  0.00  0.00    +0.000 A 
ENDBRANCH  20  21
ENDBRANCH   5  20
TORSDOF 6
ENDMDL
MODEL 6
REMARK VINA RESULT:      -7.7      4.855      7.414
REMARK  Name = 
REMARK  7 active torsions:
REMARK  status: ('A' for Active; 'I' for Inactive)
REMARK    1  A    between atoms: C_1  and  N_2
REMARK    2  A    between atoms: N_2  and  C_3
REMARK    3  A    between atoms: N_2  and  C_18
REMARK    4  A    between atoms: C_3  and  C_4
REMARK    5  A    between atoms: N_8  and  C_9
REMARK    6  A    between atoms: C_9  and  C_10
REMARK    7  A    between atoms: C_23  and  O_24
REMARK                            x       y       z     vdW  Elec       q    Type
REMARK                         _______ _______ _______ _____ _____    ______ ____
ROOT
ATOM      1  C   UNL     1       3.217   6.808  18.966  0.00  0.00    +0.000 A 
ATOM      2  C   UNL     1       2.244   7.372  19.752  0.00  0.00    +0.000 A 
ATOM      3  N   UNL     1       1.501   8.430  19.383  0.00  0.00    +0.000 NA
ATOM      4  C   UNL     1       1.737   8.951  18.174  0.00  0.00    +0.000 A 
ATOM      5  N   UNL     1       1.050  10.080  17.755  0.00  0.00    +0.000 N 
ATOM      6  N   UNL     1       2.650   8.462  17.317  0.00  0.00    +0.000 NA
ATOM      7  C   UNL     1       3.366   7.401  17.730  0.00  0.00    +0.000 A 
ATOM      8  H   UNL     1       1.594  10.512  17.017  0.00  0.00    +0.000 HD
ENDROOT
BRANCH   1   9
ATOM      9  C   UNL     1       4.119   5.717  19.473  0.00  0.00    +0.000 C 
BRANCH   9  11
ATOM     10  C   UNL     1       5.166   4.150  18.003  0.00  0.00    +0.000 C 
ATOM     11  N   UNL     1       3.945   4.422  18.785  0.00  0.00    +0.000 NA
BRANCH  11  12
ATOM     12  C   UNL     1       3.621   3.285  19.716  0.00  0.00    +0.000 C 
ATOM     13  C   UNL     1       3.355   1.972  18.923  0.00  0.00    +0.000 C 
ATOM     14  C   UNL     1       2.101   2.068  18.044  0.00  0.00    +0.000 C 
ATOM     15  C   UNL     1       0.855   2.455  18.845  0.00  0.00    +0.000 C 
ATOM     16  C   UNL     1       1.091   3.672  19.742  0.00  0.00    +0.000 C 
ATOM     17  C   UNL     1       2.340   3.449  20.605  0.00  0.00    +0.000 C 
BRANCH  17  18
ATOM     18  O   UNL     1       2.500   4.427  21.627  0.00  0.00    +0.000 OA
ATOM     19  H   UNL     1       2.905   4.005  22.402  0.00  0.00    +0.000 HD
ENDBRANCH  17  18
ENDBRANCH  11  12
ENDBRANCH   9  11
ENDBRANCH   1   9
BRANCH   5  20
ATOM     20  C   UNL     1       0.670  10.955  18.847  0.00  0.00    +0.000 C 
BRANCH  20  21
ATOM     21  C   UNL     1      -0.823  11.193  18.801  0.00  0.00    +0.000 A 
ATOM     22  C   UNL     1      -1.610  10.526  17.850  0.00  0.00    +0.000 A 
ATOM     23  C   UNL     1      -2.981  10.766  17.772  0.00  0.00    +0.000 A 
ATOM     24  C   UNL     1      -3.582  11.658  18.657  0.00  0.00    +0.000 A 
ATOM     25  C   UNL     1      -2.816  12.300  19.630  0.00  0.00    +0.000 A 
ATOM     26  C   UNL     1      -1.442  12.068  19.703  0.00  0.00    +0.000 A 
ENDBRANCH  20  21
ENDBRANCH   5  20
TORSDOF 6
ENDMDL
MODEL 7
REMARK VINA RESULT:      -7.6      4.592      8.143
REMARK  Name = 
REMARK  7 active torsions:
REMARK  status: ('A' for Active; 'I' for Inactive)
REMARK    1  A    between atoms: C_1  and  N_2
REMARK    2  A    between atoms: N_2  and  C_3
REMARK    3  A    between atoms: N_2  and  C_18
REMARK    4  A    between atoms: C_3  and  C_4
REMARK    5  A    between atoms: N_8  and  C_9
REMARK    6  A    between atoms: C_9  and  C_10
REMARK    7  A    between atoms: C_23  and  O_24
REMARK                            x       y       z     vdW  Elec       q    Type
REMARK                         _______ _______ _______ _____ _____    ______ ____
ROOT
ATOM      1  C   UNL     1       2.999   6.761  18.333  0.00  0.00    +0.000 A 
ATOM      2  C   UNL     1       3.085   7.960  17.670  0.00  0.00    +0.000 A 
ATOM      3  N   UNL     1       2.433   9.074  18.046  0.00  0.00    +0.000 NA
ATOM      4  C   UNL     1       1.661   8.991  19.134  0.00  0.00    +0.000 A 
ATOM      5  N   UNL     1       0.913  10.085  19.543  0.00  0.00    +0.000 N 
ATOM      6  N   UNL     1       1.523   7.874  19.870  0.00  0.00    +0.000 NA
ATOM      7  C   UNL     1       2.198   6.787  19.455  0.00  0.00    +0.000 A 
ATOM      8  H   UNL     1       0.159   9.740  20.127  0.00  0.00    +0.000 HD
ENDROOT
BRANCH   1   9
ATOM      9  C   UNL     1       3.631   5.506  17.798  0.00  0.00    +0.000 C 
BRANCH   9  11
ATOM     10  C   UNL     1       4.767   3.965  19.228  0.00  0.00    +0.000 C 
ATOM     11  N   UNL     1       4.936   5.180  18.408  0.00  0.00    +0.000 NA
BRANCH  11  12
ATOM     12  C   UNL     1       6.046   5.020  17.406  0.00  0.00    +0.000 C 
ATOM     13  C   UNL     1       7.394   4.696  18.112  0.00  0.00    +0.000 C 
ATOM     14  C   UNL     1       7.885   5.855  18.989  0.00  0.00    +0.000 C 
ATOM     15  C   UNL     1       8.008   7.166  18.210  0.00  0.00    +0.000 C 
ATOM     16  C   UNL     1       6.753   7.480  17.393  0.00  0.00    +0.000 C 
ATOM     17  C   UNL     1       6.380   6.272  16.522  0.00  0.00    +0.000 C 
BRANCH  17  18
ATOM     18  O   UNL     1       5.366   6.558  15.565  0.00  0.00    +0.000 OA
ATOM     19  H   UNL     1       4.854   5.749  15.403  0.00  0.00    +0.000 HD
ENDBRANCH  17  18
ENDBRANCH  11  12
ENDBRANCH   9  11
ENDBRANCH   1   9
BRANCH   5  20
ATOM     20  C   UNL     1       0.511  10.944  18.446  0.00  0.00    +0.000 C 
BRANCH  20  21
ATOM     21  C   UNL     1      -0.987  10.853  18.260  0.00  0.00    +0.000 A 
ATOM     22  C   UNL     1      -1.832  11.751  18.928  0.00  0.00    +0.000 A 
ATOM     23  C   UNL     1      -3.216  11.653  18.797  0.00  0.00    +0.000 A 
ATOM     24  C   UNL     1      -3.768  10.671  17.978  0.00  0.00    +0.000 A 
ATOM     25  C   UNL     1      -2.937   9.795  17.280  0.00  0.00    +0.000 A 
ATOM     26  C   UNL     1      -1.552   9.885  17.419  0.00  0.00    +0.000 A 
ENDBRANCH  20  21
ENDBRANCH   5  20
TORSDOF 6
ENDMDL
MODEL 8
REMARK VINA RESULT:      -7.6      4.209      6.710
REMARK  Name = 
REMARK  7 active torsions:
REMARK  status: ('A' for Active; 'I' for Inactive)
REMARK    1  A    between atoms: C_1  and  N_2
REMARK    2  A    between atoms: N_2  and  C_3
REMARK    3  A    between atoms: N_2  and  C_18
REMARK    4  A    between atoms: C_3  and  C_4
REMARK    5  A    between atoms: N_8  and  C_9
REMARK    6  A    between atoms: C_9  and  C_10
REMARK    7  A    between atoms: C_23  and  O_24
REMARK                            x       y       z     vdW  Elec       q    Type
REMARK                         _______ _______ _______ _____ _____    ______ ____
ROOT
ATOM      1  C   UNL     1       5.657   5.538  18.030  0.00  0.00    +0.000 A 
ATOM      2  C   UNL     1       6.687   4.749  17.585  0.00  0.00    +0.000 A 
ATOM      3  N   UNL     1       7.094   4.698  16.304  0.00  0.00    +0.000 NA
ATOM      4  C   UNL     1       6.445   5.471  15.426  0.00  0.00    +0.000 A 
ATOM      5  N   UNL     1       6.772   5.421  14.080  0.00  0.00    +0.000 N 
ATOM      6  N   UNL     1       5.438   6.296  15.760  0.00  0.00    +0.000 NA
ATOM      7  C   UNL     1       5.070   6.314  17.054  0.00  0.00    +0.000 A 
ATOM      8  H   UNL     1       5.977   5.776  13.559  0.00  0.00    +0.000 HD
ENDROOT
BRANCH   1   9
ATOM      9  C   UNL     1       5.144   5.458  19.442  0.00  0.00    +0.000 C 
BRANCH   9  11
ATOM     10  C   UNL     1       2.990   6.369  18.954  0.00  0.00    +0.000 C 
ATOM     11  N   UNL     1       3.691   5.213  19.542  0.00  0.00    +0.000 NA
BRANCH  11  12
ATOM     12  C   UNL     1       3.253   3.921  18.907  0.00  0.00    +0.000 C 
ATOM     13  C   UNL     1       1.709   3.884  18.722  0.00  0.00    +0.000 C 
ATOM     14  C   UNL     1       0.963   3.880  20.063  0.00  0.00    +0.000 C 
ATOM     15  C   UNL     1       1.406   2.734  20.974  0.00  0.00    +0.000 C 
ATOM     16  C   UNL     1       2.928   2.641  21.099  0.00  0.00    +0.000 C 
ATOM     17  C   UNL     1       3.565   2.606  19.704  0.00  0.00    +0.000 C 
BRANCH  17  18
ATOM     18  O   UNL     1       4.953   2.290  19.725  0.00  0.00    +0.000 OA
ATOM     19  H   UNL     1       5.119   1.575  19.091  0.00  0.00    +0.000 HD
ENDBRANCH  17  18
ENDBRANCH  11  12
ENDBRANCH   9  11
ENDBRANCH   1   9
BRANCH   5  20
ATOM     20  C   UNL     1       7.269   4.126  13.659  0.00  0.00    +0.000 C 
BRANCH  20  21
ATOM     21  C   UNL     1       6.285   3.500  12.696  0.00  0.00    +0.000 A 
ATOM     22  C   UNL     1       5.018   4.075  12.516  0.00  0.00    +0.000 A 
ATOM     23  C   UNL     1       4.088   3.486  11.661  0.00  0.00    +0.000 A 
ATOM     24  C   UNL     1       4.423   2.330  10.961  0.00  0.00    +0.000 A 
ATOM     25  C   UNL     1       5.691   1.769  11.104  0.00  0.00    +0.000 A 
ATOM     26  C   UNL     1       6.620   2.351  11.967  0.00  0.00    +0.000 A 
ENDBRANCH  20  21
ENDBRANCH   5  20
TORSDOF 6
ENDMDL
MODEL 9
REMARK VINA RESULT:      -7.6      3.763      6.769
REMARK  Name = 
REMARK  7 active torsions:
REMARK  status: ('A' for Active; 'I' for Inactive)
REMARK    1  A    between atoms: C_1  and  N_2
REMARK    2  A    between atoms: N_2  and  C_3
REMARK    3  A    between atoms: N_2  and  C_18
REMARK    4  A    between atoms: C_3  and  C_4
REMARK    5  A    between atoms: N_8  and  C_9
REMARK    6  A    between atoms: C_9  and  C_10
REMARK    7  A    between atoms: C_23  and  O_24
REMARK                            x       y       z     vdW  Elec       q    Type
REMARK                         _______ _______ _______ _____ _____    ______ ____
ROOT
ATOM      1  C   UNL     1       5.870   5.001  17.983  0.00  0.00    +0.000 A 
ATOM      2  C   UNL     1       5.253   4.225  17.035  0.00  0.00    +0.000 A 
ATOM      3  N   UNL     1       5.612   4.195  15.740  0.00  0.00    +0.000 NA
ATOM      4  C   UNL     1       6.635   4.973  15.372  0.00  0.00    +0.000 A 
ATOM      5  N   UNL     1       7.019   5.038  14.041  0.00  0.00    +0.000 N 
ATOM      6  N   UNL     1       7.323   5.754  16.223  0.00  0.00    +0.000 NA
ATOM      7  C   UNL     1       6.928   5.746  17.509  0.00  0.00    +0.000 A 
ATOM      8  H   UNL     1       7.533   5.902  13.912  0.00  0.00    +0.000 HD
ENDROOT
BRANCH   1   9
ATOM      9  C   UNL     1       5.346   5.111  19.389  0.00  0.00    +0.000 C 
BRANCH   9  11
ATOM     10  C   UNL     1       3.330   6.231  18.766  0.00  0.00    +0.000 C 
ATOM     11  N   UNL     1       3.874   5.066  19.489  0.00  0.00    +0.000 NA
BRANCH  11  12
ATOM     12  C   UNL     1       3.275   3.779  18.990  0.00  0.00    +0.000 C 
ATOM     13  C   UNL     1       1.729   3.894  18.861  0.00  0.00    +0.000 C 
ATOM     14  C   UNL     1       1.045   4.089  20.220  0.00  0.00    +0.000 C 
ATOM     15  C   UNL     1       1.404   2.985  21.218  0.00  0.00    +0.000 C 
ATOM     16  C   UNL     1       2.911   2.739  21.299  0.00  0.00    +0.000 C 
ATOM     17  C   UNL     1       3.481   2.513  19.893  0.00  0.00    +0.000 C 
BRANCH  17  18
ATOM     18  O   UNL     1       4.827   2.051  19.896  0.00  0.00    +0.000 OA
ATOM     19  H   UNL     1       5.075   1.821  20.806  0.00  0.00    +0.000 HD
ENDBRANCH  17  18
ENDBRANCH  11  12
ENDBRANCH   9  11
ENDBRANCH   1   9
BRANCH   5  20
ATOM     20  C   UNL     1       5.921   4.819  13.119  0.00  0.00    +0.000 C 
BRANCH  20  21
ATOM     21  C   UNL     1       6.194   3.577  12.301  0.00  0.00    +0.000 A 
ATOM     22  C   UNL     1       5.137   2.725  11.945  0.00  0.00    +0.000 A 
ATOM     23  C   UNL     1       5.381   1.557  11.224  0.00  0.00    +0.000 A 
ATOM     24  C   UNL     1       6.679   1.240  10.833  0.00  0.00    +0.000 A 
ATOM     25  C   UNL     1       7.733   2.096  11.150  0.00  0.00    +0.000 A 
ATOM     26  C   UNL     1       7.493   3.261  11.880  0.00  0.00    +0.000 A 
ENDBRANCH  20  21
ENDBRANCH   5  20
TORSDOF 6
ENDMDL
