MODEL 1
REMARK VINA RESULT:      -7.4      0.000      0.000
REMARK  Name = 
REMARK  8 active torsions:
REMARK  status: ('A' for Active; 'I' for Inactive)
REMARK    1  A    between atoms: C_1  and  O_2
REMARK    2  A    between atoms: O_2  and  C_3
REMARK    3  A    between atoms: C_5  and  C_6
REMARK    4  A    between atoms: C_8  and  C_9
REMARK    5  A    between atoms: C_8  and  C_10
REMARK    6  A    between atoms: C_11  and  C_12
REMARK    7  A    between atoms: C_11  and  C_13
REMARK    8  A    between atoms: C_18  and  O_19
REMARK                            x       y       z     vdW  Elec       q    Type
REMARK                         _______ _______ _______ _____ _____    ______ ____
ROOT
ATOM      1  C   UNL     1       6.914   5.921  16.316  0.00  0.00    +0.000 A 
ATOM      2  C   UNL     1       5.904   5.566  17.221  0.00  0.00    +0.000 A 
ATOM      3  C   UNL     1       5.071   4.466  16.981  0.00  0.00    +0.000 A 
ATOM      4  C   UNL     1       5.238   3.713  15.818  0.00  0.00    +0.000 A 
ATOM      5  C   UNL     1       6.217   4.070  14.895  0.00  0.00    +0.000 A 
ATOM      6  C   UNL     1       7.055   5.165  15.141  0.00  0.00    +0.000 A 
ENDROOT
BRANCH   3   7
ATOM      7  C   UNL     1       4.033   4.051  17.974  0.00  0.00    +0.000 C 
ATOM      8  N   UNL     1       2.823   4.570  17.894  0.00  0.00    +0.000 NA
ATOM      9  C   UNL     1       2.083   3.993  19.069  0.00  0.00    +0.000 C 
ATOM     10  C   UNL     1       0.682   3.593  18.589  0.00  0.00    +0.000 C 
ATOM     11  C   UNL     1       1.924   5.156  20.071  0.00  0.00    +0.000 C 
ATOM     12  C   UNL     1       2.960   2.786  19.600  0.00  0.00    +0.000 C 
ATOM     13  C   UNL     1       3.000   2.683  21.134  0.00  0.00    +0.000 C 
ATOM     14  C   UNL     1       2.512   1.409  19.057  0.00  0.00    +0.000 C 
ATOM     15  N   UNL     1       4.241   3.064  18.930  0.00  0.00    +0.000 N 
ATOM     16  O   UNL     1       5.366   3.250  19.745  0.00  0.00    +0.000 OA
ENDBRANCH   3   7
BRANCH   1  18
ATOM     17  C   UNL     1       7.876   7.181  18.108  0.00  0.00    +0.000 C 
ATOM     18  O   UNL     1       7.660   6.998  16.720  0.00  0.00    +0.000 OA
ENDBRANCH   1  18
BRANCH   6  19
ATOM     19  O   UNL     1       8.005   5.467  14.204  0.00  0.00    +0.000 OA
ATOM     20  H   UNL     1       8.799   5.773  14.671  0.00  0.00    +0.000 HD
ENDBRANCH   6  19
TORSDOF 3
ENDMDL
MODEL 2
REMARK VINA RESULT:      -7.0      1.173      2.208
REMARK  Name = 
REMARK  8 active torsions:
REMARK  status: ('A' for Active; 'I' for Inactive)
REMARK    1  A    between atoms: C_1  and  O_2
REMARK    2  A    between atoms: O_2  and  C_3
REMARK    3  A    between atoms: C_5  and  C_6
REMARK    4  A    between atoms: C_8  and  C_9
REMARK    5  A    between atoms: C_8  and  C_10
REMARK    6  A    between atoms: C_11  and  C_12
REMARK    7  A    between atoms: C_11  and  C_13
REMARK    8  A    between atoms: C_18  and  O_19
REMARK                            x       y       z     vdW  Elec       q    Type
REMARK                         _______ _______ _______ _____ _____    ______ ____
ROOT
ATOM      1  C   UNL     1       6.710   5.909  16.551  0.00  0.00    +0.000 A 
ATOM      2  C   UNL     1       5.735   5.555  17.493  0.00  0.00    +0.000 A 
ATOM      3  C   UNL     1       4.905   4.444  17.294  0.00  0.00    +0.000 A 
ATOM      4  C   UNL     1       5.040   3.680  16.134  0.00  0.00    +0.000 A 
ATOM      5  C   UNL     1       5.984   4.035  15.174  0.00  0.00    +0.000 A 
ATOM      6  C   UNL     1       6.819   5.142  15.381  0.00  0.00    +0.000 A 
ENDROOT
BRANCH   3   7
ATOM      7  C   UNL     1       3.905   4.031  18.325  0.00  0.00    +0.000 C 
ATOM      8  N   UNL     1       4.085   2.901  18.980  0.00  0.00    +0.000 NA
ATOM      9  C   UNL     1       2.874   2.775  19.863  0.00  0.00    +0.000 C 
ATOM     10  C   UNL     1       3.348   2.301  21.243  0.00  0.00    +0.000 C 
ATOM     11  C   UNL     1       2.024   1.647  19.243  0.00  0.00    +0.000 C 
ATOM     12  C   UNL     1       2.174   4.196  19.867  0.00  0.00    +0.000 C 
ATOM     13  C   UNL     1       0.639   4.126  19.826  0.00  0.00    +0.000 C 
ATOM     14  C   UNL     1       2.564   5.074  21.079  0.00  0.00    +0.000 C 
ATOM     15  N   UNL     1       2.831   4.827  18.710  0.00  0.00    +0.000 N 
ATOM     16  O   UNL     1       2.008   5.266  17.664  0.00  0.00    +0.000 OA
ENDBRANCH   3   7
BRANCH   1  18
ATOM     17  C   UNL     1       7.878   7.099  18.267  0.00  0.00    +0.000 C 
ATOM     18  O   UNL     1       7.458   6.998  16.918  0.00  0.00    +0.000 OA
ENDBRANCH   1  18
BRANCH   6  19
ATOM     19  O   UNL     1       7.734   5.442  14.409  0.00  0.00    +0.000 OA
ATOM     20  H   UNL     1       7.283   5.399  13.550  0.00  0.00    +0.000 HD
ENDBRANCH   6  19
TORSDOF 3
ENDMDL
MODEL 3
REMARK VINA RESULT:      -6.9      0.949      1.314
REMARK  Name = 
REMARK  8 active torsions:
REMARK  status: ('A' for Active; 'I' for Inactive)
REMARK    1  A    between atoms: C_1  and  O_2
REMARK    2  A    between atoms: O_2  and  C_3
REMARK    3  A    between atoms: C_5  and  C_6
REMARK    4  A    between atoms: C_8  and  C_9
REMARK    5  A    between atoms: C_8  and  C_10
REMARK    6  A    between atoms: C_11  and  C_12
REMARK    7  A    between atoms: C_11  and  C_13
REMARK    8  A    between atoms: C_18  and  O_19
REMARK                            x       y       z     vdW  Elec       q    Type
REMARK                         _______ _______ _______ _____ _____    ______ ____
ROOT
ATOM      1  C   UNL     1       7.022   5.775  16.229  0.00  0.00    +0.000 A 
ATOM      2  C   UNL     1       6.043   5.408  17.162  0.00  0.00    +0.000 A 
ATOM      3  C   UNL     1       5.090   4.426  16.864  0.00  0.00    +0.000 A 
ATOM      4  C   UNL     1       5.104   3.807  15.613  0.00  0.00    +0.000 A 
ATOM      5  C   UNL     1       6.052   4.180  14.664  0.00  0.00    +0.000 A 
ATOM      6  C   UNL     1       7.009   5.156  14.969  0.00  0.00    +0.000 A 
ENDROOT
BRANCH   3   7
ATOM      7  C   UNL     1       4.082   3.992  17.879  0.00  0.00    +0.000 C 
ATOM      8  N   UNL     1       3.084   3.216  17.505  0.00  0.00    +0.000 NA
ATOM      9  C   UNL     1       2.248   3.046  18.743  0.00  0.00    +0.000 C 
ATOM     10  C   UNL     1       1.834   1.571  18.829  0.00  0.00    +0.000 C 
ATOM     11  C   UNL     1       0.973   3.879  18.500  0.00  0.00    +0.000 C 
ATOM     12  C   UNL     1       3.137   3.545  19.954  0.00  0.00    +0.000 C 
ATOM     13  C   UNL     1       2.349   4.338  21.010  0.00  0.00    +0.000 C 
ATOM     14  C   UNL     1       3.877   2.405  20.691  0.00  0.00    +0.000 C 
ATOM     15  N   UNL     1       4.189   4.282  19.235  0.00  0.00    +0.000 N 
ATOM     16  O   UNL     1       4.349   5.640  19.543  0.00  0.00    +0.000 OA
ENDBRANCH   3   7
BRANCH   1  18
ATOM     17  C   UNL     1       7.385   7.768  17.501  0.00  0.00    +0.000 C 
ATOM     18  O   UNL     1       7.897   6.722  16.695  0.00  0.00    +0.000 OA
ENDBRANCH   1  18
BRANCH   6  19
ATOM     19  O   UNL     1       7.922   5.480  14.002  0.00  0.00    +0.000 OA
ATOM     20  H   UNL     1       8.338   6.321  14.253  0.00  0.00    +0.000 HD
ENDBRANCH   6  19
TORSDOF 3
ENDMDL
MODEL 4
REMARK VINA RESULT:      -6.8      0.928      2.299
REMARK  Name = 
REMARK  8 active torsions:
REMARK  status: ('A' for Active; 'I' for Inactive)
REMARK    1  A    between atoms: C_1  and  O_2
REMARK    2  A    between atoms: O_2  and  C_3
REMARK    3  A    between atoms: C_5  and  C_6
REMARK    4  A    between atoms: C_8  and  C_9
REMARK    5  A    between atoms: C_8  and  C_10
REMARK    6  A    between atoms: C_11  and  C_12
REMARK    7  A    between atoms: C_11  and  C_13
REMARK    8  A    between atoms: C_18  and  O_19
REMARK                            x       y       z     vdW  Elec       q    Type
REMARK                         _______ _______ _______ _____ _____    ______ ____
ROOT
ATOM      1  C   UNL     1       6.298   4.131  14.636  0.00  0.00    +0.000 A 
ATOM      2  C   UNL     1       5.345   3.747  15.590  0.00  0.00    +0.000 A 
ATOM      3  C   UNL     1       5.199   4.451  16.791  0.00  0.00    +0.000 A 
ATOM      4  C   UNL     1       6.021   5.548  17.054  0.00  0.00    +0.000 A 
ATOM      5  C   UNL     1       6.992   5.925  16.130  0.00  0.00    +0.000 A 
ATOM      6  C   UNL     1       7.129   5.224  14.925  0.00  0.00    +0.000 A 
ENDROOT
BRANCH   3   7
ATOM      7  C   UNL     1       4.144   4.078  17.783  0.00  0.00    +0.000 C 
ATOM      8  N   UNL     1       2.940   4.603  17.670  0.00  0.00    +0.000 NA
ATOM      9  C   UNL     1       2.180   4.072  18.853  0.00  0.00    +0.000 C 
ATOM     10  C   UNL     1       0.783   3.666  18.368  0.00  0.00    +0.000 C 
ATOM     11  C   UNL     1       2.017   5.269  19.813  0.00  0.00    +0.000 C 
ATOM     12  C   UNL     1       3.040   2.877  19.437  0.00  0.00    +0.000 C 
ATOM     13  C   UNL     1       3.059   2.825  20.974  0.00  0.00    +0.000 C 
ATOM     14  C   UNL     1       2.588   1.486  18.935  0.00  0.00    +0.000 C 
ATOM     15  N   UNL     1       4.332   3.122  18.775  0.00  0.00    +0.000 N 
ATOM     16  O   UNL     1       5.448   3.327  19.598  0.00  0.00    +0.000 OA
ENDBRANCH   3   7
BRANCH   1  18
ATOM     17  C   UNL     1       5.291   3.619  12.526  0.00  0.00    +0.000 C 
ATOM     18  O   UNL     1       6.283   3.359  13.503  0.00  0.00    +0.000 OA
ENDBRANCH   1  18
BRANCH   6  19
ATOM     19  O   UNL     1       8.095   5.642  14.049  0.00  0.00    +0.000 OA
ATOM     20  H   UNL     1       8.763   4.940  13.984  0.00  0.00    +0.000 HD
ENDBRANCH   6  19
TORSDOF 3
ENDMDL
MODEL 5
REMARK VINA RESULT:      -6.8      3.804      5.926
REMARK  Name = 
REMARK  8 active torsions:
REMARK  status: ('A' for Active; 'I' for Inactive)
REMARK    1  A    between atoms: C_1  and  O_2
REMARK    2  A    between atoms: O_2  and  C_3
REMARK    3  A    between atoms: C_5  and  C_6
REMARK    4  A    between atoms: C_8  and  C_9
REMARK    5  A    between atoms: C_8  and  C_10
REMARK    6  A    between atoms: C_11  and  C_12
REMARK    7  A    between atoms: C_11  and  C_13
REMARK    8  A    between atoms: C_18  and  O_19
REMARK                            x       y       z     vdW  Elec       q    Type
REMARK                         _______ _______ _______ _____ _____    ______ ____
ROOT
ATOM      1  C   UNL     1       1.329   8.740  20.249  0.00  0.00    +0.000 A 
ATOM      2  C   UNL     1       2.014   7.561  19.925  0.00  0.00    +0.000 A 
ATOM      3  C   UNL     1       2.518   7.346  18.636  0.00  0.00    +0.000 A 
ATOM      4  C   UNL     1       2.327   8.316  17.650  0.00  0.00    +0.000 A 
ATOM      5  C   UNL     1       1.624   9.480  17.947  0.00  0.00    +0.000 A 
ATOM      6  C   UNL     1       1.129   9.695  19.240  0.00  0.00    +0.000 A 
ENDROOT
BRANCH   3   7
ATOM      7  C   UNL     1       3.300   6.116  18.305  0.00  0.00    +0.000 C 
ATOM      8  N   UNL     1       4.548   6.237  17.896  0.00  0.00    +0.000 NA
ATOM      9  C   UNL     1       4.986   4.831  17.592  0.00  0.00    +0.000 C 
ATOM     10  C   UNL     1       6.407   4.655  18.144  0.00  0.00    +0.000 C 
ATOM     11  C   UNL     1       5.064   4.743  16.054  0.00  0.00    +0.000 C 
ATOM     12  C   UNL     1       3.909   3.874  18.250  0.00  0.00    +0.000 C 
ATOM     13  C   UNL     1       3.564   2.650  17.385  0.00  0.00    +0.000 C 
ATOM     14  C   UNL     1       4.315   3.352  19.648  0.00  0.00    +0.000 C 
ATOM     15  N   UNL     1       2.815   4.827  18.499  0.00  0.00    +0.000 N 
ATOM     16  O   UNL     1       1.578   4.558  17.897  0.00  0.00    +0.000 OA
ENDBRANCH   3   7
BRANCH   1  18
ATOM     17  C   UNL     1      -0.427   8.571  21.865  0.00  0.00    +0.000 C 
ATOM     18  O   UNL     1       0.937   8.803  21.561  0.00  0.00    +0.000 OA
ENDBRANCH   1  18
BRANCH   6  19
ATOM     19  O   UNL     1       0.451  10.859  19.479  0.00  0.00    +0.000 OA
ATOM     20  H   UNL     1       0.819  11.544  18.898  0.00  0.00    +0.000 HD
ENDBRANCH   6  19
TORSDOF 3
ENDMDL
MODEL 6
REMARK VINA RESULT:      -6.6      3.589      5.436
REMARK  Name = 
REMARK  8 active torsions:
REMARK  status: ('A' for Active; 'I' for Inactive)
REMARK    1  A    between atoms: C_1  and  O_2
REMARK    2  A    between atoms: O_2  and  C_3
REMARK    3  A    between atoms: C_5  and  C_6
REMARK    4  A    between atoms: C_8  and  C_9
REMARK    5  A    between atoms: C_8  and  C_10
REMARK    6  A    between atoms: C_11  and  C_12
REMARK    7  A    between atoms: C_11  and  C_13
REMARK    8  A    between atoms: C_18  and  O_19
REMARK                            x       y       z     vdW  Elec       q    Type
REMARK                         _______ _______ _______ _____ _____    ______ ____
ROOT
ATOM      1  C   UNL     1       1.349   8.969  20.418  0.00  0.00    +0.000 A 
ATOM      2  C   UNL     1       1.580   7.589  20.496  0.00  0.00    +0.000 A 
ATOM      3  C   UNL     1       2.027   6.866  19.383  0.00  0.00    +0.000 A 
ATOM      4  C   UNL     1       2.236   7.524  18.170  0.00  0.00    +0.000 A 
ATOM      5  C   UNL     1       1.983   8.890  18.068  0.00  0.00    +0.000 A 
ATOM      6  C   UNL     1       1.545   9.611  19.186  0.00  0.00    +0.000 A 
ENDROOT
BRANCH   3   7
ATOM      7  C   UNL     1       2.330   5.405  19.479  0.00  0.00    +0.000 C 
ATOM      8  N   UNL     1       1.389   4.578  19.892  0.00  0.00    +0.000 NA
ATOM      9  C   UNL     1       2.056   3.232  19.933  0.00  0.00    +0.000 C 
ATOM     10  C   UNL     1       1.079   2.207  19.345  0.00  0.00    +0.000 C 
ATOM     11  C   UNL     1       2.239   2.905  21.430  0.00  0.00    +0.000 C 
ATOM     12  C   UNL     1       3.411   3.379  19.125  0.00  0.00    +0.000 C 
ATOM     13  C   UNL     1       4.591   2.623  19.759  0.00  0.00    +0.000 C 
ATOM     14  C   UNL     1       3.306   2.919  17.652  0.00  0.00    +0.000 C 
ATOM     15  N   UNL     1       3.532   4.845  19.061  0.00  0.00    +0.000 N 
ATOM     16  O   UNL     1       4.683   5.420  19.617  0.00  0.00    +0.000 OA
ENDBRANCH   3   7
BRANCH   1  18
ATOM     17  C   UNL     1      -0.286   9.114  22.159  0.00  0.00    +0.000 C 
ATOM     18  O   UNL     1       0.951   9.526  21.607  0.00  0.00    +0.000 OA
ENDBRANCH   1  18
BRANCH   6  19
ATOM     19  O   UNL     1       1.318  10.952  19.033  0.00  0.00    +0.000 OA
ATOM     20  H   UNL     1       0.370  11.078  18.866  0.00  0.00    +0.000 HD
ENDBRANCH   6  19
TORSDOF 3
ENDMDL
MODEL 7
REMARK VINA RESULT:      -6.6      3.940      6.207
REMARK  Name = 
REMARK  8 active torsions:
REMARK  status: ('A' for Active; 'I' for Inactive)
REMARK    1  A    between atoms: C_1  and  O_2
REMARK    2  A    between atoms: O_2  and  C_3
REMARK    3  A    between atoms: C_5  and  C_6
REMARK    4  A    between atoms: C_8  and  C_9
REMARK    5  A    between atoms: C_8  and  C_10
REMARK    6  A    between atoms: C_11  and  C_12
REMARK    7  A    between atoms: C_11  and  C_13
REMARK    8  A    between atoms: C_18  and  O_19
REMARK                            x       y       z     vdW  Elec       q    Type
REMARK                         _______ _______ _______ _____ _____    ______ ____
ROOT
ATOM      1  C   UNL     1       1.155   8.575  20.260  0.00  0.00    +0.000 A 
ATOM      2  C   UNL     1       2.045   7.608  19.772  0.00  0.00    +0.000 A 
ATOM      3  C   UNL     1       2.569   7.694  18.477  0.00  0.00    +0.000 A 
ATOM      4  C   UNL     1       2.195   8.754  17.649  0.00  0.00    +0.000 A 
ATOM      5  C   UNL     1       1.291   9.708  18.108  0.00  0.00    +0.000 A 
ATOM      6  C   UNL     1       0.774   9.623  19.408  0.00  0.00    +0.000 A 
ENDROOT
BRANCH   3   7
ATOM      7  C   UNL     1       3.563   6.696  17.976  0.00  0.00    +0.000 C 
ATOM      8  N   UNL     1       4.686   7.123  17.432  0.00  0.00    +0.000 NA
ATOM      9  C   UNL     1       5.393   5.873  16.987  0.00  0.00    +0.000 C 
ATOM     10  C   UNL     1       6.875   6.016  17.356  0.00  0.00    +0.000 C 
ATOM     11  C   UNL     1       5.289   5.863  15.448  0.00  0.00    +0.000 C 
ATOM     12  C   UNL     1       4.657   4.665  17.700  0.00  0.00    +0.000 C 
ATOM     13  C   UNL     1       4.493   3.427  16.803  0.00  0.00    +0.000 C 
ATOM     14  C   UNL     1       5.349   4.201  19.003  0.00  0.00    +0.000 C 
ATOM     15  N   UNL     1       3.415   5.323  18.139  0.00  0.00    +0.000 N 
ATOM     16  O   UNL     1       2.206   4.793  17.669  0.00  0.00    +0.000 OA
ENDBRANCH   3   7
BRANCH   1  18
ATOM     17  C   UNL     1       1.258   9.232  22.559  0.00  0.00    +0.000 C 
ATOM     18  O   UNL     1       0.768   8.359  21.558  0.00  0.00    +0.000 OA
ENDBRANCH   1  18
BRANCH   6  19
ATOM     19  O   UNL     1      -0.106  10.590  19.811  0.00  0.00    +0.000 OA
ATOM     20  H   UNL     1       0.248  11.451  19.533  0.00  0.00    +0.000 HD
ENDBRANCH   6  19
TORSDOF 3
ENDMDL
MODEL 8
REMARK VINA RESULT:      -6.5      1.354      2.665
REMARK  Name = 
REMARK  8 active torsions:
REMARK  status: ('A' for Active; 'I' for Inactive)
REMARK    1  A    between atoms: C_1  and  O_2
REMARK    2  A    between atoms: O_2  and  C_3
REMARK    3  A    between atoms: C_5  and  C_6
REMARK    4  A    between atoms: C_8  and  C_9
REMARK    5  A    between atoms: C_8  and  C_10
REMARK    6  A    between atoms: C_11  and  C_12
REMARK    7  A    between atoms: C_11  and  C_13
REMARK    8  A    between atoms: C_18  and  O_19
REMARK                            x       y       z     vdW  Elec       q    Type
REMARK                         _______ _______ _______ _____ _____    ______ ____
ROOT
ATOM      1  C   UNL     1       6.339   4.075  14.461  0.00  0.00    +0.000 A 
ATOM      2  C   UNL     1       5.407   3.682  15.431  0.00  0.00    +0.000 A 
ATOM      3  C   UNL     1       5.293   4.368  16.647  0.00  0.00    +0.000 A 
ATOM      4  C   UNL     1       6.129   5.455  16.907  0.00  0.00    +0.000 A 
ATOM      5  C   UNL     1       7.080   5.841  15.967  0.00  0.00    +0.000 A 
ATOM      6  C   UNL     1       7.185   5.158  14.748  0.00  0.00    +0.000 A 
ENDROOT
BRANCH   3   7
ATOM      7  C   UNL     1       4.260   3.986  17.657  0.00  0.00    +0.000 C 
ATOM      8  N   UNL     1       3.223   3.265  17.276  0.00  0.00    +0.000 NA
ATOM      9  C   UNL     1       2.374   3.137  18.510  0.00  0.00    +0.000 C 
ATOM     10  C   UNL     1       1.882   1.686  18.591  0.00  0.00    +0.000 C 
ATOM     11  C   UNL     1       1.146   4.038  18.265  0.00  0.00    +0.000 C 
ATOM     12  C   UNL     1       3.284   3.585  19.727  0.00  0.00    +0.000 C 
ATOM     13  C   UNL     1       2.534   4.416  20.782  0.00  0.00    +0.000 C 
ATOM     14  C   UNL     1       3.958   2.405  20.464  0.00  0.00    +0.000 C 
ATOM     15  N   UNL     1       4.376   4.267  19.014  0.00  0.00    +0.000 N 
ATOM     16  O   UNL     1       4.607   5.614  19.326  0.00  0.00    +0.000 OA
ENDBRANCH   3   7
BRANCH   1  18
ATOM     17  C   UNL     1       5.269   3.590  12.377  0.00  0.00    +0.000 C 
ATOM     18  O   UNL     1       6.293   3.321  13.318  0.00  0.00    +0.000 OA
ENDBRANCH   1  18
BRANCH   6  19
ATOM     19  O   UNL     1       8.132   5.583  13.857  0.00  0.00    +0.000 OA
ATOM     20  H   UNL     1       8.843   6.014  14.359  0.00  0.00    +0.000 HD
ENDBRANCH   6  19
TORSDOF 3
ENDMDL
MODEL 9
REMARK VINA RESULT:      -6.4      1.479      3.065
REMARK  Name = 
REMARK  8 active torsions:
REMARK  status: ('A' for Active; 'I' for Inactive)
REMARK    1  A    between atoms: C_1  and  O_2
REMARK    2  A    between atoms: O_2  and  C_3
REMARK    3  A    between atoms: C_5  and  C_6
REMARK    4  A    between atoms: C_8  and  C_9
REMARK    5  A    between atoms: C_8  and  C_10
REMARK    6  A    between atoms: C_11  and  C_12
REMARK    7  A    between atoms: C_11  and  C_13
REMARK    8  A    between atoms: C_18  and  O_19
REMARK                            x       y       z     vdW  Elec       q    Type
REMARK                         _______ _______ _______ _____ _____    ______ ____
ROOT
ATOM      1  C   UNL     1       5.693   4.530  15.137  0.00  0.00    +0.000 A 
ATOM      2  C   UNL     1       4.740   4.122  16.081  0.00  0.00    +0.000 A 
ATOM      3  C   UNL     1       4.935   4.344  17.450  0.00  0.00    +0.000 A 
ATOM      4  C   UNL     1       6.103   4.972  17.888  0.00  0.00    +0.000 A 
ATOM      5  C   UNL     1       7.072   5.357  16.966  0.00  0.00    +0.000 A 
ATOM      6  C   UNL     1       6.869   5.142  15.597  0.00  0.00    +0.000 A 
ENDROOT
BRANCH   3   7
ATOM      7  C   UNL     1       3.894   3.963  18.452  0.00  0.00    +0.000 C 
ATOM      8  N   UNL     1       4.014   2.822  19.103  0.00  0.00    +0.000 NA
ATOM      9  C   UNL     1       2.777   2.737  19.953  0.00  0.00    +0.000 C 
ATOM     10  C   UNL     1       3.198   2.236  21.341  0.00  0.00    +0.000 C 
ATOM     11  C   UNL     1       1.901   1.646  19.304  0.00  0.00    +0.000 C 
ATOM     12  C   UNL     1       2.132   4.183  19.951  0.00  0.00    +0.000 C 
ATOM     13  C   UNL     1       0.597   4.172  19.870  0.00  0.00    +0.000 C 
ATOM     14  C   UNL     1       2.523   5.038  21.178  0.00  0.00    +0.000 C 
ATOM     15  N   UNL     1       2.842   4.796  18.815  0.00  0.00    +0.000 N 
ATOM     16  O   UNL     1       2.063   5.273  17.752  0.00  0.00    +0.000 OA
ENDBRANCH   3   7
BRANCH   1  18
ATOM     17  C   UNL     1       6.207   3.504  13.038  0.00  0.00    +0.000 C 
ATOM     18  O   UNL     1       5.328   4.270  13.841  0.00  0.00    +0.000 OA
ENDBRANCH   1  18
BRANCH   6  19
ATOM     19  O   UNL     1       7.851   5.546  14.734  0.00  0.00    +0.000 OA
ATOM     20  H   UNL     1       7.506   5.467  13.830  0.00  0.00    +0.000 HD
ENDBRANCH   6  19
TORSDOF 3
ENDMDL
