MODEL 1
REMARK VINA RESULT:      -8.1      0.000      0.000
REMARK  Name = 
REMARK  10 active torsions:
REMARK  status: ('A' for Active; 'I' for Inactive)
REMARK    1  A    between atoms: C_1  and  O_2
REMARK    2  A    between atoms: O_2  and  C_3
REMARK    3  A    between atoms: C_5  and  C_6
REMARK    4  A    between atoms: C_7  and  C_8
REMARK    5  A    between atoms: N_10  and  C_11
REMARK    6  A    between atoms: C_15  and  C_16
REMARK    7  A    between atoms: C_24  and  O_25
REMARK    8  A    between atoms: O_25  and  C_26
REMARK    9  A    between atoms: C_27  and  O_28
REMARK   10  A    between atoms: O_28  and  C_29
REMARK                            x       y       z     vdW  Elec       q    Type
REMARK                         _______ _______ _______ _____ _____    ______ ____
ROOT
ATOM      1  C   UNL     1       7.619   7.703  17.961  0.00  0.00    +0.000 C 
ATOM      2  O   UNL     1       8.152   6.792  18.575  0.00  0.00    +0.000 OA
ATOM      3  N   UNL     1       6.381   7.678  17.348  0.00  0.00    +0.000 N 
ATOM      4  H   UNL     1       6.128   8.455  16.755  0.00  0.00    +0.000 HD
ENDROOT
BRANCH   3   5
ATOM      5  C   UNL     1       5.481   6.587  17.378  0.00  0.00    +0.000 A 
ATOM      6  C   UNL     1       5.541   5.505  16.495  0.00  0.00    +0.000 A 
ATOM      7  C   UNL     1       4.641   4.434  16.590  0.00  0.00    +0.000 A 
ATOM      8  C   UNL     1       3.667   4.409  17.588  0.00  0.00    +0.000 A 
ATOM      9  C   UNL     1       2.857   3.223  17.907  0.00  0.00    +0.000 A 
ATOM     10  C   UNL     1       2.808   2.002  17.037  0.00  0.00    +0.000 C 
ATOM     11  C   UNL     1       2.200   3.235  19.076  0.00  0.00    +0.000 A 
ATOM     12  C   UNL     1       1.835   4.502  19.723  0.00  0.00    +0.000 A 
ATOM     13  O   UNL     1       0.839   4.566  20.435  0.00  0.00    +0.000 OA
ATOM     14  O   UNL     1       2.624   5.601  19.449  0.00  0.00    +0.000 OA
ATOM     15  C   UNL     1       3.599   5.517  18.439  0.00  0.00    +0.000 A 
ATOM     16  C   UNL     1       4.491   6.591  18.359  0.00  0.00    +0.000 A 
ENDBRANCH   3   5
BRANCH   1  18
ATOM     17  C   UNL     1       8.926   9.524  18.883  0.00  0.00    +0.000 C 
ATOM     18  C   UNL     1       8.328   9.002  17.799  0.00  0.00    +0.000 C 
BRANCH  17  21
ATOM     19  C   UNL     1      10.522  12.840  17.944  0.00  0.00    +0.000 A 
ATOM     20  C   UNL     1      10.073  11.510  17.857  0.00  0.00    +0.000 A 
ATOM     21  C   UNL     1       9.575  10.839  18.971  0.00  0.00    +0.000 A 
ATOM     22  C   UNL     1       9.579  11.507  20.196  0.00  0.00    +0.000 A 
ATOM     23  C   UNL     1      10.097  12.804  20.329  0.00  0.00    +0.000 A 
ATOM     24  C   UNL     1      10.584  13.491  19.197  0.00  0.00    +0.000 A 
BRANCH  19  26
ATOM     25  C   UNL     1      12.309  13.367  16.483  0.00  0.00    +0.000 C 
ATOM     26  O   UNL     1      10.926  13.501  16.810  0.00  0.00    +0.000 OA
ENDBRANCH  19  26
BRANCH  23  27
ATOM     27  O   UNL     1      10.007  13.241  21.631  0.00  0.00    +0.000 OA
ATOM     28  C   UNL     1       8.804  13.833  22.094  0.00  0.00    +0.000 C 
ENDBRANCH  23  27
BRANCH  24  29
ATOM     29  O   UNL     1      11.077  14.746  19.426  0.00  0.00    +0.000 OA
ATOM     30  C   UNL     1      10.264  15.895  19.286  0.00  0.00    +0.000 C 
ENDBRANCH  24  29
ENDBRANCH  17  21
ENDBRANCH   1  18
TORSDOF 6
ENDMDL
MODEL 2
REMARK VINA RESULT:      -7.9      6.467      9.871
REMARK  Name = 
REMARK  10 active torsions:
REMARK  status: ('A' for Active; 'I' for Inactive)
REMARK    1  A    between atoms: C_1  and  O_2
REMARK    2  A    between atoms: O_2  and  C_3
REMARK    3  A    between atoms: C_5  and  C_6
REMARK    4  A    between atoms: C_7  and  C_8
REMARK    5  A    between atoms: N_10  and  C_11
REMARK    6  A    between atoms: C_15  and  C_16
REMARK    7  A    between atoms: C_24  and  O_25
REMARK    8  A    between atoms: O_25  and  C_26
REMARK    9  A    between atoms: C_27  and  O_28
REMARK   10  A    between atoms: O_28  and  C_29
REMARK                            x       y       z     vdW  Elec       q    Type
REMARK                         _______ _______ _______ _____ _____    ______ ____
ROOT
ATOM      1  C   UNL     1       0.920   9.774  18.347  0.00  0.00    +0.000 C 
ATOM      2  O   UNL     1       1.002  10.448  19.362  0.00  0.00    +0.000 OA
ATOM      3  N   UNL     1      -0.193   9.616  17.543  0.00  0.00    +0.000 N 
ATOM      4  H   UNL     1      -0.159   8.917  16.816  0.00  0.00    +0.000 HD
ENDROOT
BRANCH   3   5
ATOM      5  C   UNL     1      -1.434  10.268  17.735  0.00  0.00    +0.000 A 
ATOM      6  C   UNL     1      -2.560  10.045  16.938  0.00  0.00    +0.000 A 
ATOM      7  C   UNL     1      -3.776  10.697  17.192  0.00  0.00    +0.000 A 
ATOM      8  C   UNL     1      -3.901  11.576  18.267  0.00  0.00    +0.000 A 
ATOM      9  C   UNL     1      -5.188  12.101  18.745  0.00  0.00    +0.000 A 
ATOM     10  C   UNL     1      -6.472  11.955  17.980  0.00  0.00    +0.000 C 
ATOM     11  C   UNL     1      -5.199  12.668  19.960  0.00  0.00    +0.000 A 
ATOM     12  C   UNL     1      -3.974  13.242  20.534  0.00  0.00    +0.000 A 
ATOM     13  O   UNL     1      -4.044  14.181  21.320  0.00  0.00    +0.000 OA
ATOM     14  O   UNL     1      -2.771  12.717  20.110  0.00  0.00    +0.000 OA
ATOM     15  C   UNL     1      -2.753  11.815  19.030  0.00  0.00    +0.000 A 
ATOM     16  C   UNL     1      -1.536  11.170  18.792  0.00  0.00    +0.000 A 
ENDBRANCH   3   5
BRANCH   1  18
ATOM     17  C   UNL     1       2.131   7.684  18.154  0.00  0.00    +0.000 C 
ATOM     18  C   UNL     1       2.099   8.998  17.876  0.00  0.00    +0.000 C 
BRANCH  17  21
ATOM     19  C   UNL     1       4.140   4.522  17.531  0.00  0.00    +0.000 A 
ATOM     20  C   UNL     1       3.114   5.380  17.967  0.00  0.00    +0.000 A 
ATOM     21  C   UNL     1       3.244   6.764  17.886  0.00  0.00    +0.000 A 
ATOM     22  C   UNL     1       4.447   7.284  17.406  0.00  0.00    +0.000 A 
ATOM     23  C   UNL     1       5.518   6.454  17.041  0.00  0.00    +0.000 A 
ATOM     24  C   UNL     1       5.379   5.051  17.104  0.00  0.00    +0.000 A 
BRANCH  19  26
ATOM     25  C   UNL     1       2.583   2.739  17.508  0.00  0.00    +0.000 C 
ATOM     26  O   UNL     1       3.945   3.163  17.543  0.00  0.00    +0.000 OA
ENDBRANCH  19  26
BRANCH  23  27
ATOM     27  O   UNL     1       6.596   7.196  16.617  0.00  0.00    +0.000 OA
ATOM     28  C   UNL     1       7.627   7.527  17.534  0.00  0.00    +0.000 C 
ENDBRANCH  23  27
BRANCH  24  29
ATOM     29  O   UNL     1       6.479   4.326  16.738  0.00  0.00    +0.000 OA
ATOM     30  C   UNL     1       6.727   3.994  15.385  0.00  0.00    +0.000 C 
ENDBRANCH  24  29
ENDBRANCH  17  21
ENDBRANCH   1  18
TORSDOF 6
ENDMDL
MODEL 3
REMARK VINA RESULT:      -7.8      1.601      2.911
REMARK  Name = 
REMARK  10 active torsions:
REMARK  status: ('A' for Active; 'I' for Inactive)
REMARK    1  A    between atoms: C_1  and  O_2
REMARK    2  A    between atoms: O_2  and  C_3
REMARK    3  A    between atoms: C_5  and  C_6
REMARK    4  A    between atoms: C_7  and  C_8
REMARK    5  A    between atoms: N_10  and  C_11
REMARK    6  A    between atoms: C_15  and  C_16
REMARK    7  A    between atoms: C_24  and  O_25
REMARK    8  A    between atoms: O_25  and  C_26
REMARK    9  A    between atoms: C_27  and  O_28
REMARK   10  A    between atoms: O_28  and  C_29
REMARK                            x       y       z     vdW  Elec       q    Type
REMARK                         _______ _______ _______ _____ _____    ______ ____
ROOT
ATOM      1  C   UNL     1       7.273   7.593  17.391  0.00  0.00    +0.000 C 
ATOM      2  O   UNL     1       7.890   6.674  16.873  0.00  0.00    +0.000 OA
ATOM      3  N   UNL     1       6.009   7.534  17.946  0.00  0.00    +0.000 N 
ATOM      4  H   UNL     1       5.565   8.401  18.210  0.00  0.00    +0.000 HD
ENDROOT
BRANCH   3   5
ATOM      5  C   UNL     1       5.225   6.362  18.062  0.00  0.00    +0.000 A 
ATOM      6  C   UNL     1       4.101   6.098  17.275  0.00  0.00    +0.000 A 
ATOM      7  C   UNL     1       3.377   4.904  17.410  0.00  0.00    +0.000 A 
ATOM      8  C   UNL     1       3.775   3.932  18.326  0.00  0.00    +0.000 A 
ATOM      9  C   UNL     1       3.227   2.567  18.356  0.00  0.00    +0.000 A 
ATOM     10  C   UNL     1       2.012   2.151  17.579  0.00  0.00    +0.000 C 
ATOM     11  C   UNL     1       3.911   1.654  19.060  0.00  0.00    +0.000 A 
ATOM     12  C   UNL     1       4.789   2.059  20.167  0.00  0.00    +0.000 A 
ATOM     13  O   UNL     1       4.978   1.301  21.111  0.00  0.00    +0.000 OA
ATOM     14  O   UNL     1       5.330   3.327  20.112  0.00  0.00    +0.000 OA
ATOM     15  C   UNL     1       4.880   4.229  19.131  0.00  0.00    +0.000 A 
ATOM     16  C   UNL     1       5.614   5.413  19.005  0.00  0.00    +0.000 A 
ENDBRANCH   3   5
BRANCH   1  18
ATOM     17  C   UNL     1       8.599   9.268  18.535  0.00  0.00    +0.000 C 
ATOM     18  C   UNL     1       7.877   8.952  17.447  0.00  0.00    +0.000 C 
BRANCH  17  21
ATOM     19  C   UNL     1       9.993  12.252  20.426  0.00  0.00    +0.000 A 
ATOM     20  C   UNL     1       9.272  11.077  20.142  0.00  0.00    +0.000 A 
ATOM     21  C   UNL     1       9.179  10.581  18.844  0.00  0.00    +0.000 A 
ATOM     22  C   UNL     1       9.781  11.310  17.817  0.00  0.00    +0.000 A 
ATOM     23  C   UNL     1      10.436  12.526  18.060  0.00  0.00    +0.000 A 
ATOM     24  C   UNL     1      10.547  13.020  19.377  0.00  0.00    +0.000 A 
BRANCH  19  26
ATOM     25  C   UNL     1       8.935  12.709  22.494  0.00  0.00    +0.000 C 
ATOM     26  O   UNL     1      10.138  12.666  21.727  0.00  0.00    +0.000 OA
ENDBRANCH  19  26
BRANCH  23  27
ATOM     27  O   UNL     1      10.931  13.063  16.893  0.00  0.00    +0.000 OA
ATOM     28  C   UNL     1      12.331  13.088  16.668  0.00  0.00    +0.000 C 
ENDBRANCH  23  27
BRANCH  24  29
ATOM     29  O   UNL     1      11.194  14.216  19.514  0.00  0.00    +0.000 OA
ATOM     30  C   UNL     1      10.517  15.445  19.332  0.00  0.00    +0.000 C 
ENDBRANCH  24  29
ENDBRANCH  17  21
ENDBRANCH   1  18
TORSDOF 6
ENDMDL
MODEL 4
REMARK VINA RESULT:      -7.7      0.489      2.377
REMARK  Name = 
REMARK  10 active torsions:
REMARK  status: ('A' for Active; 'I' for Inactive)
REMARK    1  A    between atoms: C_1  and  O_2
REMARK    2  A    between atoms: O_2  and  C_3
REMARK    3  A    between atoms: C_5  and  C_6
REMARK    4  A    between atoms: C_7  and  C_8
REMARK    5  A    between atoms: N_10  and  C_11
REMARK    6  A    between atoms: C_15  and  C_16
REMARK    7  A    between atoms: C_24  and  O_25
REMARK    8  A    between atoms: O_25  and  C_26
REMARK    9  A    between atoms: C_27  and  O_28
REMARK   10  A    between atoms: O_28  and  C_29
REMARK                            x       y       z     vdW  Elec       q    Type
REMARK                         _______ _______ _______ _____ _____    ______ ____
ROOT
ATOM      1  C   UNL     1       7.619   7.726  17.998  0.00  0.00    +0.000 C 
ATOM      2  O   UNL     1       8.200   6.772  18.492  0.00  0.00    +0.000 OA
ATOM      3  N   UNL     1       6.342   7.736  17.468  0.00  0.00    +0.000 N 
ATOM      4  H   UNL     1       6.044   8.559  16.966  0.00  0.00    +0.000 HD
ENDROOT
BRANCH   3   5
ATOM      5  C   UNL     1       5.456   6.634  17.461  0.00  0.00    +0.000 A 
ATOM      6  C   UNL     1       5.544   5.572  16.557  0.00  0.00    +0.000 A 
ATOM      7  C   UNL     1       4.657   4.487  16.615  0.00  0.00    +0.000 A 
ATOM      8  C   UNL     1       3.667   4.429  17.595  0.00  0.00    +0.000 A 
ATOM      9  C   UNL     1       2.867   3.227  17.876  0.00  0.00    +0.000 A 
ATOM     10  C   UNL     1       2.848   2.024  16.980  0.00  0.00    +0.000 C 
ATOM     11  C   UNL     1       2.191   3.206  19.034  0.00  0.00    +0.000 A 
ATOM     12  C   UNL     1       1.800   4.455  19.700  0.00  0.00    +0.000 A 
ATOM     13  O   UNL     1       0.791   4.491  20.397  0.00  0.00    +0.000 OA
ATOM     14  O   UNL     1       2.578   5.569  19.463  0.00  0.00    +0.000 OA
ATOM     15  C   UNL     1       3.571   5.519  18.468  0.00  0.00    +0.000 A 
ATOM     16  C   UNL     1       4.451   6.604  18.426  0.00  0.00    +0.000 A 
ENDBRANCH   3   5
BRANCH   1  18
ATOM     17  C   UNL     1       8.932   9.497  19.004  0.00  0.00    +0.000 C 
ATOM     18  C   UNL     1       8.304   9.044  17.906  0.00  0.00    +0.000 C 
BRANCH  17  21
ATOM     19  C   UNL     1      10.139  12.772  20.502  0.00  0.00    +0.000 A 
ATOM     20  C   UNL     1       9.381  11.605  20.295  0.00  0.00    +0.000 A 
ATOM     21  C   UNL     1       9.565  10.813  19.164  0.00  0.00    +0.000 A 
ATOM     22  C   UNL     1      10.491  11.236  18.209  0.00  0.00    +0.000 A 
ATOM     23  C   UNL     1      11.201  12.437  18.350  0.00  0.00    +0.000 A 
ATOM     24  C   UNL     1      11.029  13.230  19.505  0.00  0.00    +0.000 A 
BRANCH  19  26
ATOM     25  C   UNL     1       8.944  13.041  22.528  0.00  0.00    +0.000 C 
ATOM     26  O   UNL     1       9.995  13.482  21.668  0.00  0.00    +0.000 OA
ENDBRANCH  19  26
BRANCH  23  27
ATOM     27  O   UNL     1      12.036  12.646  17.276  0.00  0.00    +0.000 OA
ATOM     28  C   UNL     1      11.618  13.486  16.212  0.00  0.00    +0.000 C 
ENDBRANCH  23  27
BRANCH  24  29
ATOM     29  O   UNL     1      11.756  14.387  19.548  0.00  0.00    +0.000 OA
ATOM     30  C   UNL     1      11.188  15.629  19.177  0.00  0.00    +0.000 C 
ENDBRANCH  24  29
ENDBRANCH  17  21
ENDBRANCH   1  18
TORSDOF 6
ENDMDL
MODEL 5
REMARK VINA RESULT:      -7.7      7.891     10.367
REMARK  Name = 
REMARK  10 active torsions:
REMARK  status: ('A' for Active; 'I' for Inactive)
REMARK    1  A    between atoms: C_1  and  O_2
REMARK    2  A    between atoms: O_2  and  C_3
REMARK    3  A    between atoms: C_5  and  C_6
REMARK    4  A    between atoms: C_7  and  C_8
REMARK    5  A    between atoms: N_10  and  C_11
REMARK    6  A    between atoms: C_15  and  C_16
REMARK    7  A    between atoms: C_24  and  O_25
REMARK    8  A    between atoms: O_25  and  C_26
REMARK    9  A    between atoms: C_27  and  O_28
REMARK   10  A    between atoms: O_28  and  C_29
REMARK                            x       y       z     vdW  Elec       q    Type
REMARK                         _______ _______ _______ _____ _____    ______ ____
ROOT
ATOM      1  C   UNL     1       0.755   9.582  22.035  0.00  0.00    +0.000 C 
ATOM      2  O   UNL     1       1.803   9.394  22.634  0.00  0.00    +0.000 OA
ATOM      3  N   UNL     1       0.466   9.216  20.734  0.00  0.00    +0.000 N 
ATOM      4  H   UNL     1      -0.388   9.561  20.322  0.00  0.00    +0.000 HD
ENDROOT
BRANCH   3   5
ATOM      5  C   UNL     1       1.334   8.496  19.879  0.00  0.00    +0.000 A 
ATOM      6  C   UNL     1       1.772   8.969  18.639  0.00  0.00    +0.000 A 
ATOM      7  C   UNL     1       2.658   8.226  17.846  0.00  0.00    +0.000 A 
ATOM      8  C   UNL     1       3.147   6.997  18.285  0.00  0.00    +0.000 A 
ATOM      9  C   UNL     1       4.256   6.282  17.636  0.00  0.00    +0.000 A 
ATOM     10  C   UNL     1       4.810   6.665  16.295  0.00  0.00    +0.000 C 
ATOM     11  C   UNL     1       4.829   5.290  18.333  0.00  0.00    +0.000 A 
ATOM     12  C   UNL     1       4.086   4.583  19.386  0.00  0.00    +0.000 A 
ATOM     13  O   UNL     1       4.345   3.412  19.641  0.00  0.00    +0.000 OA
ATOM     14  O   UNL     1       3.073   5.274  20.017  0.00  0.00    +0.000 OA
ATOM     15  C   UNL     1       2.669   6.523  19.511  0.00  0.00    +0.000 A 
ATOM     16  C   UNL     1       1.789   7.253  20.315  0.00  0.00    +0.000 A 
ENDBRANCH   3   5
BRANCH   1  18
ATOM     17  C   UNL     1      -0.612  11.560  22.339  0.00  0.00    +0.000 C 
ATOM     18  C   UNL     1      -0.367  10.292  22.708  0.00  0.00    +0.000 C 
BRANCH  17  21
ATOM     19  C   UNL     1      -3.763  12.930  23.958  0.00  0.00    +0.000 A 
ATOM     20  C   UNL     1      -2.905  12.104  23.209  0.00  0.00    +0.000 A 
ATOM     21  C   UNL     1      -1.587  12.472  22.951  0.00  0.00    +0.000 A 
ATOM     22  C   UNL     1      -1.149  13.713  23.416  0.00  0.00    +0.000 A 
ATOM     23  C   UNL     1      -2.006  14.593  24.094  0.00  0.00    +0.000 A 
ATOM     24  C   UNL     1      -3.335  14.212  24.372  0.00  0.00    +0.000 A 
BRANCH  19  26
ATOM     25  C   UNL     1      -6.041  12.841  23.322  0.00  0.00    +0.000 C 
ATOM     26  O   UNL     1      -5.029  12.499  24.268  0.00  0.00    +0.000 OA
ENDBRANCH  19  26
BRANCH  23  27
ATOM     27  O   UNL     1      -1.352  15.755  24.434  0.00  0.00    +0.000 OA
ATOM     28  C   UNL     1      -0.883  15.937  25.761  0.00  0.00    +0.000 C 
ENDBRANCH  23  27
BRANCH  24  29
ATOM     29  O   UNL     1      -4.097  15.138  25.029  0.00  0.00    +0.000 OA
ATOM     30  C   UNL     1      -4.771  16.168  24.330  0.00  0.00    +0.000 C 
ENDBRANCH  24  29
ENDBRANCH  17  21
ENDBRANCH   1  18
TORSDOF 6
ENDMDL
MODEL 6
REMARK VINA RESULT:      -7.7      6.504      9.679
REMARK  Name = 
REMARK  10 active torsions:
REMARK  status: ('A' for Active; 'I' for Inactive)
REMARK    1  A    between atoms: C_1  and  O_2
REMARK    2  A    between atoms: O_2  and  C_3
REMARK    3  A    between atoms: C_5  and  C_6
REMARK    4  A    between atoms: C_7  and  C_8
REMARK    5  A    between atoms: N_10  and  C_11
REMARK    6  A    between atoms: C_15  and  C_16
REMARK    7  A    between atoms: C_24  and  O_25
REMARK    8  A    between atoms: O_25  and  C_26
REMARK    9  A    between atoms: C_27  and  O_28
REMARK   10  A    between atoms: O_28  and  C_29
REMARK                            x       y       z     vdW  Elec       q    Type
REMARK                         _______ _______ _______ _____ _____    ______ ____
ROOT
ATOM      1  C   UNL     1       0.772   9.612  18.781  0.00  0.00    +0.000 C 
ATOM      2  O   UNL     1       0.618   9.861  19.966  0.00  0.00    +0.000 OA
ATOM      3  N   UNL     1      -0.149   9.800  17.767  0.00  0.00    +0.000 N 
ATOM      4  H   UNL     1       0.061   9.417  16.857  0.00  0.00    +0.000 HD
ENDROOT
BRANCH   3   5
ATOM      5  C   UNL     1      -1.430  10.377  17.929  0.00  0.00    +0.000 A 
ATOM      6  C   UNL     1      -2.551  10.006  17.181  0.00  0.00    +0.000 A 
ATOM      7  C   UNL     1      -3.806  10.590  17.405  0.00  0.00    +0.000 A 
ATOM      8  C   UNL     1      -3.976  11.550  18.401  0.00  0.00    +0.000 A 
ATOM      9  C   UNL     1      -5.290  12.025  18.861  0.00  0.00    +0.000 A 
ATOM     10  C   UNL     1      -6.572  11.721  18.142  0.00  0.00    +0.000 C 
ATOM     11  C   UNL     1      -5.321  12.695  20.022  0.00  0.00    +0.000 A 
ATOM     12  C   UNL     1      -4.132  13.402  20.514  0.00  0.00    +0.000 A 
ATOM     13  O   UNL     1      -4.256  14.400  21.217  0.00  0.00    +0.000 OA
ATOM     14  O   UNL     1      -2.901  12.928  20.111  0.00  0.00    +0.000 OA
ATOM     15  C   UNL     1      -2.836  11.936  19.114  0.00  0.00    +0.000 A 
ATOM     16  C   UNL     1      -1.579  11.360  18.906  0.00  0.00    +0.000 A 
ENDBRANCH   3   5
BRANCH   1  18
ATOM     17  C   UNL     1       2.071   7.710  18.025  0.00  0.00    +0.000 C 
ATOM     18  C   UNL     1       2.054   9.024  18.307  0.00  0.00    +0.000 C 
BRANCH  17  21
ATOM     19  C   UNL     1       5.594   6.717  17.014  0.00  0.00    +0.000 A 
ATOM     20  C   UNL     1       4.427   7.484  17.184  0.00  0.00    +0.000 A 
ATOM     21  C   UNL     1       3.248   6.913  17.659  0.00  0.00    +0.000 A 
ATOM     22  C   UNL     1       3.240   5.542  17.917  0.00  0.00    +0.000 A 
ATOM     23  C   UNL     1       4.365   4.738  17.679  0.00  0.00    +0.000 A 
ATOM     24  C   UNL     1       5.565   5.319  17.216  0.00  0.00    +0.000 A 
BRANCH  19  26
ATOM     25  C   UNL     1       7.624   7.731  17.691  0.00  0.00    +0.000 C 
ATOM     26  O   UNL     1       6.762   7.328  16.627  0.00  0.00    +0.000 OA
ENDBRANCH  19  26
BRANCH  23  27
ATOM     27  O   UNL     1       4.109   3.422  17.992  0.00  0.00    +0.000 OA
ATOM     28  C   UNL     1       4.077   3.015  19.351  0.00  0.00    +0.000 C 
ENDBRANCH  23  27
BRANCH  24  29
ATOM     29  O   UNL     1       6.604   4.455  17.004  0.00  0.00    +0.000 OA
ATOM     30  C   UNL     1       6.935   4.006  15.705  0.00  0.00    +0.000 C 
ENDBRANCH  24  29
ENDBRANCH  17  21
ENDBRANCH   1  18
TORSDOF 6
ENDMDL
MODEL 7
REMARK VINA RESULT:      -7.7      6.500     10.319
REMARK  Name = 
REMARK  10 active torsions:
REMARK  status: ('A' for Active; 'I' for Inactive)
REMARK    1  A    between atoms: C_1  and  O_2
REMARK    2  A    between atoms: O_2  and  C_3
REMARK    3  A    between atoms: C_5  and  C_6
REMARK    4  A    between atoms: C_7  and  C_8
REMARK    5  A    between atoms: N_10  and  C_11
REMARK    6  A    between atoms: C_15  and  C_16
REMARK    7  A    between atoms: C_24  and  O_25
REMARK    8  A    between atoms: O_25  and  C_26
REMARK    9  A    between atoms: C_27  and  O_28
REMARK   10  A    between atoms: O_28  and  C_29
REMARK                            x       y       z     vdW  Elec       q    Type
REMARK                         _______ _______ _______ _____ _____    ______ ____
ROOT
ATOM      1  C   UNL     1       0.957   9.396  19.849  0.00  0.00    +0.000 C 
ATOM      2  O   UNL     1       0.300   9.830  18.915  0.00  0.00    +0.000 OA
ATOM      3  N   UNL     1       1.003   9.900  21.135  0.00  0.00    +0.000 N 
ATOM      4  H   UNL     1       1.698   9.528  21.766  0.00  0.00    +0.000 HD
ENDROOT
BRANCH   3   5
ATOM      5  C   UNL     1       0.237  10.989  21.610  0.00  0.00    +0.000 A 
ATOM      6  C   UNL     1       0.529  12.327  21.328  0.00  0.00    +0.000 A 
ATOM      7  C   UNL     1      -0.283  13.368  21.800  0.00  0.00    +0.000 A 
ATOM      8  C   UNL     1      -1.426  13.094  22.550  0.00  0.00    +0.000 A 
ATOM      9  C   UNL     1      -2.453  14.098  22.867  0.00  0.00    +0.000 A 
ATOM     10  C   UNL     1      -2.264  15.569  22.639  0.00  0.00    +0.000 C 
ATOM     11  C   UNL     1      -3.633  13.640  23.310  0.00  0.00    +0.000 A 
ATOM     12  C   UNL     1      -3.732  12.332  23.972  0.00  0.00    +0.000 A 
ATOM     13  O   UNL     1      -4.599  12.134  24.816  0.00  0.00    +0.000 OA
ATOM     14  O   UNL     1      -2.788  11.383  23.640  0.00  0.00    +0.000 OA
ATOM     15  C   UNL     1      -1.682  11.753  22.853  0.00  0.00    +0.000 A 
ATOM     16  C   UNL     1      -0.884  10.704  22.388  0.00  0.00    +0.000 A 
ENDBRANCH   3   5
BRANCH   1  18
ATOM     17  C   UNL     1       2.402   8.056  18.439  0.00  0.00    +0.000 C 
ATOM     18  C   UNL     1       1.840   8.215  19.648  0.00  0.00    +0.000 C 
BRANCH  17  21
ATOM     19  C   UNL     1       3.435   4.560  17.371  0.00  0.00    +0.000 A 
ATOM     20  C   UNL     1       2.709   5.607  17.968  0.00  0.00    +0.000 A 
ATOM     21  C   UNL     1       3.205   6.908  17.996  0.00  0.00    +0.000 A 
ATOM     22  C   UNL     1       4.472   7.140  17.459  0.00  0.00    +0.000 A 
ATOM     23  C   UNL     1       5.253   6.101  16.932  0.00  0.00    +0.000 A 
ATOM     24  C   UNL     1       4.743   4.786  16.885  0.00  0.00    +0.000 A 
BRANCH  19  26
ATOM     25  C   UNL     1       2.165   2.871  18.438  0.00  0.00    +0.000 C 
ATOM     26  O   UNL     1       2.880   3.308  17.282  0.00  0.00    +0.000 OA
ENDBRANCH  19  26
BRANCH  23  27
ATOM     27  O   UNL     1       6.465   6.572  16.481  0.00  0.00    +0.000 OA
ATOM     28  C   UNL     1       7.386   7.138  17.400  0.00  0.00    +0.000 C 
ENDBRANCH  23  27
BRANCH  24  29
ATOM     29  O   UNL     1       5.579   3.839  16.363  0.00  0.00    +0.000 OA
ATOM     30  C   UNL     1       5.926   3.837  14.991  0.00  0.00    +0.000 C 
ENDBRANCH  24  29
ENDBRANCH  17  21
ENDBRANCH   1  18
TORSDOF 6
ENDMDL
MODEL 8
REMARK VINA RESULT:      -7.6      6.354      9.972
REMARK  Name = 
REMARK  10 active torsions:
REMARK  status: ('A' for Active; 'I' for Inactive)
REMARK    1  A    between atoms: C_1  and  O_2
REMARK    2  A    between atoms: O_2  and  C_3
REMARK    3  A    between atoms: C_5  and  C_6
REMARK    4  A    between atoms: C_7  and  C_8
REMARK    5  A    between atoms: N_10  and  C_11
REMARK    6  A    between atoms: C_15  and  C_16
REMARK    7  A    between atoms: C_24  and  O_25
REMARK    8  A    between atoms: O_25  and  C_26
REMARK    9  A    between atoms: C_27  and  O_28
REMARK   10  A    between atoms: O_28  and  C_29
REMARK                            x       y       z     vdW  Elec       q    Type
REMARK                         _______ _______ _______ _____ _____    ______ ____
ROOT
ATOM      1  C   UNL     1       1.041   8.523  20.503  0.00  0.00    +0.000 C 
ATOM      2  O   UNL     1       0.266   8.059  21.325  0.00  0.00    +0.000 OA
ATOM      3  N   UNL     1       1.005   9.789  19.951  0.00  0.00    +0.000 N 
ATOM      4  H   UNL     1       1.623   9.989  19.178  0.00  0.00    +0.000 HD
ENDROOT
BRANCH   3   5
ATOM      5  C   UNL     1       0.078  10.800  20.295  0.00  0.00    +0.000 A 
ATOM      6  C   UNL     1      -1.068  11.091  19.549  0.00  0.00    +0.000 A 
ATOM      7  C   UNL     1      -1.971  12.085  19.954  0.00  0.00    +0.000 A 
ATOM      8  C   UNL     1      -1.760  12.801  21.131  0.00  0.00    +0.000 A 
ATOM      9  C   UNL     1      -2.771  13.673  21.748  0.00  0.00    +0.000 A 
ATOM     10  C   UNL     1      -4.036  14.086  21.053  0.00  0.00    +0.000 C 
ATOM     11  C   UNL     1      -2.561  14.041  23.020  0.00  0.00    +0.000 A 
ATOM     12  C   UNL     1      -1.203  14.072  23.580  0.00  0.00    +0.000 A 
ATOM     13  O   UNL     1      -0.925  14.862  24.475  0.00  0.00    +0.000 OA
ATOM     14  O   UNL     1      -0.270  13.222  23.023  0.00  0.00    +0.000 OA
ATOM     15  C   UNL     1      -0.589  12.522  21.845  0.00  0.00    +0.000 A 
ATOM     16  C   UNL     1       0.318  11.532  21.457  0.00  0.00    +0.000 A 
ENDBRANCH   3   5
BRANCH   1  18
ATOM     17  C   UNL     1       2.281   7.576  18.648  0.00  0.00    +0.000 C 
ATOM     18  C   UNL     1       2.156   7.686  19.981  0.00  0.00    +0.000 C 
BRANCH  17  21
ATOM     19  C   UNL     1       5.388   6.324  16.859  0.00  0.00    +0.000 A 
ATOM     20  C   UNL     1       4.416   7.197  17.379  0.00  0.00    +0.000 A 
ATOM     21  C   UNL     1       3.231   6.716  17.931  0.00  0.00    +0.000 A 
ATOM     22  C   UNL     1       3.008   5.338  17.910  0.00  0.00    +0.000 A 
ATOM     23  C   UNL     1       3.923   4.451  17.324  0.00  0.00    +0.000 A 
ATOM     24  C   UNL     1       5.133   4.936  16.783  0.00  0.00    +0.000 A 
BRANCH  19  26
ATOM     25  C   UNL     1       7.478   7.290  17.412  0.00  0.00    +0.000 C 
ATOM     26  O   UNL     1       6.582   6.825  16.403  0.00  0.00    +0.000 OA
ENDBRANCH  19  26
BRANCH  23  27
ATOM     27  O   UNL     1       3.477   3.152  17.410  0.00  0.00    +0.000 OA
ATOM     28  C   UNL     1       2.131   2.893  17.778  0.00  0.00    +0.000 C 
ENDBRANCH  23  27
BRANCH  24  29
ATOM     29  O   UNL     1       5.956   3.998  16.225  0.00  0.00    +0.000 OA
ATOM     30  C   UNL     1       6.125   3.904  14.824  0.00  0.00    +0.000 C 
ENDBRANCH  24  29
ENDBRANCH  17  21
ENDBRANCH   1  18
TORSDOF 6
ENDMDL
MODEL 9
REMARK VINA RESULT:      -7.6      5.811     11.214
REMARK  Name = 
REMARK  10 active torsions:
REMARK  status: ('A' for Active; 'I' for Inactive)
REMARK    1  A    between atoms: C_1  and  O_2
REMARK    2  A    between atoms: O_2  and  C_3
REMARK    3  A    between atoms: C_5  and  C_6
REMARK    4  A    between atoms: C_7  and  C_8
REMARK    5  A    between atoms: N_10  and  C_11
REMARK    6  A    between atoms: C_15  and  C_16
REMARK    7  A    between atoms: C_24  and  O_25
REMARK    8  A    between atoms: O_25  and  C_26
REMARK    9  A    between atoms: C_27  and  O_28
REMARK   10  A    between atoms: O_28  and  C_29
REMARK                            x       y       z     vdW  Elec       q    Type
REMARK                         _______ _______ _______ _____ _____    ______ ____
ROOT
ATOM      1  C   UNL     1       1.047   9.722  20.815  0.00  0.00    +0.000 C 
ATOM      2  O   UNL     1       1.171  10.317  21.875  0.00  0.00    +0.000 OA
ATOM      3  N   UNL     1       0.743  10.274  19.585  0.00  0.00    +0.000 N 
ATOM      4  H   UNL     1       0.532   9.647  18.822  0.00  0.00    +0.000 HD
ENDROOT
BRANCH   3   5
ATOM      5  C   UNL     1       0.577  11.655  19.332  0.00  0.00    +0.000 A 
ATOM      6  C   UNL     1      -0.629  12.338  19.508  0.00  0.00    +0.000 A 
ATOM      7  C   UNL     1      -0.730  13.717  19.272  0.00  0.00    +0.000 A 
ATOM      8  C   UNL     1       0.384  14.453  18.871  0.00  0.00    +0.000 A 
ATOM      9  C   UNL     1       0.422  15.924  18.843  0.00  0.00    +0.000 A 
ATOM     10  C   UNL     1      -0.799  16.782  18.996  0.00  0.00    +0.000 C 
ATOM     11  C   UNL     1       1.631  16.497  18.750  0.00  0.00    +0.000 A 
ATOM     12  C   UNL     1       2.763  15.775  18.154  0.00  0.00    +0.000 A 
ATOM     13  O   UNL     1       3.657  16.393  17.587  0.00  0.00    +0.000 OA
ATOM     14  O   UNL     1       2.739  14.397  18.219  0.00  0.00    +0.000 OA
ATOM     15  C   UNL     1       1.573  13.747  18.664  0.00  0.00    +0.000 A 
ATOM     16  C   UNL     1       1.690  12.374  18.899  0.00  0.00    +0.000 A 
ENDBRANCH   3   5
BRANCH   1  18
ATOM     17  C   UNL     1       2.020   7.732  19.831  0.00  0.00    +0.000 C 
ATOM     18  C   UNL     1       1.208   8.243  20.772  0.00  0.00    +0.000 C 
BRANCH  17  21
ATOM     19  C   UNL     1       1.700   3.948  19.873  0.00  0.00    +0.000 A 
ATOM     20  C   UNL     1       1.629   5.292  20.283  0.00  0.00    +0.000 A 
ATOM     21  C   UNL     1       2.228   6.308  19.541  0.00  0.00    +0.000 A 
ATOM     22  C   UNL     1       2.947   5.951  18.399  0.00  0.00    +0.000 A 
ATOM     23  C   UNL     1       3.103   4.611  18.012  0.00  0.00    +0.000 A 
ATOM     24  C   UNL     1       2.480   3.584  18.753  0.00  0.00    +0.000 A 
BRANCH  19  26
ATOM     25  C   UNL     1       1.631   2.590  21.811  0.00  0.00    +0.000 C 
ATOM     26  O   UNL     1       1.026   2.983  20.579  0.00  0.00    +0.000 OA
ENDBRANCH  19  26
BRANCH  23  27
ATOM     27  O   UNL     1       3.864   4.512  16.870  0.00  0.00    +0.000 OA
ATOM     28  C   UNL     1       4.881   5.468  16.617  0.00  0.00    +0.000 C 
ENDBRANCH  23  27
BRANCH  24  29
ATOM     29  O   UNL     1       2.697   2.310  18.305  0.00  0.00    +0.000 OA
ATOM     30  C   UNL     1       3.779   1.535  18.783  0.00  0.00    +0.000 C 
ENDBRANCH  24  29
ENDBRANCH  17  21
ENDBRANCH   1  18
TORSDOF 6
ENDMDL
