MODEL 1
REMARK VINA RESULT:      -5.3      0.000      0.000
REMARK  Name = 
REMARK  3 active torsions:
REMARK  status: ('A' for Active; 'I' for Inactive)
REMARK    1  A    between atoms: C_1  and  S_2
REMARK    2  A    between atoms: S_2  and  C_5
REMARK    3  A    between atoms: C_10  and  N_11
REMARK                            x       y       z     vdW  Elec       q    Type
REMARK                         _______ _______ _______ _____ _____    ______ ____
ROOT
ATOM      1  C   UNL     1       5.457   5.292  18.431  0.00  0.00    +0.000 A 
ATOM      2  C   UNL     1       4.816   6.377  17.820  0.00  0.00    +0.000 A 
ATOM      3  C   UNL     1       3.450   6.307  17.641  0.00  0.00    +0.000 A 
ATOM      4  N   UNL     1       2.703   5.265  18.052  0.00  0.00    +0.000 NA
ATOM      5  C   UNL     1       3.359   4.233  18.630  0.00  0.00    +0.000 A 
ATOM      6  C   UNL     1       4.743   4.147  18.791  0.00  0.00    +0.000 A 
ENDROOT
BRANCH   1   8
ATOM      7  C   UNL     1       7.696   6.956  18.001  0.00  0.00    +0.000 C 
ATOM      8  S   UNL     1       7.206   5.392  18.685  0.00  0.00    +0.000 S 
ATOM      9  O   UNL     1       7.831   4.356  17.879  0.00  0.00    +0.000 OA
ATOM     10  O   UNL     1       7.421   5.438  20.124  0.00  0.00    +0.000 OA
ENDBRANCH   1   8
BRANCH   6  11
ATOM     11  N   UNL     1       5.315   3.052  19.462  0.00  0.00    +0.000 N 
ATOM     12  H   UNL     1       5.892   3.320  20.258  0.00  0.00    +0.000 HD
ATOM     13  H   UNL     1       4.612   2.368  19.760  0.00  0.00    +0.000 HD
ENDBRANCH   6  11
TORSDOF 2
ENDMDL
MODEL 2
REMARK VINA RESULT:      -5.3      2.180      2.470
REMARK  Name = 
REMARK  3 active torsions:
REMARK  status: ('A' for Active; 'I' for Inactive)
REMARK    1  A    between atoms: C_1  and  S_2
REMARK    2  A    between atoms: S_2  and  C_5
REMARK    3  A    between atoms: C_10  and  N_11
REMARK                            x       y       z     vdW  Elec       q    Type
REMARK                         _______ _______ _______ _____ _____    ______ ____
ROOT
ATOM      1  C   UNL     1       5.526   4.479  17.348  0.00  0.00    +0.000 A 
ATOM      2  C   UNL     1       4.431   3.953  16.650  0.00  0.00    +0.000 A 
ATOM      3  C   UNL     1       3.311   3.595  17.372  0.00  0.00    +0.000 A 
ATOM      4  N   UNL     1       3.209   3.754  18.705  0.00  0.00    +0.000 NA
ATOM      5  C   UNL     1       4.290   4.256  19.345  0.00  0.00    +0.000 A 
ATOM      6  C   UNL     1       5.507   4.577  18.742  0.00  0.00    +0.000 A 
ENDROOT
BRANCH   1   8
ATOM      7  C   UNL     1       6.652   4.403  14.762  0.00  0.00    +0.000 C 
ATOM      8  S   UNL     1       6.952   4.963  16.420  0.00  0.00    +0.000 S 
ATOM      9  O   UNL     1       8.088   4.211  16.928  0.00  0.00    +0.000 OA
ATOM     10  O   UNL     1       6.975   6.418  16.410  0.00  0.00    +0.000 OA
ENDBRANCH   1   8
BRANCH   6  11
ATOM     11  N   UNL     1       6.546   5.150  19.494  0.00  0.00    +0.000 N 
ATOM     12  H   UNL     1       6.750   6.114  19.237  0.00  0.00    +0.000 HD
ATOM     13  H   UNL     1       6.373   5.091  20.503  0.00  0.00    +0.000 HD
ENDBRANCH   6  11
TORSDOF 2
ENDMDL
MODEL 3
REMARK VINA RESULT:      -5.1      1.678      2.032
REMARK  Name = 
REMARK  3 active torsions:
REMARK  status: ('A' for Active; 'I' for Inactive)
REMARK    1  A    between atoms: C_1  and  S_2
REMARK    2  A    between atoms: S_2  and  C_5
REMARK    3  A    between atoms: C_10  and  N_11
REMARK                            x       y       z     vdW  Elec       q    Type
REMARK                         _______ _______ _______ _____ _____    ______ ____
ROOT
ATOM      1  C   UNL     1       5.779   4.799  17.909  0.00  0.00    +0.000 A 
ATOM      2  C   UNL     1       5.153   5.300  19.057  0.00  0.00    +0.000 A 
ATOM      3  C   UNL     1       3.863   4.889  19.325  0.00  0.00    +0.000 A 
ATOM      4  N   UNL     1       3.192   4.011  18.558  0.00  0.00    +0.000 NA
ATOM      5  C   UNL     1       3.827   3.556  17.453  0.00  0.00    +0.000 A 
ATOM      6  C   UNL     1       5.094   3.958  17.028  0.00  0.00    +0.000 A 
ENDROOT
BRANCH   1   8
ATOM      7  C   UNL     1       7.889   6.376  18.921  0.00  0.00    +0.000 C 
ATOM      8  S   UNL     1       7.442   5.304  17.578  0.00  0.00    +0.000 S 
ATOM      9  O   UNL     1       7.428   6.113  16.370  0.00  0.00    +0.000 OA
ATOM     10  O   UNL     1       8.270   4.109  17.656  0.00  0.00    +0.000 OA
ENDBRANCH   1   8
BRANCH   6  11
ATOM     11  N   UNL     1       5.684   3.374  15.894  0.00  0.00    +0.000 N 
ATOM     12  H   UNL     1       6.423   2.709  16.117  0.00  0.00    +0.000 HD
ATOM     13  H   UNL     1       4.992   2.928  15.283  0.00  0.00    +0.000 HD
ENDBRANCH   6  11
TORSDOF 2
ENDMDL
MODEL 4
REMARK VINA RESULT:      -5.0      2.371      2.914
REMARK  Name = 
REMARK  3 active torsions:
REMARK  status: ('A' for Active; 'I' for Inactive)
REMARK    1  A    between atoms: C_1  and  S_2
REMARK    2  A    between atoms: S_2  and  C_5
REMARK    3  A    between atoms: C_10  and  N_11
REMARK                            x       y       z     vdW  Elec       q    Type
REMARK                         _______ _______ _______ _____ _____    ______ ____
ROOT
ATOM      1  C   UNL     1       3.829   4.007  19.508  0.00  0.00    +0.000 A 
ATOM      2  C   UNL     1       2.849   4.948  19.849  0.00  0.00    +0.000 A 
ATOM      3  C   UNL     1       1.953   4.620  20.846  0.00  0.00    +0.000 A 
ATOM      4  N   UNL     1       1.993   3.457  21.523  0.00  0.00    +0.000 NA
ATOM      5  C   UNL     1       2.948   2.570  21.158  0.00  0.00    +0.000 A 
ATOM      6  C   UNL     1       3.857   2.749  20.114  0.00  0.00    +0.000 A 
ENDROOT
BRANCH   1   8
ATOM      7  C   UNL     1       4.598   6.105  17.784  0.00  0.00    +0.000 C 
ATOM      8  S   UNL     1       4.995   4.438  18.248  0.00  0.00    +0.000 S 
ATOM      9  O   UNL     1       4.731   3.596  17.093  0.00  0.00    +0.000 OA
ATOM     10  O   UNL     1       6.309   4.441  18.874  0.00  0.00    +0.000 OA
ENDBRANCH   1   8
BRANCH   6  11
ATOM     11  N   UNL     1       4.848   1.785  19.860  0.00  0.00    +0.000 N 
ATOM     12  H   UNL     1       5.072   1.209  20.670  0.00  0.00    +0.000 HD
ATOM     13  H   UNL     1       4.609   1.184  19.064  0.00  0.00    +0.000 HD
ENDBRANCH   6  11
TORSDOF 2
ENDMDL
MODEL 5
REMARK VINA RESULT:      -5.0      1.527      1.887
REMARK  Name = 
REMARK  3 active torsions:
REMARK  status: ('A' for Active; 'I' for Inactive)
REMARK    1  A    between atoms: C_1  and  S_2
REMARK    2  A    between atoms: S_2  and  C_5
REMARK    3  A    between atoms: C_10  and  N_11
REMARK                            x       y       z     vdW  Elec       q    Type
REMARK                         _______ _______ _______ _____ _____    ______ ____
ROOT
ATOM      1  C   UNL     1       5.417   5.533  17.699  0.00  0.00    +0.000 A 
ATOM      2  C   UNL     1       4.773   6.710  17.296  0.00  0.00    +0.000 A 
ATOM      3  C   UNL     1       3.571   7.030  17.894  0.00  0.00    +0.000 A 
ATOM      4  N   UNL     1       3.006   6.285  18.863  0.00  0.00    +0.000 NA
ATOM      5  C   UNL     1       3.653   5.152  19.218  0.00  0.00    +0.000 A 
ATOM      6  C   UNL     1       4.827   4.677  18.633  0.00  0.00    +0.000 A 
ENDROOT
BRANCH   1   8
ATOM      7  C   UNL     1       6.594   3.978  15.660  0.00  0.00    +0.000 C 
ATOM      8  S   UNL     1       6.971   5.136  16.953  0.00  0.00    +0.000 S 
ATOM      9  O   UNL     1       7.770   4.430  17.941  0.00  0.00    +0.000 OA
ATOM     10  O   UNL     1       7.469   6.357  16.338  0.00  0.00    +0.000 OA
ENDBRANCH   1   8
BRANCH   6  11
ATOM     11  N   UNL     1       5.448   3.515  19.122  0.00  0.00    +0.000 N 
ATOM     12  H   UNL     1       4.794   2.763  19.335  0.00  0.00    +0.000 HD
ATOM     13  H   UNL     1       6.178   3.169  18.490  0.00  0.00    +0.000 HD
ENDBRANCH   6  11
TORSDOF 2
ENDMDL
MODEL 6
REMARK VINA RESULT:      -5.0      3.610      4.561
REMARK  Name = 
REMARK  3 active torsions:
REMARK  status: ('A' for Active; 'I' for Inactive)
REMARK    1  A    between atoms: C_1  and  S_2
REMARK    2  A    between atoms: S_2  and  C_5
REMARK    3  A    between atoms: C_10  and  N_11
REMARK                            x       y       z     vdW  Elec       q    Type
REMARK                         _______ _______ _______ _____ _____    ______ ____
ROOT
ATOM      1  C   UNL     1       2.447   3.458  19.349  0.00  0.00    +0.000 A 
ATOM      2  C   UNL     1       1.217   3.443  20.020  0.00  0.00    +0.000 A 
ATOM      3  C   UNL     1       1.178   2.910  21.292  0.00  0.00    +0.000 A 
ATOM      4  N   UNL     1       2.264   2.434  21.928  0.00  0.00    +0.000 NA
ATOM      5  C   UNL     1       3.432   2.457  21.245  0.00  0.00    +0.000 A 
ATOM      6  C   UNL     1       3.586   2.892  19.927  0.00  0.00    +0.000 A 
ENDROOT
BRANCH   1   8
ATOM      7  C   UNL     1       3.178   5.794  17.946  0.00  0.00    +0.000 C 
ATOM      8  S   UNL     1       2.504   4.166  17.728  0.00  0.00    +0.000 S 
ATOM      9  O   UNL     1       1.135   4.326  17.266  0.00  0.00    +0.000 OA
ATOM     10  O   UNL     1       3.456   3.379  16.958  0.00  0.00    +0.000 OA
ENDBRANCH   1   8
BRANCH   6  11
ATOM     11  N   UNL     1       4.859   2.929  19.333  0.00  0.00    +0.000 N 
ATOM     12  H   UNL     1       5.568   3.367  19.919  0.00  0.00    +0.000 HD
ATOM     13  H   UNL     1       5.179   1.999  19.043  0.00  0.00    +0.000 HD
ENDBRANCH   6  11
TORSDOF 2
ENDMDL
MODEL 7
REMARK VINA RESULT:      -5.0      1.402      1.592
REMARK  Name = 
REMARK  3 active torsions:
REMARK  status: ('A' for Active; 'I' for Inactive)
REMARK    1  A    between atoms: C_1  and  S_2
REMARK    2  A    between atoms: S_2  and  C_5
REMARK    3  A    between atoms: C_10  and  N_11
REMARK                            x       y       z     vdW  Elec       q    Type
REMARK                         _______ _______ _______ _____ _____    ______ ____
ROOT
ATOM      1  C   UNL     1       5.586   4.836  18.316  0.00  0.00    +0.000 A 
ATOM      2  C   UNL     1       4.649   5.171  19.301  0.00  0.00    +0.000 A 
ATOM      3  C   UNL     1       3.336   4.793  19.105  0.00  0.00    +0.000 A 
ATOM      4  N   UNL     1       2.921   4.094  18.032  0.00  0.00    +0.000 NA
ATOM      5  C   UNL     1       3.854   3.797  17.098  0.00  0.00    +0.000 A 
ATOM      6  C   UNL     1       5.191   4.194  17.140  0.00  0.00    +0.000 A 
ENDROOT
BRANCH   1   8
ATOM      7  C   UNL     1       7.474   6.857  17.755  0.00  0.00    +0.000 C 
ATOM      8  S   UNL     1       7.274   5.297  18.580  0.00  0.00    +0.000 S 
ATOM      9  O   UNL     1       8.110   4.333  17.884  0.00  0.00    +0.000 OA
ATOM     10  O   UNL     1       7.433   5.515  20.010  0.00  0.00    +0.000 OA
ENDBRANCH   1   8
BRANCH   6  11
ATOM     11  N   UNL     1       6.089   3.778  16.143  0.00  0.00    +0.000 N 
ATOM     12  H   UNL     1       6.138   2.765  16.037  0.00  0.00    +0.000 HD
ATOM     13  H   UNL     1       5.890   4.210  15.235  0.00  0.00    +0.000 HD
ENDBRANCH   6  11
TORSDOF 2
ENDMDL
MODEL 8
REMARK VINA RESULT:      -5.0      1.775      2.297
REMARK  Name = 
REMARK  3 active torsions:
REMARK  status: ('A' for Active; 'I' for Inactive)
REMARK    1  A    between atoms: C_1  and  S_2
REMARK    2  A    between atoms: S_2  and  C_5
REMARK    3  A    between atoms: C_10  and  N_11
REMARK                            x       y       z     vdW  Elec       q    Type
REMARK                         _______ _______ _______ _____ _____    ______ ____
ROOT
ATOM      1  C   UNL     1       3.809   4.084  18.421  0.00  0.00    +0.000 A 
ATOM      2  C   UNL     1       2.631   4.603  17.869  0.00  0.00    +0.000 A 
ATOM      3  C   UNL     1       1.472   3.867  18.002  0.00  0.00    +0.000 A 
ATOM      4  N   UNL     1       1.412   2.694  18.660  0.00  0.00    +0.000 NA
ATOM      5  C   UNL     1       2.573   2.220  19.171  0.00  0.00    +0.000 A 
ATOM      6  C   UNL     1       3.821   2.827  19.031  0.00  0.00    +0.000 A 
ENDROOT
BRANCH   1   8
ATOM      7  C   UNL     1       4.813   6.529  17.435  0.00  0.00    +0.000 C 
ATOM      8  S   UNL     1       5.291   5.040  18.274  0.00  0.00    +0.000 S 
ATOM      9  O   UNL     1       6.196   4.322  17.392  0.00  0.00    +0.000 OA
ATOM     10  O   UNL     1       5.702   5.391  19.626  0.00  0.00    +0.000 OA
ENDBRANCH   1   8
BRANCH   6  11
ATOM     11  N   UNL     1       4.954   2.277  19.656  0.00  0.00    +0.000 N 
ATOM     12  H   UNL     1       5.105   1.295  19.431  0.00  0.00    +0.000 HD
ATOM     13  H   UNL     1       5.806   2.812  19.455  0.00  0.00    +0.000 HD
ENDBRANCH   6  11
TORSDOF 2
ENDMDL
MODEL 9
REMARK VINA RESULT:      -5.0      2.614      3.105
REMARK  Name = 
REMARK  3 active torsions:
REMARK  status: ('A' for Active; 'I' for Inactive)
REMARK    1  A    between atoms: C_1  and  S_2
REMARK    2  A    between atoms: S_2  and  C_5
REMARK    3  A    between atoms: C_10  and  N_11
REMARK                            x       y       z     vdW  Elec       q    Type
REMARK                         _______ _______ _______ _____ _____    ______ ____
ROOT
ATOM      1  C   UNL     1       3.699   4.131  19.567  0.00  0.00    +0.000 A 
ATOM      2  C   UNL     1       2.621   4.977  19.853  0.00  0.00    +0.000 A 
ATOM      3  C   UNL     1       1.687   4.551  20.776  0.00  0.00    +0.000 A 
ATOM      4  N   UNL     1       1.779   3.380  21.434  0.00  0.00    +0.000 NA
ATOM      5  C   UNL     1       2.829   2.586  21.123  0.00  0.00    +0.000 A 
ATOM      6  C   UNL     1       3.791   2.865  20.151  0.00  0.00    +0.000 A 
ENDROOT
BRANCH   1   8
ATOM      7  C   UNL     1       4.571   3.800  16.904  0.00  0.00    +0.000 C 
ATOM      8  S   UNL     1       4.910   4.688  18.404  0.00  0.00    +0.000 S 
ATOM      9  O   UNL     1       6.213   4.249  18.877  0.00  0.00    +0.000 OA
ATOM     10  O   UNL     1       4.648   6.099  18.165  0.00  0.00    +0.000 OA
ENDBRANCH   1   8
BRANCH   6  11
ATOM     11  N   UNL     1       4.876   1.994  19.952  0.00  0.00    +0.000 N 
ATOM     12  H   UNL     1       4.901   1.219  20.613  0.00  0.00    +0.000 HD
ATOM     13  H   UNL     1       4.912   1.632  18.993  0.00  0.00    +0.000 HD
ENDBRANCH   6  11
TORSDOF 2
ENDMDL
