MODEL 1
REMARK VINA RESULT:      -8.8      0.000      0.000
REMARK  Name = 
REMARK  7 active torsions:
REMARK  status: ('A' for Active; 'I' for Inactive)
REMARK    1  A    between atoms: C_2  and  C_21
REMARK    2  A    between atoms: N_3  and  C_4
REMARK    3  A    between atoms: C_4  and  C_5
REMARK    4  A    between atoms: C_5  and  C_6
REMARK    5  A    between atoms: C_6  and  N_7
REMARK    6  A    between atoms: N_10  and  C_11
REMARK    7  A    between atoms: C_24  and  C_25
REMARK                            x       y       z     vdW  Elec       q    Type
REMARK                         _______ _______ _______ _____ _____    ______ ____
ROOT
ATOM      1  C   UNL     1       1.954   5.231  20.849  0.00  0.00    +0.000 C 
ENDROOT
BRANCH   1   4
ATOM      2  O   UNL     1       2.187   7.816  19.657  0.00  0.00    +0.000 OA
ATOM      3  C   UNL     1       1.453   7.651  20.623  0.00  0.00    +0.000 C 
ATOM      4  N   UNL     1       1.251   6.431  21.241  0.00  0.00    +0.000 N 
ATOM      5  H   UNL     1       0.511   6.349  21.928  0.00  0.00    +0.000 HD
BRANCH   3   6
ATOM      6  C   UNL     1       0.700   8.789  21.210  0.00  0.00    +0.000 A 
ATOM      7  C   UNL     1       0.373   9.883  20.406  0.00  0.00    +0.000 A 
ATOM      8  C   UNL     1      -0.334  10.963  20.950  0.00  0.00    +0.000 A 
ATOM      9  C   UNL     1      -0.730  10.983  22.303  0.00  0.00    +0.000 A 
ATOM     10  C   UNL     1      -0.378   9.873  23.090  0.00  0.00    +0.000 A 
ATOM     11  C   UNL     1       0.339   8.797  22.559  0.00  0.00    +0.000 A 
BRANCH   9  12
ATOM     12  C   UNL     1      -1.463  12.137  22.879  0.00  0.00    +0.000 A 
ATOM     13  C   UNL     1      -0.862  13.403  23.005  0.00  0.00    +0.000 A 
ATOM     14  C   UNL     1      -1.539  14.480  23.589  0.00  0.00    +0.000 A 
ATOM     15  C   UNL     1      -2.842  14.320  24.046  0.00  0.00    +0.000 A 
ATOM     16  C   UNL     1      -3.472  13.088  23.913  0.00  0.00    +0.000 A 
ATOM     17  C   UNL     1      -2.787  12.010  23.342  0.00  0.00    +0.000 A 
ENDBRANCH   9  12
ENDBRANCH   3   6
ENDBRANCH   1   4
BRANCH   1  18
ATOM     18  C   UNL     1       1.016   4.144  20.330  0.00  0.00    +0.000 C 
BRANCH  18  19
ATOM     19  C   UNL     1       1.608   2.730  20.453  0.00  0.00    +0.000 C 
BRANCH  19  20
ATOM     20  N   UNL     1       1.795   2.076  19.145  0.00  0.00    +0.000 NA
ATOM     21  C   UNL     1       1.581   2.984  17.996  0.00  0.00    +0.000 C 
ATOM     22  C   UNL     1       2.653   4.085  17.804  0.00  0.00    +0.000 C 
ATOM     23  N   UNL     1       4.013   3.495  17.758  0.00  0.00    +0.000 N 
ATOM     24  C   UNL     1       4.299   2.555  18.856  0.00  0.00    +0.000 C 
ATOM     25  C   UNL     1       3.162   1.513  19.007  0.00  0.00    +0.000 C 
BRANCH  23  26
ATOM     26  C   UNL     1       5.017   4.195  17.077  0.00  0.00    +0.000 A 
ATOM     27  C   UNL     1       5.378   3.701  15.799  0.00  0.00    +0.000 A 
ATOM     28  C   UNL     1       6.381   4.266  15.011  0.00  0.00    +0.000 A 
ATOM     29  C   UNL     1       7.098   5.348  15.490  0.00  0.00    +0.000 A 
ATOM     30  C   UNL     1       6.801   5.865  16.751  0.00  0.00    +0.000 A 
ATOM     31 CL   UNL     1       7.769   7.210  17.271  0.00  0.00    +0.000 Cl
ATOM     32  C   UNL     1       5.764   5.312  17.543  0.00  0.00    +0.000 A 
ATOM     33 CL   UNL     1       5.405   6.110  19.052  0.00  0.00    +0.000 Cl
ENDBRANCH  23  26
ENDBRANCH  19  20
ENDBRANCH  18  19
ENDBRANCH   1  18
TORSDOF 7
ENDMDL
MODEL 2
REMARK VINA RESULT:      -8.7      0.251      1.216
REMARK  Name = 
REMARK  7 active torsions:
REMARK  status: ('A' for Active; 'I' for Inactive)
REMARK    1  A    between atoms: C_2  and  C_21
REMARK    2  A    between atoms: N_3  and  C_4
REMARK    3  A    between atoms: C_4  and  C_5
REMARK    4  A    between atoms: C_5  and  C_6
REMARK    5  A    between atoms: C_6  and  N_7
REMARK    6  A    between atoms: N_10  and  C_11
REMARK    7  A    between atoms: C_24  and  C_25
REMARK                            x       y       z     vdW  Elec       q    Type
REMARK                         _______ _______ _______ _____ _____    ______ ____
ROOT
ATOM      1  C   UNL     1       1.982   5.464  20.698  0.00  0.00    +0.000 C 
ENDROOT
BRANCH   1   4
ATOM      2  O   UNL     1       2.165   8.064  19.528  0.00  0.00    +0.000 OA
ATOM      3  C   UNL     1       1.459   7.883  20.512  0.00  0.00    +0.000 C 
ATOM      4  N   UNL     1       1.282   6.654  21.122  0.00  0.00    +0.000 N 
ATOM      5  H   UNL     1       0.562   6.560  21.828  0.00  0.00    +0.000 HD
BRANCH   3   6
ATOM      6  C   UNL     1       0.714   9.008  21.132  0.00  0.00    +0.000 A 
ATOM      7  C   UNL     1       0.084   8.819  22.364  0.00  0.00    +0.000 A 
ATOM      8  C   UNL     1      -0.625   9.872  22.956  0.00  0.00    +0.000 A 
ATOM      9  C   UNL     1      -0.727  11.135  22.338  0.00  0.00    +0.000 A 
ATOM     10  C   UNL     1      -0.092  11.293  21.094  0.00  0.00    +0.000 A 
ATOM     11  C   UNL     1       0.606  10.244  20.490  0.00  0.00    +0.000 A 
BRANCH   9  12
ATOM     12  C   UNL     1      -1.494  12.243  22.960  0.00  0.00    +0.000 A 
ATOM     13  C   UNL     1      -2.843  12.089  23.329  0.00  0.00    +0.000 A 
ATOM     14  C   UNL     1      -3.577  13.148  23.875  0.00  0.00    +0.000 A 
ATOM     15  C   UNL     1      -2.974  14.383  24.082  0.00  0.00    +0.000 A 
ATOM     16  C   UNL     1      -1.635  14.559  23.750  0.00  0.00    +0.000 A 
ATOM     17  C   UNL     1      -0.908  13.503  23.191  0.00  0.00    +0.000 A 
ENDBRANCH   9  12
ENDBRANCH   3   6
ENDBRANCH   1   4
BRANCH   1  18
ATOM     18  C   UNL     1       1.034   4.331  20.314  0.00  0.00    +0.000 C 
BRANCH  18  19
ATOM     19  C   UNL     1       1.594   2.938  20.652  0.00  0.00    +0.000 C 
BRANCH  19  20
ATOM     20  N   UNL     1       1.867   2.128  19.451  0.00  0.00    +0.000 NA
ATOM     21  C   UNL     1       1.600   2.845  18.183  0.00  0.00    +0.000 C 
ATOM     22  C   UNL     1       2.577   4.000  17.850  0.00  0.00    +0.000 C 
ATOM     23  N   UNL     1       3.984   3.532  17.901  0.00  0.00    +0.000 N 
ATOM     24  C   UNL     1       4.325   2.784  19.123  0.00  0.00    +0.000 C 
ATOM     25  C   UNL     1       3.279   1.675  19.407  0.00  0.00    +0.000 C 
BRANCH  23  26
ATOM     26  C   UNL     1       4.939   4.218  17.139  0.00  0.00    +0.000 A 
ATOM     27  C   UNL     1       5.151   3.748  15.819  0.00  0.00    +0.000 A 
ATOM     28  C   UNL     1       6.089   4.302  14.947  0.00  0.00    +0.000 A 
ATOM     29  C   UNL     1       6.889   5.345  15.378  0.00  0.00    +0.000 A 
ATOM     30  C   UNL     1       6.738   5.837  16.674  0.00  0.00    +0.000 A 
ATOM     31 CL   UNL     1       7.802   7.134  17.126  0.00  0.00    +0.000 Cl
ATOM     32  C   UNL     1       5.768   5.296  17.554  0.00  0.00    +0.000 A 
ATOM     33 CL   UNL     1       5.591   6.063  19.110  0.00  0.00    +0.000 Cl
ENDBRANCH  23  26
ENDBRANCH  19  20
ENDBRANCH  18  19
ENDBRANCH   1  18
TORSDOF 7
ENDMDL
MODEL 3
REMARK VINA RESULT:      -8.4      4.565     10.842
REMARK  Name = 
REMARK  7 active torsions:
REMARK  status: ('A' for Active; 'I' for Inactive)
REMARK    1  A    between atoms: C_2  and  C_21
REMARK    2  A    between atoms: N_3  and  C_4
REMARK    3  A    between atoms: C_4  and  C_5
REMARK    4  A    between atoms: C_5  and  C_6
REMARK    5  A    between atoms: C_6  and  N_7
REMARK    6  A    between atoms: N_10  and  C_11
REMARK    7  A    between atoms: C_24  and  C_25
REMARK                            x       y       z     vdW  Elec       q    Type
REMARK                         _______ _______ _______ _____ _____    ______ ____
ROOT
ATOM      1  C   UNL     1       1.573   7.367  20.740  0.00  0.00    +0.000 C 
ENDROOT
BRANCH   1   4
ATOM      2  O   UNL     1       2.884   4.847  20.444  0.00  0.00    +0.000 OA
ATOM      3  C   UNL     1       2.920   5.666  19.535  0.00  0.00    +0.000 C 
ATOM      4  N   UNL     1       2.286   6.894  19.575  0.00  0.00    +0.000 N 
ATOM      5  H   UNL     1       2.232   7.444  18.726  0.00  0.00    +0.000 HD
BRANCH   3   6
ATOM      6  C   UNL     1       3.667   5.382  18.282  0.00  0.00    +0.000 A 
ATOM      7  C   UNL     1       4.287   6.432  17.600  0.00  0.00    +0.000 A 
ATOM      8  C   UNL     1       4.989   6.176  16.416  0.00  0.00    +0.000 A 
ATOM      9  C   UNL     1       5.092   4.876  15.881  0.00  0.00    +0.000 A 
ATOM     10  C   UNL     1       4.449   3.841  16.584  0.00  0.00    +0.000 A 
ATOM     11  C   UNL     1       3.733   4.090  17.758  0.00  0.00    +0.000 A 
BRANCH   9  12
ATOM     12  C   UNL     1       5.822   4.612  14.617  0.00  0.00    +0.000 A 
ATOM     13  C   UNL     1       7.066   5.211  14.346  0.00  0.00    +0.000 A 
ATOM     14  C   UNL     1       7.734   4.996  13.135  0.00  0.00    +0.000 A 
ATOM     15  C   UNL     1       7.180   4.161  12.171  0.00  0.00    +0.000 A 
ATOM     16  C   UNL     1       5.964   3.536  12.419  0.00  0.00    +0.000 A 
ATOM     17  C   UNL     1       5.292   3.764  13.625  0.00  0.00    +0.000 A 
ENDBRANCH   9  12
ENDBRANCH   3   6
ENDBRANCH   1   4
BRANCH   1  18
ATOM     18  C   UNL     1       1.566   8.890  20.845  0.00  0.00    +0.000 C 
BRANCH  18  19
ATOM     19  C   UNL     1       0.648   9.560  19.809  0.00  0.00    +0.000 C 
BRANCH  19  20
ATOM     20  N   UNL     1      -0.142  10.666  20.380  0.00  0.00    +0.000 NA
ATOM     21  C   UNL     1       0.669  11.629  21.157  0.00  0.00    +0.000 C 
ATOM     22  C   UNL     1       1.641  12.507  20.329  0.00  0.00    +0.000 C 
ATOM     23  N   UNL     1       0.922  13.196  19.228  0.00  0.00    +0.000 N 
ATOM     24  C   UNL     1       0.067  12.309  18.420  0.00  0.00    +0.000 C 
ATOM     25  C   UNL     1      -0.843  11.438  19.323  0.00  0.00    +0.000 C 
BRANCH  23  26
ATOM     26  C   UNL     1       1.456  14.393  18.735  0.00  0.00    +0.000 A 
ATOM     27  C   UNL     1       2.754  14.323  18.173  0.00  0.00    +0.000 A 
ATOM     28  C   UNL     1       3.436  15.432  17.670  0.00  0.00    +0.000 A 
ATOM     29  C   UNL     1       2.849  16.683  17.738  0.00  0.00    +0.000 A 
ATOM     30  C   UNL     1       1.578  16.816  18.298  0.00  0.00    +0.000 A 
ATOM     31 CL   UNL     1       0.936  18.428  18.355  0.00  0.00    +0.000 Cl
ATOM     32  C   UNL     1       0.871  15.688  18.785  0.00  0.00    +0.000 A 
ATOM     33 CL   UNL     1      -0.754  15.957  19.360  0.00  0.00    +0.000 Cl
ENDBRANCH  23  26
ENDBRANCH  19  20
ENDBRANCH  18  19
ENDBRANCH   1  18
TORSDOF 7
ENDMDL
MODEL 4
REMARK VINA RESULT:      -8.3      4.214     10.778
REMARK  Name = 
REMARK  7 active torsions:
REMARK  status: ('A' for Active; 'I' for Inactive)
REMARK    1  A    between atoms: C_2  and  C_21
REMARK    2  A    between atoms: N_3  and  C_4
REMARK    3  A    between atoms: C_4  and  C_5
REMARK    4  A    between atoms: C_5  and  C_6
REMARK    5  A    between atoms: C_6  and  N_7
REMARK    6  A    between atoms: N_10  and  C_11
REMARK    7  A    between atoms: C_24  and  C_25
REMARK                            x       y       z     vdW  Elec       q    Type
REMARK                         _______ _______ _______ _____ _____    ______ ____
ROOT
ATOM      1  C   UNL     1       1.853   7.381  20.861  0.00  0.00    +0.000 C 
ENDROOT
BRANCH   1   4
ATOM      2  O   UNL     1       3.005   4.801  20.447  0.00  0.00    +0.000 OA
ATOM      3  C   UNL     1       3.077   5.651  19.569  0.00  0.00    +0.000 C 
ATOM      4  N   UNL     1       2.518   6.912  19.667  0.00  0.00    +0.000 N 
ATOM      5  H   UNL     1       2.485   7.497  18.840  0.00  0.00    +0.000 HD
BRANCH   3   6
ATOM      6  C   UNL     1       3.786   5.372  18.294  0.00  0.00    +0.000 A 
ATOM      7  C   UNL     1       4.318   6.434  17.558  0.00  0.00    +0.000 A 
ATOM      8  C   UNL     1       4.985   6.183  16.353  0.00  0.00    +0.000 A 
ATOM      9  C   UNL     1       5.139   4.874  15.850  0.00  0.00    +0.000 A 
ATOM     10  C   UNL     1       4.584   3.827  16.607  0.00  0.00    +0.000 A 
ATOM     11  C   UNL     1       3.904   4.071  17.804  0.00  0.00    +0.000 A 
BRANCH   9  12
ATOM     12  C   UNL     1       5.831   4.614  14.563  0.00  0.00    +0.000 A 
ATOM     13  C   UNL     1       5.293   3.741  13.600  0.00  0.00    +0.000 A 
ATOM     14  C   UNL     1       5.967   3.463  12.406  0.00  0.00    +0.000 A 
ATOM     15  C   UNL     1       7.191   4.066  12.138  0.00  0.00    +0.000 A 
ATOM     16  C   UNL     1       7.737   4.953  13.060  0.00  0.00    +0.000 A 
ATOM     17  C   UNL     1       7.067   5.218  14.259  0.00  0.00    +0.000 A 
ENDBRANCH   9  12
ENDBRANCH   3   6
ENDBRANCH   1   4
BRANCH   1  18
ATOM     18  C   UNL     1       0.998   8.621  20.607  0.00  0.00    +0.000 C 
BRANCH  18  19
ATOM     19  C   UNL     1       1.147   9.688  21.705  0.00  0.00    +0.000 C 
BRANCH  19  20
ATOM     20  N   UNL     1       1.000  11.060  21.187  0.00  0.00    +0.000 NA
ATOM     21  C   UNL     1       1.213  11.166  19.727  0.00  0.00    +0.000 C 
ATOM     22  C   UNL     1       0.117  10.519  18.843  0.00  0.00    +0.000 C 
ATOM     23  N   UNL     1      -1.227  11.025  19.214  0.00  0.00    +0.000 N 
ATOM     24  C   UNL     1      -1.510  10.980  20.659  0.00  0.00    +0.000 C 
ATOM     25  C   UNL     1      -0.350  11.609  21.473  0.00  0.00    +0.000 C 
BRANCH  23  26
ATOM     26  C   UNL     1      -2.235  11.002  18.242  0.00  0.00    +0.000 A 
ATOM     27  C   UNL     1      -1.955  10.282  17.055  0.00  0.00    +0.000 A 
ATOM     28  C   UNL     1      -2.842  10.193  15.981  0.00  0.00    +0.000 A 
ATOM     29  C   UNL     1      -4.053  10.858  16.038  0.00  0.00    +0.000 A 
ATOM     30  C   UNL     1      -4.376  11.600  17.175  0.00  0.00    +0.000 A 
ATOM     31 CL   UNL     1      -5.910  12.414  17.143  0.00  0.00    +0.000 Cl
ATOM     32  C   UNL     1      -3.491  11.670  18.279  0.00  0.00    +0.000 A 
ATOM     33 CL   UNL     1      -4.047  12.532  19.690  0.00  0.00    +0.000 Cl
ENDBRANCH  23  26
ENDBRANCH  19  20
ENDBRANCH  18  19
ENDBRANCH   1  18
TORSDOF 7
ENDMDL
MODEL 5
REMARK VINA RESULT:      -8.2      3.775     10.720
REMARK  Name = 
REMARK  7 active torsions:
REMARK  status: ('A' for Active; 'I' for Inactive)
REMARK    1  A    between atoms: C_2  and  C_21
REMARK    2  A    between atoms: N_3  and  C_4
REMARK    3  A    between atoms: C_4  and  C_5
REMARK    4  A    between atoms: C_5  and  C_6
REMARK    5  A    between atoms: C_6  and  N_7
REMARK    6  A    between atoms: N_10  and  C_11
REMARK    7  A    between atoms: C_24  and  C_25
REMARK                            x       y       z     vdW  Elec       q    Type
REMARK                         _______ _______ _______ _____ _____    ______ ____
ROOT
ATOM      1  C   UNL     1       1.648   7.064  21.102  0.00  0.00    +0.000 C 
ENDROOT
BRANCH   1   4
ATOM      2  O   UNL     1       2.004   4.414  20.098  0.00  0.00    +0.000 OA
ATOM      3  C   UNL     1       2.516   5.363  19.517  0.00  0.00    +0.000 C 
ATOM      4  N   UNL     1       2.367   6.681  19.909  0.00  0.00    +0.000 N 
ATOM      5  H   UNL     1       2.689   7.413  19.288  0.00  0.00    +0.000 HD
BRANCH   3   6
ATOM      6  C   UNL     1       3.352   5.154  18.307  0.00  0.00    +0.000 A 
ATOM      7  C   UNL     1       3.971   6.251  17.704  0.00  0.00    +0.000 A 
ATOM      8  C   UNL     1       4.758   6.067  16.559  0.00  0.00    +0.000 A 
ATOM      9  C   UNL     1       4.947   4.792  15.988  0.00  0.00    +0.000 A 
ATOM     10  C   UNL     1       4.303   3.708  16.612  0.00  0.00    +0.000 A 
ATOM     11  C   UNL     1       3.504   3.885  17.745  0.00  0.00    +0.000 A 
BRANCH   9  12
ATOM     12  C   UNL     1       5.767   4.603  14.766  0.00  0.00    +0.000 A 
ATOM     13  C   UNL     1       6.972   5.303  14.572  0.00  0.00    +0.000 A 
ATOM     14  C   UNL     1       7.722   5.157  13.400  0.00  0.00    +0.000 A 
ATOM     15  C   UNL     1       7.293   4.293  12.399  0.00  0.00    +0.000 A 
ATOM     16  C   UNL     1       6.119   3.569  12.572  0.00  0.00    +0.000 A 
ATOM     17  C   UNL     1       5.364   3.728  13.739  0.00  0.00    +0.000 A 
ENDBRANCH   9  12
ENDBRANCH   3   6
ENDBRANCH   1   4
BRANCH   1  18
ATOM     18  C   UNL     1       1.551   8.579  21.267  0.00  0.00    +0.000 C 
BRANCH  18  19
ATOM     19  C   UNL     1       0.909   9.276  20.054  0.00  0.00    +0.000 C 
BRANCH  19  20
ATOM     20  N   UNL     1      -0.272  10.078  20.420  0.00  0.00    +0.000 NA
ATOM     21  C   UNL     1       0.027  11.163  21.381  0.00  0.00    +0.000 C 
ATOM     22  C   UNL     1       0.878  12.333  20.826  0.00  0.00    +0.000 C 
ATOM     23  N   UNL     1       0.274  12.882  19.587  0.00  0.00    +0.000 N 
ATOM     24  C   UNL     1      -0.079  11.862  18.585  0.00  0.00    +0.000 C 
ATOM     25  C   UNL     1      -0.893  10.709  19.228  0.00  0.00    +0.000 C 
BRANCH  23  26
ATOM     26  C   UNL     1       0.549  14.214  19.250  0.00  0.00    +0.000 A 
ATOM     27  C   UNL     1      -0.500  15.146  19.444  0.00  0.00    +0.000 A 
ATOM     28  C   UNL     1      -0.395  16.501  19.126  0.00  0.00    +0.000 A 
ATOM     29  C   UNL     1       0.773  16.981  18.562  0.00  0.00    +0.000 A 
ATOM     30  C   UNL     1       1.834  16.106  18.329  0.00  0.00    +0.000 A 
ATOM     31 CL   UNL     1       3.249  16.800  17.600  0.00  0.00    +0.000 Cl
ATOM     32  C   UNL     1       1.742  14.735  18.676  0.00  0.00    +0.000 A 
ATOM     33 CL   UNL     1       3.168  13.758  18.445  0.00  0.00    +0.000 Cl
ENDBRANCH  23  26
ENDBRANCH  19  20
ENDBRANCH  18  19
ENDBRANCH   1  18
TORSDOF 7
ENDMDL
MODEL 6
REMARK VINA RESULT:      -8.2      1.227      1.742
REMARK  Name = 
REMARK  7 active torsions:
REMARK  status: ('A' for Active; 'I' for Inactive)
REMARK    1  A    between atoms: C_2  and  C_21
REMARK    2  A    between atoms: N_3  and  C_4
REMARK    3  A    between atoms: C_4  and  C_5
REMARK    4  A    between atoms: C_5  and  C_6
REMARK    5  A    between atoms: C_6  and  N_7
REMARK    6  A    between atoms: N_10  and  C_11
REMARK    7  A    between atoms: C_24  and  C_25
REMARK                            x       y       z     vdW  Elec       q    Type
REMARK                         _______ _______ _______ _____ _____    ______ ____
ROOT
ATOM      1  C   UNL     1       2.023   5.728  20.784  0.00  0.00    +0.000 C 
ENDROOT
BRANCH   1   4
ATOM      2  O   UNL     1       1.886   8.292  19.534  0.00  0.00    +0.000 OA
ATOM      3  C   UNL     1       1.283   8.088  20.579  0.00  0.00    +0.000 C 
ATOM      4  N   UNL     1       1.263   6.871  21.235  0.00  0.00    +0.000 N 
ATOM      5  H   UNL     1       0.616   6.741  22.004  0.00  0.00    +0.000 HD
BRANCH   3   6
ATOM      6  C   UNL     1       0.501   9.169  21.231  0.00  0.00    +0.000 A 
ATOM      7  C   UNL     1       0.192  10.324  20.508  0.00  0.00    +0.000 A 
ATOM      8  C   UNL     1      -0.541  11.352  21.114  0.00  0.00    +0.000 A 
ATOM      9  C   UNL     1      -0.984  11.259  22.449  0.00  0.00    +0.000 A 
ATOM     10  C   UNL     1      -0.650  10.089  23.155  0.00  0.00    +0.000 A 
ATOM     11  C   UNL     1       0.094   9.065  22.563  0.00  0.00    +0.000 A 
BRANCH   9  12
ATOM     12  C   UNL     1      -1.746  12.357  23.093  0.00  0.00    +0.000 A 
ATOM     13  C   UNL     1      -3.062  12.170  23.554  0.00  0.00    +0.000 A 
ATOM     14  C   UNL     1      -3.795  13.219  24.121  0.00  0.00    +0.000 A 
ATOM     15  C   UNL     1      -3.222  14.478  24.256  0.00  0.00    +0.000 A 
ATOM     16  C   UNL     1      -1.914  14.688  23.832  0.00  0.00    +0.000 A 
ATOM     17  C   UNL     1      -1.189  13.642  23.252  0.00  0.00    +0.000 A 
ENDBRANCH   9  12
ENDBRANCH   3   6
ENDBRANCH   1   4
BRANCH   1  18
ATOM     18  C   UNL     1       1.134   4.593  20.283  0.00  0.00    +0.000 C 
BRANCH  18  19
ATOM     19  C   UNL     1       1.653   3.201  20.684  0.00  0.00    +0.000 C 
BRANCH  19  20
ATOM     20  N   UNL     1       2.110   2.409  19.527  0.00  0.00    +0.000 NA
ATOM     21  C   UNL     1       2.008   3.133  18.240  0.00  0.00    +0.000 C 
ATOM     22  C   UNL     1       2.996   4.312  18.056  0.00  0.00    +0.000 C 
ATOM     23  N   UNL     1       4.393   3.873  18.302  0.00  0.00    +0.000 N 
ATOM     24  C   UNL     1       4.576   3.119  19.554  0.00  0.00    +0.000 C 
ATOM     25  C   UNL     1       3.525   1.987  19.680  0.00  0.00    +0.000 C 
BRANCH  23  26
ATOM     26  C   UNL     1       5.429   4.586  17.686  0.00  0.00    +0.000 A 
ATOM     27  C   UNL     1       6.078   5.568  18.475  0.00  0.00    +0.000 A 
ATOM     28  C   UNL     1       7.105   6.383  17.998  0.00  0.00    +0.000 A 
ATOM     29  C   UNL     1       7.511   6.269  16.680  0.00  0.00    +0.000 A 
ATOM     30  C   UNL     1       6.895   5.333  15.850  0.00  0.00    +0.000 A 
ATOM     31 CL   UNL     1       7.461   5.280  14.209  0.00  0.00    +0.000 Cl
ATOM     32  C   UNL     1       5.871   4.484  16.338  0.00  0.00    +0.000 A 
ATOM     33 CL   UNL     1       5.251   3.275  15.244  0.00  0.00    +0.000 Cl
ENDBRANCH  23  26
ENDBRANCH  19  20
ENDBRANCH  18  19
ENDBRANCH   1  18
TORSDOF 7
ENDMDL
MODEL 7
REMARK VINA RESULT:      -8.1      1.503      2.002
REMARK  Name = 
REMARK  7 active torsions:
REMARK  status: ('A' for Active; 'I' for Inactive)
REMARK    1  A    between atoms: C_2  and  C_21
REMARK    2  A    between atoms: N_3  and  C_4
REMARK    3  A    between atoms: C_4  and  C_5
REMARK    4  A    between atoms: C_5  and  C_6
REMARK    5  A    between atoms: C_6  and  N_7
REMARK    6  A    between atoms: N_10  and  C_11
REMARK    7  A    between atoms: C_24  and  C_25
REMARK                            x       y       z     vdW  Elec       q    Type
REMARK                         _______ _______ _______ _____ _____    ______ ____
ROOT
ATOM      1  C   UNL     1       2.052   5.088  20.975  0.00  0.00    +0.000 C 
ENDROOT
BRANCH   1   4
ATOM      2  O   UNL     1       2.789   6.951  18.939  0.00  0.00    +0.000 OA
ATOM      3  C   UNL     1       2.010   7.286  19.822  0.00  0.00    +0.000 C 
ATOM      4  N   UNL     1       1.570   6.442  20.826  0.00  0.00    +0.000 N 
ATOM      5  H   UNL     1       0.810   6.748  21.421  0.00  0.00    +0.000 HD
BRANCH   3   6
ATOM      6  C   UNL     1       1.463   8.666  19.872  0.00  0.00    +0.000 A 
ATOM      7  C   UNL     1       1.458   9.444  18.712  0.00  0.00    +0.000 A 
ATOM      8  C   UNL     1       0.948  10.748  18.748  0.00  0.00    +0.000 A 
ATOM      9  C   UNL     1       0.433  11.309  19.935  0.00  0.00    +0.000 A 
ATOM     10  C   UNL     1       0.461  10.506  21.088  0.00  0.00    +0.000 A 
ATOM     11  C   UNL     1       0.981   9.209  21.064  0.00  0.00    +0.000 A 
BRANCH   9  12
ATOM     12  C   UNL     1      -0.090  12.697  19.973  0.00  0.00    +0.000 A 
ATOM     13  C   UNL     1       0.191  13.619  18.947  0.00  0.00    +0.000 A 
ATOM     14  C   UNL     1      -0.266  14.940  19.005  0.00  0.00    +0.000 A 
ATOM     15  C   UNL     1      -1.032  15.368  20.084  0.00  0.00    +0.000 A 
ATOM     16  C   UNL     1      -1.346  14.474  21.102  0.00  0.00    +0.000 A 
ATOM     17  C   UNL     1      -0.876  13.157  21.047  0.00  0.00    +0.000 A 
ENDBRANCH   9  12
ENDBRANCH   3   6
ENDBRANCH   1   4
BRANCH   1  18
ATOM     18  C   UNL     1       1.088   4.056  20.395  0.00  0.00    +0.000 C 
BRANCH  18  19
ATOM     19  C   UNL     1       1.574   2.608  20.583  0.00  0.00    +0.000 C 
BRANCH  19  20
ATOM     20  N   UNL     1       1.828   1.924  19.302  0.00  0.00    +0.000 NA
ATOM     21  C   UNL     1       1.553   2.767  18.118  0.00  0.00    +0.000 C 
ATOM     22  C   UNL     1       2.534   3.944  17.893  0.00  0.00    +0.000 C 
ATOM     23  N   UNL     1       3.939   3.466  17.880  0.00  0.00    +0.000 N 
ATOM     24  C   UNL     1       4.288   2.595  19.015  0.00  0.00    +0.000 C 
ATOM     25  C   UNL     1       3.237   1.469  19.197  0.00  0.00    +0.000 C 
BRANCH  23  26
ATOM     26  C   UNL     1       4.890   4.220  17.181  0.00  0.00    +0.000 A 
ATOM     27  C   UNL     1       5.028   3.940  15.799  0.00  0.00    +0.000 A 
ATOM     28  C   UNL     1       5.953   4.580  14.973  0.00  0.00    +0.000 A 
ATOM     29  C   UNL     1       6.813   5.520  15.512  0.00  0.00    +0.000 A 
ATOM     30  C   UNL     1       6.736   5.824  16.871  0.00  0.00    +0.000 A 
ATOM     31 CL   UNL     1       7.871   7.002  17.454  0.00  0.00    +0.000 Cl
ATOM     32  C   UNL     1       5.780   5.196  17.707  0.00  0.00    +0.000 A 
ATOM     33 CL   UNL     1       5.698   5.735  19.365  0.00  0.00    +0.000 Cl
ENDBRANCH  23  26
ENDBRANCH  19  20
ENDBRANCH  18  19
ENDBRANCH   1  18
TORSDOF 7
ENDMDL
MODEL 8
REMARK VINA RESULT:      -8.0      4.511     11.310
REMARK  Name = 
REMARK  7 active torsions:
REMARK  status: ('A' for Active; 'I' for Inactive)
REMARK    1  A    between atoms: C_2  and  C_21
REMARK    2  A    between atoms: N_3  and  C_4
REMARK    3  A    between atoms: C_4  and  C_5
REMARK    4  A    between atoms: C_5  and  C_6
REMARK    5  A    between atoms: C_6  and  N_7
REMARK    6  A    between atoms: N_10  and  C_11
REMARK    7  A    between atoms: C_24  and  C_25
REMARK                            x       y       z     vdW  Elec       q    Type
REMARK                         _______ _______ _______ _____ _____    ______ ____
ROOT
ATOM      1  C   UNL     1       1.408   6.967  20.367  0.00  0.00    +0.000 C 
ENDROOT
BRANCH   1   4
ATOM      2  O   UNL     1       3.260   4.796  20.272  0.00  0.00    +0.000 OA
ATOM      3  C   UNL     1       3.082   5.492  19.281  0.00  0.00    +0.000 C 
ATOM      4  N   UNL     1       2.181   6.539  19.224  0.00  0.00    +0.000 N 
ATOM      5  H   UNL     1       1.980   6.961  18.325  0.00  0.00    +0.000 HD
BRANCH   3   6
ATOM      6  C   UNL     1       3.842   5.244  18.030  0.00  0.00    +0.000 A 
ATOM      7  C   UNL     1       4.525   6.300  17.421  0.00  0.00    +0.000 A 
ATOM      8  C   UNL     1       5.241   6.079  16.238  0.00  0.00    +0.000 A 
ATOM      9  C   UNL     1       5.296   4.807  15.632  0.00  0.00    +0.000 A 
ATOM     10  C   UNL     1       4.591   3.766  16.262  0.00  0.00    +0.000 A 
ATOM     11  C   UNL     1       3.862   3.981  17.434  0.00  0.00    +0.000 A 
BRANCH   9  12
ATOM     12  C   UNL     1       6.042   4.581  14.369  0.00  0.00    +0.000 A 
ATOM     13  C   UNL     1       7.217   5.294  14.070  0.00  0.00    +0.000 A 
ATOM     14  C   UNL     1       7.896   5.112  12.860  0.00  0.00    +0.000 A 
ATOM     15  C   UNL     1       7.423   4.197  11.925  0.00  0.00    +0.000 A 
ATOM     16  C   UNL     1       6.278   3.459  12.203  0.00  0.00    +0.000 A 
ATOM     17  C   UNL     1       5.594   3.654  13.407  0.00  0.00    +0.000 A 
ENDBRANCH   9  12
ENDBRANCH   3   6
ENDBRANCH   1   4
BRANCH   1  18
ATOM     18  C   UNL     1       1.746   8.390  20.805  0.00  0.00    +0.000 C 
BRANCH  18  19
ATOM     19  C   UNL     1       0.517   9.315  20.844  0.00  0.00    +0.000 C 
BRANCH  19  20
ATOM     20  N   UNL     1       0.668  10.499  19.978  0.00  0.00    +0.000 NA
ATOM     21  C   UNL     1       0.147  10.297  18.608  0.00  0.00    +0.000 C 
ATOM     22  C   UNL     1      -1.393  10.179  18.490  0.00  0.00    +0.000 C 
ATOM     23  N   UNL     1      -2.062  11.333  19.140  0.00  0.00    +0.000 N 
ATOM     24  C   UNL     1      -1.579  11.620  20.502  0.00  0.00    +0.000 C 
ATOM     25  C   UNL     1      -0.031  11.680  20.542  0.00  0.00    +0.000 C 
BRANCH  23  26
ATOM     26  C   UNL     1      -3.340  11.696  18.696  0.00  0.00    +0.000 A 
ATOM     27  C   UNL     1      -3.641  11.418  17.339  0.00  0.00    +0.000 A 
ATOM     28  C   UNL     1      -4.856  11.748  16.738  0.00  0.00    +0.000 A 
ATOM     29  C   UNL     1      -5.825  12.409  17.472  0.00  0.00    +0.000 A 
ATOM     30  C   UNL     1      -5.577  12.725  18.808  0.00  0.00    +0.000 A 
ATOM     31 CL   UNL     1      -6.846  13.570  19.639  0.00  0.00    +0.000 Cl
ATOM     32  C   UNL     1      -4.355  12.367  19.430  0.00  0.00    +0.000 A 
ATOM     33 CL   UNL     1      -4.200  12.712  21.133  0.00  0.00    +0.000 Cl
ENDBRANCH  23  26
ENDBRANCH  19  20
ENDBRANCH  18  19
ENDBRANCH   1  18
TORSDOF 7
ENDMDL
MODEL 9
REMARK VINA RESULT:      -8.0      4.315     11.341
REMARK  Name = 
REMARK  7 active torsions:
REMARK  status: ('A' for Active; 'I' for Inactive)
REMARK    1  A    between atoms: C_2  and  C_21
REMARK    2  A    between atoms: N_3  and  C_4
REMARK    3  A    between atoms: C_4  and  C_5
REMARK    4  A    between atoms: C_5  and  C_6
REMARK    5  A    between atoms: C_6  and  N_7
REMARK    6  A    between atoms: N_10  and  C_11
REMARK    7  A    between atoms: C_24  and  C_25
REMARK                            x       y       z     vdW  Elec       q    Type
REMARK                         _______ _______ _______ _____ _____    ______ ____
ROOT
ATOM      1  C   UNL     1       1.616   7.396  20.719  0.00  0.00    +0.000 C 
ENDROOT
BRANCH   1   4
ATOM      2  O   UNL     1       2.977   4.906  20.395  0.00  0.00    +0.000 OA
ATOM      3  C   UNL     1       2.978   5.728  19.487  0.00  0.00    +0.000 C 
ATOM      4  N   UNL     1       2.318   6.941  19.541  0.00  0.00    +0.000 N 
ATOM      5  H   UNL     1       2.237   7.490  18.693  0.00  0.00    +0.000 HD
BRANCH   3   6
ATOM      6  C   UNL     1       3.708   5.462  18.221  0.00  0.00    +0.000 A 
ATOM      7  C   UNL     1       3.868   4.145  17.784  0.00  0.00    +0.000 A 
ATOM      8  C   UNL     1       4.558   3.882  16.594  0.00  0.00    +0.000 A 
ATOM      9  C   UNL     1       5.107   4.919  15.812  0.00  0.00    +0.000 A 
ATOM     10  C   UNL     1       4.939   6.234  16.282  0.00  0.00    +0.000 A 
ATOM     11  C   UNL     1       4.265   6.503  17.475  0.00  0.00    +0.000 A 
BRANCH   9  12
ATOM     12  C   UNL     1       5.853   4.635  14.561  0.00  0.00    +0.000 A 
ATOM     13  C   UNL     1       7.085   5.255  14.281  0.00  0.00    +0.000 A 
ATOM     14  C   UNL     1       7.766   5.020  13.081  0.00  0.00    +0.000 A 
ATOM     15  C   UNL     1       7.239   4.144  12.139  0.00  0.00    +0.000 A 
ATOM     16  C   UNL     1       6.035   3.498  12.397  0.00  0.00    +0.000 A 
ATOM     17  C   UNL     1       5.350   3.746  13.591  0.00  0.00    +0.000 A 
ENDBRANCH   9  12
ENDBRANCH   3   6
ENDBRANCH   1   4
BRANCH   1  18
ATOM     18  C   UNL     1       1.594   8.918  20.837  0.00  0.00    +0.000 C 
BRANCH  18  19
ATOM     19  C   UNL     1       0.833   9.599  19.687  0.00  0.00    +0.000 C 
BRANCH  19  20
ATOM     20  N   UNL     1      -0.553   9.947  20.049  0.00  0.00    +0.000 NA
ATOM     21  C   UNL     1      -0.648  10.849  21.218  0.00  0.00    +0.000 C 
ATOM     22  C   UNL     1      -0.150  12.298  20.987  0.00  0.00    +0.000 C 
ATOM     23  N   UNL     1      -0.814  12.901  19.805  0.00  0.00    +0.000 N 
ATOM     24  C   UNL     1      -0.788  12.053  18.601  0.00  0.00    +0.000 C 
ATOM     25  C   UNL     1      -1.260  10.612  18.925  0.00  0.00    +0.000 C 
BRANCH  23  26
ATOM     26  C   UNL     1      -0.927  14.296  19.748  0.00  0.00    +0.000 A 
ATOM     27  C   UNL     1      -0.137  14.956  18.774  0.00  0.00    +0.000 A 
ATOM     28  C   UNL     1      -0.112  16.343  18.614  0.00  0.00    +0.000 A 
ATOM     29  C   UNL     1      -0.865  17.141  19.456  0.00  0.00    +0.000 A 
ATOM     30  C   UNL     1      -1.648  16.548  20.446  0.00  0.00    +0.000 A 
ATOM     31 CL   UNL     1      -2.542  17.635  21.464  0.00  0.00    +0.000 Cl
ATOM     32  C   UNL     1      -1.698  15.139  20.595  0.00  0.00    +0.000 A 
ATOM     33 CL   UNL     1      -2.797  14.504  21.791  0.00  0.00    +0.000 Cl
ENDBRANCH  23  26
ENDBRANCH  19  20
ENDBRANCH  18  19
ENDBRANCH   1  18
TORSDOF 7
ENDMDL
