MODEL 1
REMARK VINA RESULT:      -9.9      0.000      0.000
REMARK  Name = 
REMARK  7 active torsions:
REMARK  status: ('A' for Active; 'I' for Inactive)
REMARK    1  A    between atoms: C_2  and  C_4
REMARK    2  A    between atoms: C_8  and  O_9
REMARK    3  A    between atoms: O_9  and  C_10
REMARK    4  A    between atoms: C_13  and  C_14
REMARK    5  A    between atoms: C_18  and  O_19
REMARK    6  A    between atoms: O_19  and  C_20
REMARK    7  A    between atoms: C_24  and  C_25
REMARK                            x       y       z     vdW  Elec       q    Type
REMARK                         _______ _______ _______ _____ _____    ______ ____
ROOT
ATOM      1  C   UNL     1       2.216   6.977  19.334  0.00  0.00    +0.000 A 
ATOM      2  C   UNL     1       1.655   6.619  20.541  0.00  0.00    +0.000 A 
ATOM      3  C   UNL     1       1.652   5.268  20.884  0.00  0.00    +0.000 A 
ATOM      4  C   UNL     1       2.232   4.312  20.030  0.00  0.00    +0.000 A 
ATOM      5  C   UNL     1       2.785   4.770  18.846  0.00  0.00    +0.000 A 
ATOM      6  N   UNL     1       2.769   6.078  18.499  0.00  0.00    +0.000 NA
ENDROOT
BRANCH   4   7
ATOM      7  C   UNL     1       2.288   2.868  20.403  0.00  0.00    +0.000 C 
ATOM      8  F   UNL     1       1.644   2.065  19.504  0.00  0.00    +0.000 F 
ATOM      9  F   UNL     1       3.552   2.374  20.487  0.00  0.00    +0.000 F 
ATOM     10  F   UNL     1       1.694   2.607  21.601  0.00  0.00    +0.000 F 
ENDBRANCH   4   7
BRANCH   1  11
ATOM     11  O   UNL     1       2.276   8.329  19.020  0.00  0.00    +0.000 OA
BRANCH  11  16
ATOM     12  C   UNL     1      -0.073  10.181  21.194  0.00  0.00    +0.000 A 
ATOM     13  C   UNL     1      -0.876  10.791  20.225  0.00  0.00    +0.000 A 
ATOM     14  C   UNL     1      -0.612  10.578  18.870  0.00  0.00    +0.000 A 
ATOM     15  C   UNL     1       0.444   9.744  18.485  0.00  0.00    +0.000 A 
ATOM     16  C   UNL     1       1.240   9.130  19.454  0.00  0.00    +0.000 A 
ATOM     17  C   UNL     1       1.005   9.384  20.807  0.00  0.00    +0.000 A 
BRANCH  12  19
ATOM     18  N   UNL     1       0.368   9.706  23.510  0.00  0.00    +0.000 NA
ATOM     19  C   UNL     1      -0.365  10.327  22.645  0.00  0.00    +0.000 C 
ATOM     20  N   UNL     1      -1.426  11.081  23.057  0.00  0.00    +0.000 N 
ATOM     21  H   UNL     1       0.051   9.923  24.455  0.00  0.00    +0.000 HD
ATOM     22  H   UNL     1      -1.788  10.842  23.971  0.00  0.00    +0.000 HD
ATOM     23  H   UNL     1      -2.175  11.161  22.376  0.00  0.00    +0.000 HD
ENDBRANCH  12  19
ENDBRANCH  11  16
ENDBRANCH   1  11
BRANCH   5  24
ATOM     24  O   UNL     1       3.411   3.873  17.976  0.00  0.00    +0.000 OA
BRANCH  24  25
ATOM     25  C   UNL     1       4.734   4.138  17.662  0.00  0.00    +0.000 A 
ATOM     26  C   UNL     1       5.178   3.904  16.360  0.00  0.00    +0.000 A 
ATOM     27  C   UNL     1       6.488   4.244  15.998  0.00  0.00    +0.000 A 
ATOM     28  C   UNL     1       7.344   4.840  16.930  0.00  0.00    +0.000 A 
ATOM     29  C   UNL     1       6.902   5.059  18.239  0.00  0.00    +0.000 A 
ATOM     30  C   UNL     1       5.628   4.634  18.616  0.00  0.00    +0.000 A 
BRANCH  29  31
ATOM     31  C   UNL     1       7.745   5.800  19.218  0.00  0.00    +0.000 C 
ATOM     32  N   UNL     1       7.967   5.367  20.421  0.00  0.00    +0.000 NA
ATOM     33  N   UNL     1       8.318   6.987  18.886  0.00  0.00    +0.000 N 
ATOM     34  H   UNL     1       7.435   4.507  20.603  0.00  0.00    +0.000 HD
ATOM     35  H   UNL     1       8.700   7.039  17.949  0.00  0.00    +0.000 HD
ATOM     36  H   UNL     1       8.999   7.249  19.594  0.00  0.00    +0.000 HD
ENDBRANCH  29  31
ENDBRANCH  24  25
ENDBRANCH   5  24
TORSDOF 7
ENDMDL
MODEL 2
REMARK VINA RESULT:      -9.9      3.031      6.517
REMARK  Name = 
REMARK  7 active torsions:
REMARK  status: ('A' for Active; 'I' for Inactive)
REMARK    1  A    between atoms: C_2  and  C_4
REMARK    2  A    between atoms: C_8  and  O_9
REMARK    3  A    between atoms: O_9  and  C_10
REMARK    4  A    between atoms: C_13  and  C_14
REMARK    5  A    between atoms: C_18  and  O_19
REMARK    6  A    between atoms: O_19  and  C_20
REMARK    7  A    between atoms: C_24  and  C_25
REMARK                            x       y       z     vdW  Elec       q    Type
REMARK                         _______ _______ _______ _____ _____    ______ ____
ROOT
ATOM      1  C   UNL     1       3.062   7.547  17.670  0.00  0.00    +0.000 A 
ATOM      2  C   UNL     1       2.431   8.771  17.713  0.00  0.00    +0.000 A 
ATOM      3  C   UNL     1       1.663   9.069  18.838  0.00  0.00    +0.000 A 
ATOM      4  C   UNL     1       1.567   8.153  19.902  0.00  0.00    +0.000 A 
ATOM      5  C   UNL     1       2.251   6.956  19.773  0.00  0.00    +0.000 A 
ATOM      6  N   UNL     1       2.978   6.654  18.672  0.00  0.00    +0.000 NA
ENDROOT
BRANCH   4   7
ATOM      7  C   UNL     1       0.796   8.476  21.138  0.00  0.00    +0.000 C 
ATOM      8  F   UNL     1       1.581   8.515  22.255  0.00  0.00    +0.000 F 
ATOM      9  F   UNL     1       0.172   9.683  21.093  0.00  0.00    +0.000 F 
ATOM     10  F   UNL     1      -0.170   7.555  21.415  0.00  0.00    +0.000 F 
ENDBRANCH   4   7
BRANCH   1  11
ATOM     11  O   UNL     1       3.877   7.274  16.578  0.00  0.00    +0.000 OA
BRANCH  11  16
ATOM     12  C   UNL     1       6.989   5.843  17.971  0.00  0.00    +0.000 A 
ATOM     13  C   UNL     1       7.142   4.728  17.140  0.00  0.00    +0.000 A 
ATOM     14  C   UNL     1       6.199   4.475  16.141  0.00  0.00    +0.000 A 
ATOM     15  C   UNL     1       5.116   5.342  15.962  0.00  0.00    +0.000 A 
ATOM     16  C   UNL     1       4.971   6.459  16.788  0.00  0.00    +0.000 A 
ATOM     17  C   UNL     1       5.886   6.683  17.819  0.00  0.00    +0.000 A 
BRANCH  12  19
ATOM     18  N   UNL     1       8.326   5.312  19.899  0.00  0.00    +0.000 NA
ATOM     19  C   UNL     1       8.008   6.185  19.000  0.00  0.00    +0.000 C 
ATOM     20  N   UNL     1       8.572   7.429  19.018  0.00  0.00    +0.000 N 
ATOM     21  H   UNL     1       9.044   5.693  20.514  0.00  0.00    +0.000 HD
ATOM     22  H   UNL     1       8.940   7.715  19.916  0.00  0.00    +0.000 HD
ATOM     23  H   UNL     1       7.996   8.158  18.609  0.00  0.00    +0.000 HD
ENDBRANCH  12  19
ENDBRANCH  11  16
ENDBRANCH   1  11
BRANCH   5  24
ATOM     24  O   UNL     1       2.225   6.024  20.813  0.00  0.00    +0.000 OA
BRANCH  24  25
ATOM     25  C   UNL     1       2.020   4.701  20.452  0.00  0.00    +0.000 A 
ATOM     26  C   UNL     1       0.715   4.252  20.251  0.00  0.00    +0.000 A 
ATOM     27  C   UNL     1       0.488   2.944  19.804  0.00  0.00    +0.000 A 
ATOM     28  C   UNL     1       1.567   2.095  19.534  0.00  0.00    +0.000 A 
ATOM     29  C   UNL     1       2.874   2.542  19.752  0.00  0.00    +0.000 A 
ATOM     30  C   UNL     1       3.088   3.814  20.284  0.00  0.00    +0.000 A 
BRANCH  29  31
ATOM     31  C   UNL     1       4.044   1.708  19.360  0.00  0.00    +0.000 C 
ATOM     32  N   UNL     1       4.027   0.914  18.334  0.00  0.00    +0.000 NA
ATOM     33  N   UNL     1       5.195   1.739  20.083  0.00  0.00    +0.000 N 
ATOM     34  H   UNL     1       3.097   0.901  17.898  0.00  0.00    +0.000 HD
ATOM     35  H   UNL     1       5.480   2.656  20.407  0.00  0.00    +0.000 HD
ATOM     36  H   UNL     1       5.933   1.264  19.572  0.00  0.00    +0.000 HD
ENDBRANCH  29  31
ENDBRANCH  24  25
ENDBRANCH   5  24
TORSDOF 7
ENDMDL
MODEL 3
REMARK VINA RESULT:      -9.8      1.767      2.280
REMARK  Name = 
REMARK  7 active torsions:
REMARK  status: ('A' for Active; 'I' for Inactive)
REMARK    1  A    between atoms: C_2  and  C_4
REMARK    2  A    between atoms: C_8  and  O_9
REMARK    3  A    between atoms: O_9  and  C_10
REMARK    4  A    between atoms: C_13  and  C_14
REMARK    5  A    between atoms: C_18  and  O_19
REMARK    6  A    between atoms: O_19  and  C_20
REMARK    7  A    between atoms: C_24  and  C_25
REMARK                            x       y       z     vdW  Elec       q    Type
REMARK                         _______ _______ _______ _____ _____    ______ ____
ROOT
ATOM      1  C   UNL     1       2.222   7.402  19.101  0.00  0.00    +0.000 A 
ATOM      2  C   UNL     1       1.741   7.094  20.355  0.00  0.00    +0.000 A 
ATOM      3  C   UNL     1       1.758   5.757  20.751  0.00  0.00    +0.000 A 
ATOM      4  C   UNL     1       2.279   4.766  19.899  0.00  0.00    +0.000 A 
ATOM      5  C   UNL     1       2.754   5.175  18.664  0.00  0.00    +0.000 A 
ATOM      6  N   UNL     1       2.717   6.468  18.268  0.00  0.00    +0.000 NA
ENDROOT
BRANCH   4   7
ATOM      7  C   UNL     1       2.357   3.338  20.324  0.00  0.00    +0.000 C 
ATOM      8  F   UNL     1       1.710   2.495  19.465  0.00  0.00    +0.000 F 
ATOM      9  F   UNL     1       3.627   2.861  20.408  0.00  0.00    +0.000 F 
ATOM     10  F   UNL     1       1.783   3.115  21.540  0.00  0.00    +0.000 F 
ENDBRANCH   4   7
BRANCH   1  11
ATOM     11  O   UNL     1       2.263   8.740  18.730  0.00  0.00    +0.000 OA
BRANCH  11  16
ATOM     12  C   UNL     1      -0.998  10.426  18.294  0.00  0.00    +0.000 A 
ATOM     13  C   UNL     1      -1.124  11.046  19.542  0.00  0.00    +0.000 A 
ATOM     14  C   UNL     1      -0.124  10.880  20.502  0.00  0.00    +0.000 A 
ATOM     15  C   UNL     1       1.008  10.110  20.210  0.00  0.00    +0.000 A 
ATOM     16  C   UNL     1       1.134   9.499  18.961  0.00  0.00    +0.000 A 
ATOM     17  C   UNL     1       0.110   9.625  18.020  0.00  0.00    +0.000 A 
BRANCH  12  19
ATOM     18  N   UNL     1      -2.369   9.638  16.482  0.00  0.00    +0.000 NA
ATOM     19  C   UNL     1      -2.008  10.635  17.222  0.00  0.00    +0.000 C 
ATOM     20  N   UNL     1      -2.519  11.881  16.996  0.00  0.00    +0.000 N 
ATOM     21  H   UNL     1      -3.075   9.941  15.811  0.00  0.00    +0.000 HD
ATOM     22  H   UNL     1      -2.881  12.029  16.062  0.00  0.00    +0.000 HD
ATOM     23  H   UNL     1      -1.909  12.643  17.277  0.00  0.00    +0.000 HD
ENDBRANCH  12  19
ENDBRANCH  11  16
ENDBRANCH   1  11
BRANCH   5  24
ATOM     24  O   UNL     1       3.319   4.242  17.791  0.00  0.00    +0.000 OA
BRANCH  24  25
ATOM     25  C   UNL     1       4.676   4.375  17.538  0.00  0.00    +0.000 A 
ATOM     26  C   UNL     1       5.161   4.050  16.271  0.00  0.00    +0.000 A 
ATOM     27  C   UNL     1       6.512   4.256  15.967  0.00  0.00    +0.000 A 
ATOM     28  C   UNL     1       7.372   4.811  16.921  0.00  0.00    +0.000 A 
ATOM     29  C   UNL     1       6.887   5.122  18.196  0.00  0.00    +0.000 A 
ATOM     30  C   UNL     1       5.563   4.827  18.520  0.00  0.00    +0.000 A 
BRANCH  29  31
ATOM     31  C   UNL     1       7.744   5.823  19.191  0.00  0.00    +0.000 C 
ATOM     32  N   UNL     1       7.969   5.352  20.379  0.00  0.00    +0.000 NA
ATOM     33  N   UNL     1       8.329   7.014  18.891  0.00  0.00    +0.000 N 
ATOM     34  H   UNL     1       7.429   4.493  20.539  0.00  0.00    +0.000 HD
ATOM     35  H   UNL     1       8.705   7.089  17.954  0.00  0.00    +0.000 HD
ATOM     36  H   UNL     1       9.016   7.247  19.602  0.00  0.00    +0.000 HD
ENDBRANCH  29  31
ENDBRANCH  24  25
ENDBRANCH   5  24
TORSDOF 7
ENDMDL
MODEL 4
REMARK VINA RESULT:      -9.7      1.646      2.299
REMARK  Name = 
REMARK  7 active torsions:
REMARK  status: ('A' for Active; 'I' for Inactive)
REMARK    1  A    between atoms: C_2  and  C_4
REMARK    2  A    between atoms: C_8  and  O_9
REMARK    3  A    between atoms: O_9  and  C_10
REMARK    4  A    between atoms: C_13  and  C_14
REMARK    5  A    between atoms: C_18  and  O_19
REMARK    6  A    between atoms: O_19  and  C_20
REMARK    7  A    between atoms: C_24  and  C_25
REMARK                            x       y       z     vdW  Elec       q    Type
REMARK                         _______ _______ _______ _____ _____    ______ ____
ROOT
ATOM      1  C   UNL     1       2.217   6.924  19.315  0.00  0.00    +0.000 A 
ATOM      2  C   UNL     1       1.599   6.476  20.462  0.00  0.00    +0.000 A 
ATOM      3  C   UNL     1       1.521   5.099  20.666  0.00  0.00    +0.000 A 
ATOM      4  C   UNL     1       2.085   4.206  19.737  0.00  0.00    +0.000 A 
ATOM      5  C   UNL     1       2.699   4.752  18.622  0.00  0.00    +0.000 A 
ATOM      6  N   UNL     1       2.756   6.087  18.409  0.00  0.00    +0.000 NA
ENDROOT
BRANCH   4   7
ATOM      7  C   UNL     1       2.062   2.731  19.963  0.00  0.00    +0.000 C 
ATOM      8  F   UNL     1       1.431   2.385  21.125  0.00  0.00    +0.000 F 
ATOM      9  F   UNL     1       1.419   2.039  18.985  0.00  0.00    +0.000 F 
ATOM     10  F   UNL     1       3.308   2.190  20.061  0.00  0.00    +0.000 F 
ENDBRANCH   4   7
BRANCH   1  11
ATOM     11  O   UNL     1       2.349   8.296  19.141  0.00  0.00    +0.000 OA
BRANCH  11  16
ATOM     12  C   UNL     1      -0.125  10.203  21.120  0.00  0.00    +0.000 A 
ATOM     13  C   UNL     1      -0.914  10.726  20.090  0.00  0.00    +0.000 A 
ATOM     14  C   UNL     1      -0.598  10.438  18.760  0.00  0.00    +0.000 A 
ATOM     15  C   UNL     1       0.494   9.617  18.461  0.00  0.00    +0.000 A 
ATOM     16  C   UNL     1       1.276   9.089  19.492  0.00  0.00    +0.000 A 
ATOM     17  C   UNL     1       0.988   9.419  20.818  0.00  0.00    +0.000 A 
BRANCH  12  19
ATOM     18  N   UNL     1      -0.679  11.633  22.973  0.00  0.00    +0.000 NA
ATOM     19  C   UNL     1      -0.470  10.429  22.549  0.00  0.00    +0.000 C 
ATOM     20  N   UNL     1      -0.524   9.375  23.415  0.00  0.00    +0.000 N 
ATOM     21  H   UNL     1      -0.919  11.616  23.964  0.00  0.00    +0.000 HD
ATOM     22  H   UNL     1      -0.385   9.617  24.388  0.00  0.00    +0.000 HD
ATOM     23  H   UNL     1       0.051   8.582  23.149  0.00  0.00    +0.000 HD
ENDBRANCH  12  19
ENDBRANCH  11  16
ENDBRANCH   1  11
BRANCH   5  24
ATOM     24  O   UNL     1       3.312   3.916  17.684  0.00  0.00    +0.000 OA
BRANCH  24  25
ATOM     25  C   UNL     1       4.624   4.216  17.354  0.00  0.00    +0.000 A 
ATOM     26  C   UNL     1       5.567   4.331  18.376  0.00  0.00    +0.000 A 
ATOM     27  C   UNL     1       6.914   4.550  18.061  0.00  0.00    +0.000 A 
ATOM     28  C   UNL     1       7.321   4.628  16.724  0.00  0.00    +0.000 A 
ATOM     29  C   UNL     1       6.372   4.528  15.702  0.00  0.00    +0.000 A 
ATOM     30  C   UNL     1       5.021   4.403  16.026  0.00  0.00    +0.000 A 
BRANCH  29  31
ATOM     31  C   UNL     1       6.788   4.485  14.273  0.00  0.00    +0.000 C 
ATOM     32  N   UNL     1       6.326   3.609  13.434  0.00  0.00    +0.000 NA
ATOM     33  N   UNL     1       7.692   5.374  13.783  0.00  0.00    +0.000 N 
ATOM     34  H   UNL     1       5.711   2.937  13.910  0.00  0.00    +0.000 HD
ATOM     35  H   UNL     1       7.590   6.326  14.115  0.00  0.00    +0.000 HD
ATOM     36  H   UNL     1       7.711   5.320  12.769  0.00  0.00    +0.000 HD
ENDBRANCH  29  31
ENDBRANCH  24  25
ENDBRANCH   5  24
TORSDOF 7
ENDMDL
MODEL 5
REMARK VINA RESULT:      -9.7      1.932      2.577
REMARK  Name = 
REMARK  7 active torsions:
REMARK  status: ('A' for Active; 'I' for Inactive)
REMARK    1  A    between atoms: C_2  and  C_4
REMARK    2  A    between atoms: C_8  and  O_9
REMARK    3  A    between atoms: O_9  and  C_10
REMARK    4  A    between atoms: C_13  and  C_14
REMARK    5  A    between atoms: C_18  and  O_19
REMARK    6  A    between atoms: O_19  and  C_20
REMARK    7  A    between atoms: C_24  and  C_25
REMARK                            x       y       z     vdW  Elec       q    Type
REMARK                         _______ _______ _______ _____ _____    ______ ____
ROOT
ATOM      1  C   UNL     1       2.226   7.655  18.886  0.00  0.00    +0.000 A 
ATOM      2  C   UNL     1       1.762   7.492  20.173  0.00  0.00    +0.000 A 
ATOM      3  C   UNL     1       1.753   6.203  20.705  0.00  0.00    +0.000 A 
ATOM      4  C   UNL     1       2.232   5.116  19.951  0.00  0.00    +0.000 A 
ATOM      5  C   UNL     1       2.693   5.382  18.674  0.00  0.00    +0.000 A 
ATOM      6  N   UNL     1       2.681   6.628  18.146  0.00  0.00    +0.000 NA
ENDROOT
BRANCH   4   7
ATOM      7  C   UNL     1       2.281   3.737  20.522  0.00  0.00    +0.000 C 
ATOM      8  F   UNL     1       1.801   3.677  21.799  0.00  0.00    +0.000 F 
ATOM      9  F   UNL     1       1.553   2.829  19.819  0.00  0.00    +0.000 F 
ATOM     10  F   UNL     1       3.548   3.239  20.595  0.00  0.00    +0.000 F 
ENDBRANCH   4   7
BRANCH   1  11
ATOM     11  O   UNL     1       2.294   8.947  18.378  0.00  0.00    +0.000 OA
BRANCH  11  16
ATOM     12  C   UNL     1      -1.107  10.338  17.969  0.00  0.00    +0.000 A 
ATOM     13  C   UNL     1      -1.046  11.407  18.869  0.00  0.00    +0.000 A 
ATOM     14  C   UNL     1       0.124  11.634  19.597  0.00  0.00    +0.000 A 
ATOM     15  C   UNL     1       1.236  10.804  19.414  0.00  0.00    +0.000 A 
ATOM     16  C   UNL     1       1.174   9.742  18.509  0.00  0.00    +0.000 A 
ATOM     17  C   UNL     1      -0.013   9.487  17.820  0.00  0.00    +0.000 A 
BRANCH  12  19
ATOM     18  N   UNL     1      -2.300  10.470  15.885  0.00  0.00    +0.000 NA
ATOM     19  C   UNL     1      -2.310  10.106  17.126  0.00  0.00    +0.000 C 
ATOM     20  N   UNL     1      -3.431   9.548  17.671  0.00  0.00    +0.000 N 
ATOM     21  H   UNL     1      -3.187  10.227  15.444  0.00  0.00    +0.000 HD
ATOM     22  H   UNL     1      -4.292   9.761  17.182  0.00  0.00    +0.000 HD
ATOM     23  H   UNL     1      -3.531   9.695  18.670  0.00  0.00    +0.000 HD
ENDBRANCH  12  19
ENDBRANCH  11  16
ENDBRANCH   1  11
BRANCH   5  24
ATOM     24  O   UNL     1       3.217   4.348  17.892  0.00  0.00    +0.000 OA
BRANCH  24  25
ATOM     25  C   UNL     1       4.562   4.440  17.568  0.00  0.00    +0.000 A 
ATOM     26  C   UNL     1       4.974   4.067  16.289  0.00  0.00    +0.000 A 
ATOM     27  C   UNL     1       6.312   4.231  15.911  0.00  0.00    +0.000 A 
ATOM     28  C   UNL     1       7.233   4.792  16.804  0.00  0.00    +0.000 A 
ATOM     29  C   UNL     1       6.821   5.151  18.091  0.00  0.00    +0.000 A 
ATOM     30  C   UNL     1       5.508   4.899  18.490  0.00  0.00    +0.000 A 
BRANCH  29  31
ATOM     31  C   UNL     1       7.743   5.859  19.021  0.00  0.00    +0.000 C 
ATOM     32  N   UNL     1       8.206   7.047  18.780  0.00  0.00    +0.000 NA
ATOM     33  N   UNL     1       8.153   5.273  20.177  0.00  0.00    +0.000 N 
ATOM     34  H   UNL     1       7.903   7.376  17.854  0.00  0.00    +0.000 HD
ATOM     35  H   UNL     1       7.441   4.756  20.679  0.00  0.00    +0.000 HD
ATOM     36  H   UNL     1       8.615   5.961  20.765  0.00  0.00    +0.000 HD
ENDBRANCH  29  31
ENDBRANCH  24  25
ENDBRANCH   5  24
TORSDOF 7
ENDMDL
MODEL 6
REMARK VINA RESULT:      -9.7      2.457      3.230
REMARK  Name = 
REMARK  7 active torsions:
REMARK  status: ('A' for Active; 'I' for Inactive)
REMARK    1  A    between atoms: C_2  and  C_4
REMARK    2  A    between atoms: C_8  and  O_9
REMARK    3  A    between atoms: O_9  and  C_10
REMARK    4  A    between atoms: C_13  and  C_14
REMARK    5  A    between atoms: C_18  and  O_19
REMARK    6  A    between atoms: O_19  and  C_20
REMARK    7  A    between atoms: C_24  and  C_25
REMARK                            x       y       z     vdW  Elec       q    Type
REMARK                         _______ _______ _______ _____ _____    ______ ____
ROOT
ATOM      1  C   UNL     1       2.182   7.816  18.960  0.00  0.00    +0.000 A 
ATOM      2  C   UNL     1       1.694   7.610  20.232  0.00  0.00    +0.000 A 
ATOM      3  C   UNL     1       1.686   6.305  20.723  0.00  0.00    +0.000 A 
ATOM      4  C   UNL     1       2.188   5.245  19.946  0.00  0.00    +0.000 A 
ATOM      5  C   UNL     1       2.672   5.555  18.686  0.00  0.00    +0.000 A 
ATOM      6  N   UNL     1       2.659   6.816  18.197  0.00  0.00    +0.000 NA
ENDROOT
BRANCH   4   7
ATOM      7  C   UNL     1       2.239   3.850  20.474  0.00  0.00    +0.000 C 
ATOM      8  F   UNL     1       1.823   3.762  21.772  0.00  0.00    +0.000 F 
ATOM      9  F   UNL     1       1.458   2.976  19.785  0.00  0.00    +0.000 F 
ATOM     10  F   UNL     1       3.497   3.326  20.468  0.00  0.00    +0.000 F 
ENDBRANCH   4   7
BRANCH   1  11
ATOM     11  O   UNL     1       2.248   9.123  18.493  0.00  0.00    +0.000 OA
BRANCH  11  16
ATOM     12  C   UNL     1      -1.111  10.625  18.130  0.00  0.00    +0.000 A 
ATOM     13  C   UNL     1      -1.065  11.581  19.150  0.00  0.00    +0.000 A 
ATOM     14  C   UNL     1       0.080  11.697  19.941  0.00  0.00    +0.000 A 
ATOM     15  C   UNL     1       1.183  10.870  19.701  0.00  0.00    +0.000 A 
ATOM     16  C   UNL     1       1.138   9.922  18.677  0.00  0.00    +0.000 A 
ATOM     17  C   UNL     1      -0.027   9.774  17.921  0.00  0.00    +0.000 A 
BRANCH  12  19
ATOM     18  N   UNL     1      -3.178   9.608  17.438  0.00  0.00    +0.000 NA
ATOM     19  C   UNL     1      -2.285  10.519  17.223  0.00  0.00    +0.000 C 
ATOM     20  N   UNL     1      -2.396  11.351  16.146  0.00  0.00    +0.000 N 
ATOM     21  H   UNL     1      -3.921   9.679  16.742  0.00  0.00    +0.000 HD
ATOM     22  H   UNL     1      -2.973  10.997  15.393  0.00  0.00    +0.000 HD
ATOM     23  H   UNL     1      -1.512  11.706  15.795  0.00  0.00    +0.000 HD
ENDBRANCH  12  19
ENDBRANCH  11  16
ENDBRANCH   1  11
BRANCH   5  24
ATOM     24  O   UNL     1       3.219   4.550  17.884  0.00  0.00    +0.000 OA
BRANCH  24  25
ATOM     25  C   UNL     1       4.561   4.680  17.561  0.00  0.00    +0.000 A 
ATOM     26  C   UNL     1       5.500   4.734  18.590  0.00  0.00    +0.000 A 
ATOM     27  C   UNL     1       6.867   4.780  18.287  0.00  0.00    +0.000 A 
ATOM     28  C   UNL     1       7.294   4.747  16.955  0.00  0.00    +0.000 A 
ATOM     29  C   UNL     1       6.350   4.709  15.923  0.00  0.00    +0.000 A 
ATOM     30  C   UNL     1       4.990   4.756  16.232  0.00  0.00    +0.000 A 
BRANCH  29  31
ATOM     31  C   UNL     1       6.772   4.551  14.505  0.00  0.00    +0.000 C 
ATOM     32  N   UNL     1       6.319   3.607  13.738  0.00  0.00    +0.000 NA
ATOM     33  N   UNL     1       7.676   5.401  13.947  0.00  0.00    +0.000 N 
ATOM     34  H   UNL     1       5.704   2.973  14.265  0.00  0.00    +0.000 HD
ATOM     35  H   UNL     1       7.568   6.376  14.199  0.00  0.00    +0.000 HD
ATOM     36  H   UNL     1       7.700   5.263  12.941  0.00  0.00    +0.000 HD
ENDBRANCH  29  31
ENDBRANCH  24  25
ENDBRANCH   5  24
TORSDOF 7
ENDMDL
MODEL 7
REMARK VINA RESULT:      -9.6      0.834      1.165
REMARK  Name = 
REMARK  7 active torsions:
REMARK  status: ('A' for Active; 'I' for Inactive)
REMARK    1  A    between atoms: C_2  and  C_4
REMARK    2  A    between atoms: C_8  and  O_9
REMARK    3  A    between atoms: O_9  and  C_10
REMARK    4  A    between atoms: C_13  and  C_14
REMARK    5  A    between atoms: C_18  and  O_19
REMARK    6  A    between atoms: O_19  and  C_20
REMARK    7  A    between atoms: C_24  and  C_25
REMARK                            x       y       z     vdW  Elec       q    Type
REMARK                         _______ _______ _______ _____ _____    ______ ____
ROOT
ATOM      1  C   UNL     1       2.232   7.389  19.161  0.00  0.00    +0.000 A 
ATOM      2  C   UNL     1       1.767   7.083  20.422  0.00  0.00    +0.000 A 
ATOM      3  C   UNL     1       1.788   5.746  20.818  0.00  0.00    +0.000 A 
ATOM      4  C   UNL     1       2.297   4.754  19.960  0.00  0.00    +0.000 A 
ATOM      5  C   UNL     1       2.756   5.162  18.719  0.00  0.00    +0.000 A 
ATOM      6  N   UNL     1       2.715   6.455  18.322  0.00  0.00    +0.000 NA
ENDROOT
BRANCH   4   7
ATOM      7  C   UNL     1       2.379   3.326  20.386  0.00  0.00    +0.000 C 
ATOM      8  F   UNL     1       1.837   3.112  21.621  0.00  0.00    +0.000 F 
ATOM      9  F   UNL     1       1.729   2.470  19.553  0.00  0.00    +0.000 F 
ATOM     10  F   UNL     1       3.662   2.873  20.477  0.00  0.00    +0.000 F 
ENDBRANCH   4   7
BRANCH   1  11
ATOM     11  O   UNL     1       2.269   8.727  18.788  0.00  0.00    +0.000 OA
BRANCH  11  16
ATOM     12  C   UNL     1      -0.458  10.931  19.964  0.00  0.00    +0.000 A 
ATOM     13  C   UNL     1      -1.323  10.858  18.867  0.00  0.00    +0.000 A 
ATOM     14  C   UNL     1      -0.974  10.083  17.759  0.00  0.00    +0.000 A 
ATOM     15  C   UNL     1       0.230   9.370  17.753  0.00  0.00    +0.000 A 
ATOM     16  C   UNL     1       1.088   9.439  18.852  0.00  0.00    +0.000 A 
ATOM     17  C   UNL     1       0.761  10.253  19.938  0.00  0.00    +0.000 A 
BRANCH  12  19
ATOM     18  N   UNL     1      -0.069  11.615  22.236  0.00  0.00    +0.000 NA
ATOM     19  C   UNL     1      -0.825  11.688  21.190  0.00  0.00    +0.000 C 
ATOM     20  N   UNL     1      -1.976  12.423  21.221  0.00  0.00    +0.000 N 
ATOM     21  H   UNL     1      -0.448  12.201  22.980  0.00  0.00    +0.000 HD
ATOM     22  H   UNL     1      -2.349  12.587  22.148  0.00  0.00    +0.000 HD
ATOM     23  H   UNL     1      -2.699  12.100  20.587  0.00  0.00    +0.000 HD
ENDBRANCH  12  19
ENDBRANCH  11  16
ENDBRANCH   1  11
BRANCH   5  24
ATOM     24  O   UNL     1       3.309   4.227  17.839  0.00  0.00    +0.000 OA
BRANCH  24  25
ATOM     25  C   UNL     1       4.665   4.351  17.579  0.00  0.00    +0.000 A 
ATOM     26  C   UNL     1       5.144   4.004  16.315  0.00  0.00    +0.000 A 
ATOM     27  C   UNL     1       6.494   4.200  16.002  0.00  0.00    +0.000 A 
ATOM     28  C   UNL     1       7.360   4.767  16.944  0.00  0.00    +0.000 A 
ATOM     29  C   UNL     1       6.882   5.100  18.215  0.00  0.00    +0.000 A 
ATOM     30  C   UNL     1       5.558   4.816  18.549  0.00  0.00    +0.000 A 
BRANCH  29  31
ATOM     31  C   UNL     1       7.746   5.814  19.196  0.00  0.00    +0.000 C 
ATOM     32  N   UNL     1       8.007   5.342  20.376  0.00  0.00    +0.000 NA
ATOM     33  N   UNL     1       8.299   7.018  18.890  0.00  0.00    +0.000 N 
ATOM     34  H   UNL     1       7.488   4.470  20.543  0.00  0.00    +0.000 HD
ATOM     35  H   UNL     1       8.653   7.106  17.945  0.00  0.00    +0.000 HD
ATOM     36  H   UNL     1       8.997   7.261  19.587  0.00  0.00    +0.000 HD
ENDBRANCH  29  31
ENDBRANCH  24  25
ENDBRANCH   5  24
TORSDOF 7
ENDMDL
MODEL 8
REMARK VINA RESULT:      -9.5      2.331      3.176
REMARK  Name = 
REMARK  7 active torsions:
REMARK  status: ('A' for Active; 'I' for Inactive)
REMARK    1  A    between atoms: C_2  and  C_4
REMARK    2  A    between atoms: C_8  and  O_9
REMARK    3  A    between atoms: O_9  and  C_10
REMARK    4  A    between atoms: C_13  and  C_14
REMARK    5  A    between atoms: C_18  and  O_19
REMARK    6  A    between atoms: O_19  and  C_20
REMARK    7  A    between atoms: C_24  and  C_25
REMARK                            x       y       z     vdW  Elec       q    Type
REMARK                         _______ _______ _______ _____ _____    ______ ____
ROOT
ATOM      1  C   UNL     1       2.202   7.307  19.140  0.00  0.00    +0.000 A 
ATOM      2  C   UNL     1       1.671   6.959  20.364  0.00  0.00    +0.000 A 
ATOM      3  C   UNL     1       1.665   5.609  20.712  0.00  0.00    +0.000 A 
ATOM      4  C   UNL     1       2.212   4.645  19.845  0.00  0.00    +0.000 A 
ATOM      5  C   UNL     1       2.736   5.093  18.645  0.00  0.00    +0.000 A 
ATOM      6  N   UNL     1       2.723   6.400  18.294  0.00  0.00    +0.000 NA
ENDROOT
BRANCH   4   7
ATOM      7  C   UNL     1       2.264   3.201  20.223  0.00  0.00    +0.000 C 
ATOM      8  F   UNL     1       3.541   2.721  20.294  0.00  0.00    +0.000 F 
ATOM      9  F   UNL     1       1.710   2.934  21.435  0.00  0.00    +0.000 F 
ATOM     10  F   UNL     1       1.631   2.395  19.325  0.00  0.00    +0.000 F 
ENDBRANCH   4   7
BRANCH   1  11
ATOM     11  O   UNL     1       2.265   8.657  18.819  0.00  0.00    +0.000 OA
BRANCH  11  16
ATOM     12  C   UNL     1      -0.942  10.444  18.383  0.00  0.00    +0.000 A 
ATOM     13  C   UNL     1      -1.107  10.972  19.668  0.00  0.00    +0.000 A 
ATOM     14  C   UNL     1      -0.149  10.713  20.652  0.00  0.00    +0.000 A 
ATOM     15  C   UNL     1       0.978   9.942  20.347  0.00  0.00    +0.000 A 
ATOM     16  C   UNL     1       1.143   9.422  19.061  0.00  0.00    +0.000 A 
ATOM     17  C   UNL     1       0.160   9.640  18.094  0.00  0.00    +0.000 A 
BRANCH  12  19
ATOM     18  N   UNL     1      -2.043   9.925  16.309  0.00  0.00    +0.000 NA
ATOM     19  C   UNL     1      -1.903  10.754  17.291  0.00  0.00    +0.000 C 
ATOM     20  N   UNL     1      -2.602  11.928  17.307  0.00  0.00    +0.000 N 
ATOM     21  H   UNL     1      -2.746  10.274  15.657  0.00  0.00    +0.000 HD
ATOM     22  H   UNL     1      -2.924  12.242  16.400  0.00  0.00    +0.000 HD
ATOM     23  H   UNL     1      -2.149  12.680  17.816  0.00  0.00    +0.000 HD
ENDBRANCH  12  19
ENDBRANCH  11  16
ENDBRANCH   1  11
BRANCH   5  24
ATOM     24  O   UNL     1       3.329   4.187  17.762  0.00  0.00    +0.000 OA
BRANCH  24  25
ATOM     25  C   UNL     1       4.652   4.428  17.424  0.00  0.00    +0.000 A 
ATOM     26  C   UNL     1       5.599   4.532  18.443  0.00  0.00    +0.000 A 
ATOM     27  C   UNL     1       6.953   4.691  18.123  0.00  0.00    +0.000 A 
ATOM     28  C   UNL     1       7.362   4.720  16.785  0.00  0.00    +0.000 A 
ATOM     29  C   UNL     1       6.409   4.631  15.766  0.00  0.00    +0.000 A 
ATOM     30  C   UNL     1       5.055   4.566  16.092  0.00  0.00    +0.000 A 
BRANCH  29  31
ATOM     31  C   UNL     1       6.822   4.537  14.338  0.00  0.00    +0.000 C 
ATOM     32  N   UNL     1       7.654   5.370  13.792  0.00  0.00    +0.000 NA
ATOM     33  N   UNL     1       6.326   3.561  13.532  0.00  0.00    +0.000 N 
ATOM     34  H   UNL     1       7.914   6.112  14.454  0.00  0.00    +0.000 HD
ATOM     35  H   UNL     1       6.242   2.646  13.958  0.00  0.00    +0.000 HD
ATOM     36  H   UNL     1       6.851   3.534  12.663  0.00  0.00    +0.000 HD
ENDBRANCH  29  31
ENDBRANCH  24  25
ENDBRANCH   5  24
TORSDOF 7
ENDMDL
MODEL 9
REMARK VINA RESULT:      -9.4      4.146      8.193
REMARK  Name = 
REMARK  7 active torsions:
REMARK  status: ('A' for Active; 'I' for Inactive)
REMARK    1  A    between atoms: C_2  and  C_4
REMARK    2  A    between atoms: C_8  and  O_9
REMARK    3  A    between atoms: O_9  and  C_10
REMARK    4  A    between atoms: C_13  and  C_14
REMARK    5  A    between atoms: C_18  and  O_19
REMARK    6  A    between atoms: O_19  and  C_20
REMARK    7  A    between atoms: C_24  and  C_25
REMARK                            x       y       z     vdW  Elec       q    Type
REMARK                         _______ _______ _______ _____ _____    ______ ____
ROOT
ATOM      1  C   UNL     1       5.509   5.314  16.540  0.00  0.00    +0.000 A 
ATOM      2  C   UNL     1       5.772   6.665  16.590  0.00  0.00    +0.000 A 
ATOM      3  C   UNL     1       4.791   7.502  17.120  0.00  0.00    +0.000 A 
ATOM      4  C   UNL     1       3.586   6.968  17.612  0.00  0.00    +0.000 A 
ATOM      5  C   UNL     1       3.420   5.596  17.533  0.00  0.00    +0.000 A 
ATOM      6  N   UNL     1       4.359   4.783  16.997  0.00  0.00    +0.000 NA
ENDROOT
BRANCH   4   7
ATOM      7  C   UNL     1       2.546   7.840  18.234  0.00  0.00    +0.000 C 
ATOM      8  F   UNL     1       1.328   7.723  17.627  0.00  0.00    +0.000 F 
ATOM      9  F   UNL     1       2.322   7.570  19.548  0.00  0.00    +0.000 F 
ATOM     10  F   UNL     1       2.853   9.166  18.161  0.00  0.00    +0.000 F 
ENDBRANCH   4   7
BRANCH   1  11
ATOM     11  O   UNL     1       6.509   4.473  16.069  0.00  0.00    +0.000 OA
BRANCH  11  16
ATOM     12  C   UNL     1       6.145   3.539  12.510  0.00  0.00    +0.000 A 
ATOM     13  C   UNL     1       7.129   4.353  11.939  0.00  0.00    +0.000 A 
ATOM     14  C   UNL     1       7.885   5.200  12.753  0.00  0.00    +0.000 A 
ATOM     15  C   UNL     1       7.669   5.221  14.135  0.00  0.00    +0.000 A 
ATOM     16  C   UNL     1       6.691   4.402  14.703  0.00  0.00    +0.000 A 
ATOM     17  C   UNL     1       5.902   3.593  13.882  0.00  0.00    +0.000 A 
BRANCH  12  19
ATOM     18  N   UNL     1       5.863   1.407  11.432  0.00  0.00    +0.000 NA
ATOM     19  C   UNL     1       5.367   2.574  11.687  0.00  0.00    +0.000 C 
ATOM     20  N   UNL     1       4.155   2.935  11.172  0.00  0.00    +0.000 N 
ATOM     21  H   UNL     1       5.203   0.863  10.875  0.00  0.00    +0.000 HD
ATOM     22  H   UNL     1       3.871   2.415  10.351  0.00  0.00    +0.000 HD
ATOM     23  H   UNL     1       4.038   3.934  11.032  0.00  0.00    +0.000 HD
ENDBRANCH  12  19
ENDBRANCH  11  16
ENDBRANCH   1  11
BRANCH   5  24
ATOM     24  O   UNL     1       2.260   5.004  18.042  0.00  0.00    +0.000 OA
BRANCH  24  25
ATOM     25  C   UNL     1       2.408   4.241  19.190  0.00  0.00    +0.000 A 
ATOM     26  C   UNL     1       1.414   4.294  20.167  0.00  0.00    +0.000 A 
ATOM     27  C   UNL     1       1.501   3.469  21.295  0.00  0.00    +0.000 A 
ATOM     28  C   UNL     1       2.567   2.574  21.433  0.00  0.00    +0.000 A 
ATOM     29  C   UNL     1       3.571   2.534  20.460  0.00  0.00    +0.000 A 
ATOM     30  C   UNL     1       3.525   3.423  19.386  0.00  0.00    +0.000 A 
BRANCH  29  31
ATOM     31  C   UNL     1       4.652   1.511  20.516  0.00  0.00    +0.000 C 
ATOM     32  N   UNL     1       5.470   1.410  21.518  0.00  0.00    +0.000 NA
ATOM     33  N   UNL     1       4.833   0.632  19.495  0.00  0.00    +0.000 N 
ATOM     34  H   UNL     1       5.305   2.160  22.201  0.00  0.00    +0.000 HD
ATOM     35  H   UNL     1       3.985   0.258  19.088  0.00  0.00    +0.000 HD
ATOM     36  H   UNL     1       5.477  -0.099  19.783  0.00  0.00    +0.000 HD
ENDBRANCH  29  31
ENDBRANCH  24  25
ENDBRANCH   5  24
TORSDOF 7
ENDMDL
