MODEL 1
REMARK VINA RESULT:      -7.4      0.000      0.000
REMARK  Name = 
REMARK  2 active torsions:
REMARK  status: ('A' for Active; 'I' for Inactive)
REMARK    1  A    between atoms: C_1  and  C_2
REMARK    2  A    between atoms: C_5  and  C_6
REMARK                            x       y       z     vdW  Elec       q    Type
REMARK                         _______ _______ _______ _____ _____    ______ ____
ROOT
ATOM      1  C   UNL     1       5.474   5.111  16.593  0.00  0.00    +0.000 A 
ATOM      2  C   UNL     1       5.045   4.373  15.552  0.00  0.00    +0.000 A 
ATOM      3  C   UNL     1       5.823   4.280  14.325  0.00  0.00    +0.000 A 
ATOM      4  C   UNL     1       5.415   3.514  13.231  0.00  0.00    +0.000 A 
ATOM      5  C   UNL     1       6.190   3.488  12.066  0.00  0.00    +0.000 A 
ATOM      6  C   UNL     1       7.372   4.228  11.988  0.00  0.00    +0.000 A 
ATOM      7  C   UNL     1       7.787   4.990  13.076  0.00  0.00    +0.000 A 
ATOM      8  C   UNL     1       7.007   5.002  14.230  0.00  0.00    +0.000 A 
ATOM      9  O   UNL     1       7.468   5.765  15.314  0.00  0.00    +0.000 OA
ATOM     10  C   UNL     1       6.800   5.791  16.536  0.00  0.00    +0.000 A 
ATOM     11  O   UNL     1       7.316   6.351  17.498  0.00  0.00    +0.000 OA
ENDROOT
BRANCH   1  16
ATOM     12  C   UNL     1       2.264   7.009  19.801  0.00  0.00    +0.000 C 
ATOM     13  C   UNL     1       3.201   5.976  19.290  0.00  0.00    +0.000 A 
ATOM     14  C   UNL     1       3.498   4.772  19.888  0.00  0.00    +0.000 A 
ATOM     15  S   UNL     1       4.662   3.931  18.967  0.00  0.00    +0.000 S 
ATOM     16  C   UNL     1       4.642   5.185  17.761  0.00  0.00    +0.000 A 
ATOM     17  N   UNL     1       3.868   6.208  18.096  0.00  0.00    +0.000 NA
ENDBRANCH   1  16
TORSDOF 1
ENDMDL
MODEL 2
REMARK VINA RESULT:      -7.4      2.442      6.292
REMARK  Name = 
REMARK  2 active torsions:
REMARK  status: ('A' for Active; 'I' for Inactive)
REMARK    1  A    between atoms: C_1  and  C_2
REMARK    2  A    between atoms: C_5  and  C_6
REMARK                            x       y       z     vdW  Elec       q    Type
REMARK                         _______ _______ _______ _____ _____    ______ ____
ROOT
ATOM      1  C   UNL     1       4.336   4.727  17.083  0.00  0.00    +0.000 A 
ATOM      2  C   UNL     1       3.835   3.573  17.562  0.00  0.00    +0.000 A 
ATOM      3  C   UNL     1       2.892   3.566  18.671  0.00  0.00    +0.000 A 
ATOM      4  C   UNL     1       2.343   2.389  19.184  0.00  0.00    +0.000 A 
ATOM      5  C   UNL     1       1.464   2.442  20.273  0.00  0.00    +0.000 A 
ATOM      6  C   UNL     1       1.135   3.669  20.854  0.00  0.00    +0.000 A 
ATOM      7  C   UNL     1       1.676   4.846  20.345  0.00  0.00    +0.000 A 
ATOM      8  C   UNL     1       2.545   4.777  19.259  0.00  0.00    +0.000 A 
ATOM      9  O   UNL     1       3.053   5.986  18.759  0.00  0.00    +0.000 OA
ATOM     10  C   UNL     1       3.875   6.033  17.635  0.00  0.00    +0.000 A 
ATOM     11  O   UNL     1       4.174   7.118  17.148  0.00  0.00    +0.000 OA
ENDROOT
BRANCH   1  16
ATOM     12  C   UNL     1       6.149   3.585  12.655  0.00  0.00    +0.000 C 
ATOM     13  C   UNL     1       6.206   4.166  14.021  0.00  0.00    +0.000 A 
ATOM     14  C   UNL     1       7.280   4.812  14.592  0.00  0.00    +0.000 A 
ATOM     15  S   UNL     1       6.905   5.270  16.192  0.00  0.00    +0.000 S 
ATOM     16  C   UNL     1       5.286   4.660  16.008  0.00  0.00    +0.000 A 
ATOM     17  N   UNL     1       5.089   4.069  14.837  0.00  0.00    +0.000 NA
ENDBRANCH   1  16
TORSDOF 1
ENDMDL
MODEL 3
REMARK VINA RESULT:      -7.4      1.087      1.530
REMARK  Name = 
REMARK  2 active torsions:
REMARK  status: ('A' for Active; 'I' for Inactive)
REMARK    1  A    between atoms: C_1  and  C_2
REMARK    2  A    between atoms: C_5  and  C_6
REMARK                            x       y       z     vdW  Elec       q    Type
REMARK                         _______ _______ _______ _____ _____    ______ ____
ROOT
ATOM      1  C   UNL     1       5.552   4.766  16.698  0.00  0.00    +0.000 A 
ATOM      2  C   UNL     1       5.159   4.104  15.594  0.00  0.00    +0.000 A 
ATOM      3  C   UNL     1       5.924   4.183  14.358  0.00  0.00    +0.000 A 
ATOM      4  C   UNL     1       5.552   3.500  13.198  0.00  0.00    +0.000 A 
ATOM      5  C   UNL     1       6.310   3.638  12.029  0.00  0.00    +0.000 A 
ATOM      6  C   UNL     1       7.439   4.462  12.014  0.00  0.00    +0.000 A 
ATOM      7  C   UNL     1       7.817   5.143  13.167  0.00  0.00    +0.000 A 
ATOM      8  C   UNL     1       7.055   4.991  14.323  0.00  0.00    +0.000 A 
ATOM      9  O   UNL     1       7.479   5.675  15.473  0.00  0.00    +0.000 OA
ATOM     10  C   UNL     1       6.828   5.538  16.697  0.00  0.00    +0.000 A 
ATOM     11  O   UNL     1       7.320   6.037  17.704  0.00  0.00    +0.000 OA
ENDROOT
BRANCH   1  16
ATOM     12  C   UNL     1       3.362   2.686  20.581  0.00  0.00    +0.000 C 
ATOM     13  C   UNL     1       3.677   3.804  19.656  0.00  0.00    +0.000 A 
ATOM     14  C   UNL     1       3.200   5.094  19.738  0.00  0.00    +0.000 A 
ATOM     15  S   UNL     1       3.792   6.021  18.434  0.00  0.00    +0.000 S 
ATOM     16  C   UNL     1       4.734   4.670  17.874  0.00  0.00    +0.000 A 
ATOM     17  N   UNL     1       4.530   3.570  18.587  0.00  0.00    +0.000 NA
ENDBRANCH   1  16
TORSDOF 1
ENDMDL
MODEL 4
REMARK VINA RESULT:      -7.3      2.523      6.260
REMARK  Name = 
REMARK  2 active torsions:
REMARK  status: ('A' for Active; 'I' for Inactive)
REMARK    1  A    between atoms: C_1  and  C_2
REMARK    2  A    between atoms: C_5  and  C_6
REMARK                            x       y       z     vdW  Elec       q    Type
REMARK                         _______ _______ _______ _____ _____    ______ ____
ROOT
ATOM      1  C   UNL     1       4.846   4.017  17.332  0.00  0.00    +0.000 A 
ATOM      2  C   UNL     1       3.517   3.815  17.264  0.00  0.00    +0.000 A 
ATOM      3  C   UNL     1       2.739   3.520  18.458  0.00  0.00    +0.000 A 
ATOM      4  C   UNL     1       1.358   3.317  18.425  0.00  0.00    +0.000 A 
ATOM      5  C   UNL     1       0.666   3.007  19.602  0.00  0.00    +0.000 A 
ATOM      6  C   UNL     1       1.352   2.895  20.814  0.00  0.00    +0.000 A 
ATOM      7  C   UNL     1       2.728   3.099  20.855  0.00  0.00    +0.000 A 
ATOM      8  C   UNL     1       3.400   3.412  19.676  0.00  0.00    +0.000 A 
ATOM      9  O   UNL     1       4.784   3.633  19.759  0.00  0.00    +0.000 OA
ATOM     10  C   UNL     1       5.539   4.017  18.653  0.00  0.00    +0.000 A 
ATOM     11  O   UNL     1       6.712   4.341  18.803  0.00  0.00    +0.000 OA
ENDROOT
BRANCH   1  16
ATOM     12  C   UNL     1       6.198   3.466  12.635  0.00  0.00    +0.000 C 
ATOM     13  C   UNL     1       6.254   4.081  13.985  0.00  0.00    +0.000 A 
ATOM     14  C   UNL     1       7.079   5.110  14.383  0.00  0.00    +0.000 A 
ATOM     15  S   UNL     1       6.828   5.457  16.034  0.00  0.00    +0.000 S 
ATOM     16  C   UNL     1       5.558   4.271  16.111  0.00  0.00    +0.000 A 
ATOM     17  N   UNL     1       5.410   3.601  14.976  0.00  0.00    +0.000 NA
ENDBRANCH   1  16
TORSDOF 1
ENDMDL
MODEL 5
REMARK VINA RESULT:      -7.1      1.833      2.504
REMARK  Name = 
REMARK  2 active torsions:
REMARK  status: ('A' for Active; 'I' for Inactive)
REMARK    1  A    between atoms: C_1  and  C_2
REMARK    2  A    between atoms: C_5  and  C_6
REMARK                            x       y       z     vdW  Elec       q    Type
REMARK                         _______ _______ _______ _____ _____    ______ ____
ROOT
ATOM      1  C   UNL     1       4.611   4.652  18.295  0.00  0.00    +0.000 A 
ATOM      2  C   UNL     1       4.292   4.316  17.031  0.00  0.00    +0.000 A 
ATOM      3  C   UNL     1       5.277   4.393  15.961  0.00  0.00    +0.000 A 
ATOM      4  C   UNL     1       4.984   4.040  14.642  0.00  0.00    +0.000 A 
ATOM      5  C   UNL     1       5.963   4.163  13.650  0.00  0.00    +0.000 A 
ATOM      6  C   UNL     1       7.235   4.642  13.970  0.00  0.00    +0.000 A 
ATOM      7  C   UNL     1       7.535   4.992  15.283  0.00  0.00    +0.000 A 
ATOM      8  C   UNL     1       6.551   4.859  16.260  0.00  0.00    +0.000 A 
ATOM      9  O   UNL     1       6.897   5.201  17.577  0.00  0.00    +0.000 OA
ATOM     10  C   UNL     1       6.010   5.040  18.639  0.00  0.00    +0.000 A 
ATOM     11  O   UNL     1       6.402   5.211  19.788  0.00  0.00    +0.000 OA
ENDROOT
BRANCH   1  16
ATOM     12  C   UNL     1       1.661   2.648  21.682  0.00  0.00    +0.000 C 
ATOM     13  C   UNL     1       2.181   3.755  20.840  0.00  0.00    +0.000 A 
ATOM     14  C   UNL     1       1.741   5.060  20.839  0.00  0.00    +0.000 A 
ATOM     15  S   UNL     1       2.599   5.966  19.677  0.00  0.00    +0.000 S 
ATOM     16  C   UNL     1       3.584   4.584  19.295  0.00  0.00    +0.000 A 
ATOM     17  N   UNL     1       3.212   3.492  19.949  0.00  0.00    +0.000 NA
ENDBRANCH   1  16
TORSDOF 1
ENDMDL
MODEL 6
REMARK VINA RESULT:      -6.7      1.224      1.295
REMARK  Name = 
REMARK  2 active torsions:
REMARK  status: ('A' for Active; 'I' for Inactive)
REMARK    1  A    between atoms: C_1  and  C_2
REMARK    2  A    between atoms: C_5  and  C_6
REMARK                            x       y       z     vdW  Elec       q    Type
REMARK                         _______ _______ _______ _____ _____    ______ ____
ROOT
ATOM      1  C   UNL     1       5.251   4.274  17.357  0.00  0.00    +0.000 A 
ATOM      2  C   UNL     1       4.839   3.936  16.121  0.00  0.00    +0.000 A 
ATOM      3  C   UNL     1       5.699   4.132  14.962  0.00  0.00    +0.000 A 
ATOM      4  C   UNL     1       5.309   3.781  13.668  0.00  0.00    +0.000 A 
ATOM      5  C   UNL     1       6.166   4.021  12.588  0.00  0.00    +0.000 A 
ATOM      6  C   UNL     1       7.414   4.614  12.797  0.00  0.00    +0.000 A 
ATOM      7  C   UNL     1       7.811   4.962  14.084  0.00  0.00    +0.000 A 
ATOM      8  C   UNL     1       6.948   4.713  15.149  0.00  0.00    +0.000 A 
ATOM      9  O   UNL     1       7.391   5.057  16.435  0.00  0.00    +0.000 OA
ATOM     10  C   UNL     1       6.634   4.788  17.574  0.00  0.00    +0.000 A 
ATOM     11  O   UNL     1       7.123   4.971  18.684  0.00  0.00    +0.000 OA
ENDROOT
BRANCH   1  16
ATOM     12  C   UNL     1       1.783   5.397  20.659  0.00  0.00    +0.000 C 
ATOM     13  C   UNL     1       2.780   4.510  20.007  0.00  0.00    +0.000 A 
ATOM     14  C   UNL     1       3.069   3.209  20.353  0.00  0.00    +0.000 A 
ATOM     15  S   UNL     1       4.313   2.601  19.359  0.00  0.00    +0.000 S 
ATOM     16  C   UNL     1       4.341   4.084  18.451  0.00  0.00    +0.000 A 
ATOM     17  N   UNL     1       3.519   5.002  18.941  0.00  0.00    +0.000 NA
ENDBRANCH   1  16
TORSDOF 1
ENDMDL
MODEL 7
REMARK VINA RESULT:      -6.7      2.348      6.516
REMARK  Name = 
REMARK  2 active torsions:
REMARK  status: ('A' for Active; 'I' for Inactive)
REMARK    1  A    between atoms: C_1  and  C_2
REMARK    2  A    between atoms: C_5  and  C_6
REMARK                            x       y       z     vdW  Elec       q    Type
REMARK                         _______ _______ _______ _____ _____    ______ ____
ROOT
ATOM      1  C   UNL     1       4.377   6.137  17.633  0.00  0.00    +0.000 A 
ATOM      2  C   UNL     1       3.729   7.277  17.330  0.00  0.00    +0.000 A 
ATOM      3  C   UNL     1       2.778   7.872  18.258  0.00  0.00    +0.000 A 
ATOM      4  C   UNL     1       2.099   9.060  17.981  0.00  0.00    +0.000 A 
ATOM      5  C   UNL     1       1.173   9.568  18.900  0.00  0.00    +0.000 A 
ATOM      6  C   UNL     1       0.920   8.890  20.095  0.00  0.00    +0.000 A 
ATOM      7  C   UNL     1       1.596   7.708  20.378  0.00  0.00    +0.000 A 
ATOM      8  C   UNL     1       2.518   7.218  19.456  0.00  0.00    +0.000 A 
ATOM      9  O   UNL     1       3.197   6.034  19.786  0.00  0.00    +0.000 OA
ATOM     10  C   UNL     1       4.186   5.497  18.966  0.00  0.00    +0.000 A 
ATOM     11  O   UNL     1       4.853   4.547  19.364  0.00  0.00    +0.000 OA
ENDROOT
BRANCH   1  16
ATOM     12  C   UNL     1       5.818   3.737  13.588  0.00  0.00    +0.000 C 
ATOM     13  C   UNL     1       6.030   4.495  14.847  0.00  0.00    +0.000 A 
ATOM     14  C   UNL     1       7.243   4.853  15.394  0.00  0.00    +0.000 A 
ATOM     15  S   UNL     1       7.001   5.672  16.870  0.00  0.00    +0.000 S 
ATOM     16  C   UNL     1       5.277   5.588  16.658  0.00  0.00    +0.000 A 
ATOM     17  N   UNL     1       4.924   4.900  15.580  0.00  0.00    +0.000 NA
ENDBRANCH   1  16
TORSDOF 1
ENDMDL
MODEL 8
REMARK VINA RESULT:      -6.7      0.989      1.080
REMARK  Name = 
REMARK  2 active torsions:
REMARK  status: ('A' for Active; 'I' for Inactive)
REMARK    1  A    between atoms: C_1  and  C_2
REMARK    2  A    between atoms: C_5  and  C_6
REMARK                            x       y       z     vdW  Elec       q    Type
REMARK                         _______ _______ _______ _____ _____    ______ ____
ROOT
ATOM      1  C   UNL     1       5.497   4.775  16.457  0.00  0.00    +0.000 A 
ATOM      2  C   UNL     1       5.189   4.048  15.367  0.00  0.00    +0.000 A 
ATOM      3  C   UNL     1       5.988   4.138  14.153  0.00  0.00    +0.000 A 
ATOM      4  C   UNL     1       5.704   3.389  13.009  0.00  0.00    +0.000 A 
ATOM      5  C   UNL     1       6.490   3.540  11.860  0.00  0.00    +0.000 A 
ATOM      6  C   UNL     1       7.559   4.440  11.850  0.00  0.00    +0.000 A 
ATOM      7  C   UNL     1       7.849   5.186  12.988  0.00  0.00    +0.000 A 
ATOM      8  C   UNL     1       7.060   5.021  14.124  0.00  0.00    +0.000 A 
ATOM      9  O   UNL     1       7.397   5.775  15.260  0.00  0.00    +0.000 OA
ATOM     10  C   UNL     1       6.716   5.635  16.467  0.00  0.00    +0.000 A 
ATOM     11  O   UNL     1       7.137   6.202  17.470  0.00  0.00    +0.000 OA
ENDROOT
BRANCH   1  16
ATOM     12  C   UNL     1       1.376   4.036  19.039  0.00  0.00    +0.000 C 
ATOM     13  C   UNL     1       2.815   4.362  18.870  0.00  0.00    +0.000 A 
ATOM     14  C   UNL     1       3.711   4.660  19.873  0.00  0.00    +0.000 A 
ATOM     15  S   UNL     1       5.240   5.015  19.207  0.00  0.00    +0.000 S 
ATOM     16  C   UNL     1       4.649   4.663  17.610  0.00  0.00    +0.000 A 
ATOM     17  N   UNL     1       3.352   4.385  17.591  0.00  0.00    +0.000 NA
ENDBRANCH   1  16
TORSDOF 1
ENDMDL
MODEL 9
REMARK VINA RESULT:      -6.6      2.427      5.928
REMARK  Name = 
REMARK  2 active torsions:
REMARK  status: ('A' for Active; 'I' for Inactive)
REMARK    1  A    between atoms: C_1  and  C_2
REMARK    2  A    between atoms: C_5  and  C_6
REMARK                            x       y       z     vdW  Elec       q    Type
REMARK                         _______ _______ _______ _____ _____    ______ ____
ROOT
ATOM      1  C   UNL     1       5.865   4.353  16.082  0.00  0.00    +0.000 A 
ATOM      2  C   UNL     1       4.523   4.274  16.145  0.00  0.00    +0.000 A 
ATOM      3  C   UNL     1       3.838   4.107  17.419  0.00  0.00    +0.000 A 
ATOM      4  C   UNL     1       2.448   4.034  17.523  0.00  0.00    +0.000 A 
ATOM      5  C   UNL     1       1.847   3.842  18.772  0.00  0.00    +0.000 A 
ATOM      6  C   UNL     1       2.632   3.719  19.921  0.00  0.00    +0.000 A 
ATOM      7  C   UNL     1       4.018   3.795  19.826  0.00  0.00    +0.000 A 
ATOM      8  C   UNL     1       4.601   3.990  18.576  0.00  0.00    +0.000 A 
ATOM      9  O   UNL     1       6.000   4.084  18.521  0.00  0.00    +0.000 OA
ATOM     10  C   UNL     1       6.678   4.346  17.332  0.00  0.00    +0.000 A 
ATOM     11  O   UNL     1       7.884   4.565  17.358  0.00  0.00    +0.000 OA
ENDROOT
BRANCH   1  16
ATOM     12  C   UNL     1       8.907   6.083  12.625  0.00  0.00    +0.000 C 
ATOM     13  C   UNL     1       7.810   5.226  13.142  0.00  0.00    +0.000 A 
ATOM     14  C   UNL     1       7.082   4.304  12.422  0.00  0.00    +0.000 A 
ATOM     15  S   UNL     1       5.895   3.589  13.417  0.00  0.00    +0.000 S 
ATOM     16  C   UNL     1       6.477   4.485  14.790  0.00  0.00    +0.000 A 
ATOM     17  N   UNL     1       7.447   5.334  14.476  0.00  0.00    +0.000 NA
ENDBRANCH   1  16
TORSDOF 1
ENDMDL
