MODEL 1
REMARK VINA RESULT:      -9.0      0.000      0.000
REMARK  Name = 
REMARK  5 active torsions:
REMARK  status: ('A' for Active; 'I' for Inactive)
REMARK    1  A    between atoms: C_4  and  C_5
REMARK    2  A    between atoms: C_8  and  C_9
REMARK    3  A    between atoms: C_9  and  N_10
REMARK    4  A    between atoms: N_17  and  C_18
REMARK    5  A    between atoms: C_18  and  C_19
REMARK                            x       y       z     vdW  Elec       q    Type
REMARK                         _______ _______ _______ _____ _____    ______ ____
ROOT
ATOM      1  N   UNL     1       4.273   2.842  19.241  0.00  0.00    +0.000 NA
ATOM      2  C   UNL     1       3.699   2.727  20.596  0.00  0.00    +0.000 C 
ATOM      3  C   UNL     1       2.340   3.439  20.899  0.00  0.00    +0.000 C 
ATOM      4  C   UNL     1       1.163   2.506  20.577  0.00  0.00    +0.000 C 
ATOM      5  C   UNL     1       0.809   2.556  19.094  0.00  0.00    +0.000 C 
ATOM      6  C   UNL     1       1.891   3.225  18.232  0.00  0.00    +0.000 C 
ATOM      7  C   UNL     1       3.276   2.512  18.216  0.00  0.00    +0.000 C 
ATOM      8  N   UNL     1       2.032   4.581  18.725  0.00  0.00    +0.000 NA
ATOM      9  C   UNL     1       2.086   4.784  20.161  0.00  0.00    +0.000 C 
ENDROOT
BRANCH   1  10
ATOM     10  C   UNL     1       5.060   4.103  19.145  0.00  0.00    +0.000 C 
BRANCH  10  14
ATOM     11  C   UNL     1       6.872   4.668  16.155  0.00  0.00    +0.000 A 
ATOM     12  N   UNL     1       7.930   4.655  16.945  0.00  0.00    +0.000 NA
ATOM     13  N   UNL     1       7.462   4.461  18.242  0.00  0.00    +0.000 NA
ATOM     14  C   UNL     1       6.150   4.343  18.154  0.00  0.00    +0.000 A 
ATOM     15  O   UNL     1       5.708   4.536  16.862  0.00  0.00    +0.000 OA
BRANCH  11  19
ATOM     16  C   UNL     1       6.796   4.090  11.926  0.00  0.00    +0.000 A 
ATOM     17  C   UNL     1       7.667   5.017  12.496  0.00  0.00    +0.000 A 
ATOM     18  C   UNL     1       7.632   5.255  13.875  0.00  0.00    +0.000 A 
ATOM     19  C   UNL     1       6.746   4.553  14.702  0.00  0.00    +0.000 A 
ATOM     20  C   UNL     1       5.839   3.662  14.105  0.00  0.00    +0.000 A 
ATOM     21  C   UNL     1       5.866   3.431  12.727  0.00  0.00    +0.000 A 
ENDBRANCH  11  19
ENDBRANCH  10  14
ENDBRANCH   1  10
BRANCH   8  22
ATOM     22  C   UNL     1       2.022   5.659  17.772  0.00  0.00    +0.000 C 
BRANCH  22  23
ATOM     23  C   UNL     1       2.578   6.952  18.355  0.00  0.00    +0.000 C 
ATOM     24  C   UNL     1       3.489   7.802  17.452  0.00  0.00    +0.000 C 
ATOM     25  C   UNL     1       2.659   9.038  17.834  0.00  0.00    +0.000 C 
ATOM     26  C   UNL     1       1.553   8.104  18.348  0.00  0.00    +0.000 C 
ENDBRANCH  22  23
ENDBRANCH   8  22
TORSDOF 5
ENDMDL
MODEL 2
REMARK VINA RESULT:      -8.7      3.268      7.579
REMARK  Name = 
REMARK  5 active torsions:
REMARK  status: ('A' for Active; 'I' for Inactive)
REMARK    1  A    between atoms: C_4  and  C_5
REMARK    2  A    between atoms: C_8  and  C_9
REMARK    3  A    between atoms: C_9  and  N_10
REMARK    4  A    between atoms: N_17  and  C_18
REMARK    5  A    between atoms: C_18  and  C_19
REMARK                            x       y       z     vdW  Elec       q    Type
REMARK                         _______ _______ _______ _____ _____    ______ ____
ROOT
ATOM      1  N   UNL     1       2.160   5.306  18.776  0.00  0.00    +0.000 NA
ATOM      2  C   UNL     1       2.001   4.395  17.626  0.00  0.00    +0.000 C 
ATOM      3  C   UNL     1       3.219   3.518  17.188  0.00  0.00    +0.000 C 
ATOM      4  C   UNL     1       3.217   2.182  17.946  0.00  0.00    +0.000 C 
ATOM      5  C   UNL     1       3.869   2.324  19.317  0.00  0.00    +0.000 C 
ATOM      6  C   UNL     1       4.048   3.786  19.757  0.00  0.00    +0.000 C 
ATOM      7  C   UNL     1       2.733   4.604  19.931  0.00  0.00    +0.000 C 
ATOM      8  N   UNL     1       4.902   4.414  18.767  0.00  0.00    +0.000 NA
ATOM      9  C   UNL     1       4.627   4.155  17.366  0.00  0.00    +0.000 C 
ENDROOT
BRANCH   1  10
ATOM     10  C   UNL     1       2.751   6.590  18.308  0.00  0.00    +0.000 C 
BRANCH  10  14
ATOM     11  C   UNL     1       1.082   9.429  19.612  0.00  0.00    +0.000 A 
ATOM     12  N   UNL     1       1.187   9.897  18.383  0.00  0.00    +0.000 NA
ATOM     13  N   UNL     1       1.860   8.930  17.640  0.00  0.00    +0.000 NA
ATOM     14  C   UNL     1       2.098   7.925  18.461  0.00  0.00    +0.000 A 
ATOM     15  O   UNL     1       1.690   8.211  19.748  0.00  0.00    +0.000 OA
BRANCH  11  19
ATOM     16  C   UNL     1      -1.027  10.801  23.062  0.00  0.00    +0.000 A 
ATOM     17  C   UNL     1      -0.360   9.578  23.082  0.00  0.00    +0.000 A 
ATOM     18  C   UNL     1       0.264   9.100  21.924  0.00  0.00    +0.000 A 
ATOM     19  C   UNL     1       0.251   9.850  20.741  0.00  0.00    +0.000 A 
ATOM     20  C   UNL     1      -0.470  11.055  20.723  0.00  0.00    +0.000 A 
ATOM     21  C   UNL     1      -1.103  11.527  21.875  0.00  0.00    +0.000 A 
ENDBRANCH  11  19
ENDBRANCH  10  14
ENDBRANCH   1  10
BRANCH   8  22
ATOM     22  C   UNL     1       6.026   5.186  19.225  0.00  0.00    +0.000 C 
BRANCH  22  23
ATOM     23  C   UNL     1       6.824   5.785  18.074  0.00  0.00    +0.000 C 
ATOM     24  C   UNL     1       6.243   7.032  17.383  0.00  0.00    +0.000 C 
ATOM     25  C   UNL     1       7.622   7.700  17.506  0.00  0.00    +0.000 C 
ATOM     26  C   UNL     1       8.013   6.643  18.548  0.00  0.00    +0.000 C 
ENDBRANCH  22  23
ENDBRANCH   8  22
TORSDOF 5
ENDMDL
MODEL 3
REMARK VINA RESULT:      -8.6      0.746      1.049
REMARK  Name = 
REMARK  5 active torsions:
REMARK  status: ('A' for Active; 'I' for Inactive)
REMARK    1  A    between atoms: C_4  and  C_5
REMARK    2  A    between atoms: C_8  and  C_9
REMARK    3  A    between atoms: C_9  and  N_10
REMARK    4  A    between atoms: N_17  and  C_18
REMARK    5  A    between atoms: C_18  and  C_19
REMARK                            x       y       z     vdW  Elec       q    Type
REMARK                         _______ _______ _______ _____ _____    ______ ____
ROOT
ATOM      1  N   UNL     1       3.861   3.115  18.671  0.00  0.00    +0.000 NA
ATOM      2  C   UNL     1       3.592   2.222  19.815  0.00  0.00    +0.000 C 
ATOM      3  C   UNL     1       2.693   2.746  20.982  0.00  0.00    +0.000 C 
ATOM      4  C   UNL     1       1.215   2.439  20.698  0.00  0.00    +0.000 C 
ATOM      5  C   UNL     1       0.593   3.503  19.800  0.00  0.00    +0.000 C 
ATOM      6  C   UNL     1       1.632   4.407  19.118  0.00  0.00    +0.000 C 
ATOM      7  C   UNL     1       2.616   3.690  18.146  0.00  0.00    +0.000 C 
ATOM      8  N   UNL     1       2.367   5.065  20.180  0.00  0.00    +0.000 NA
ATOM      9  C   UNL     1       2.801   4.263  21.309  0.00  0.00    +0.000 C 
ENDROOT
BRANCH   1  10
ATOM     10  C   UNL     1       5.017   3.995  18.994  0.00  0.00    +0.000 C 
BRANCH  10  14
ATOM     11  C   UNL     1       6.849   4.738  16.055  0.00  0.00    +0.000 A 
ATOM     12  N   UNL     1       7.878   4.837  16.875  0.00  0.00    +0.000 NA
ATOM     13  N   UNL     1       7.395   4.599  18.159  0.00  0.00    +0.000 NA
ATOM     14  C   UNL     1       6.106   4.345  18.034  0.00  0.00    +0.000 A 
ATOM     15  O   UNL     1       5.684   4.488  16.728  0.00  0.00    +0.000 OA
BRANCH  11  19
ATOM     16  C   UNL     1       6.933   4.111  11.833  0.00  0.00    +0.000 A 
ATOM     17  C   UNL     1       7.788   5.039  12.426  0.00  0.00    +0.000 A 
ATOM     18  C   UNL     1       7.701   5.294  13.799  0.00  0.00    +0.000 A 
ATOM     19  C   UNL     1       6.779   4.607  14.599  0.00  0.00    +0.000 A 
ATOM     20  C   UNL     1       5.889   3.715  13.977  0.00  0.00    +0.000 A 
ATOM     21  C   UNL     1       5.967   3.468  12.605  0.00  0.00    +0.000 A 
ENDBRANCH  11  19
ENDBRANCH  10  14
ENDBRANCH   1  10
BRANCH   8  22
ATOM     22  C   UNL     1       2.551   6.490  20.103  0.00  0.00    +0.000 C 
BRANCH  22  23
ATOM     23  C   UNL     1       2.130   7.057  18.753  0.00  0.00    +0.000 C 
ATOM     24  C   UNL     1       1.700   8.534  18.708  0.00  0.00    +0.000 C 
ATOM     25  C   UNL     1       2.624   8.731  17.496  0.00  0.00    +0.000 C 
ATOM     26  C   UNL     1       3.328   7.412  17.851  0.00  0.00    +0.000 C 
ENDBRANCH  22  23
ENDBRANCH   8  22
TORSDOF 5
ENDMDL
MODEL 4
REMARK VINA RESULT:      -8.5      1.097      1.402
REMARK  Name = 
REMARK  5 active torsions:
REMARK  status: ('A' for Active; 'I' for Inactive)
REMARK    1  A    between atoms: C_4  and  C_5
REMARK    2  A    between atoms: C_8  and  C_9
REMARK    3  A    between atoms: C_9  and  N_10
REMARK    4  A    between atoms: N_17  and  C_18
REMARK    5  A    between atoms: C_18  and  C_19
REMARK                            x       y       z     vdW  Elec       q    Type
REMARK                         _______ _______ _______ _____ _____    ______ ____
ROOT
ATOM      1  N   UNL     1       3.940   3.119  18.821  0.00  0.00    +0.000 NA
ATOM      2  C   UNL     1       3.592   2.416  20.071  0.00  0.00    +0.000 C 
ATOM      3  C   UNL     1       2.632   3.117  21.086  0.00  0.00    +0.000 C 
ATOM      4  C   UNL     1       1.170   2.774  20.764  0.00  0.00    +0.000 C 
ATOM      5  C   UNL     1       0.615   3.687  19.676  0.00  0.00    +0.000 C 
ATOM      6  C   UNL     1       1.704   4.472  18.927  0.00  0.00    +0.000 C 
ATOM      7  C   UNL     1       2.735   3.609  18.139  0.00  0.00    +0.000 C 
ATOM      8  N   UNL     1       2.383   5.285  19.916  0.00  0.00    +0.000 NA
ATOM      9  C   UNL     1       2.739   4.666  21.180  0.00  0.00    +0.000 C 
ENDROOT
BRANCH   1  10
ATOM     10  C   UNL     1       5.086   4.036  19.073  0.00  0.00    +0.000 C 
BRANCH  10  14
ATOM     11  C   UNL     1       6.892   4.680  16.095  0.00  0.00    +0.000 A 
ATOM     12  N   UNL     1       7.945   4.702  16.891  0.00  0.00    +0.000 NA
ATOM     13  N   UNL     1       7.477   4.486  18.184  0.00  0.00    +0.000 NA
ATOM     14  C   UNL     1       6.171   4.320  18.089  0.00  0.00    +0.000 A 
ATOM     15  O   UNL     1       5.729   4.502  16.795  0.00  0.00    +0.000 OA
BRANCH  11  19
ATOM     16  C   UNL     1       6.857   4.111  11.864  0.00  0.00    +0.000 A 
ATOM     17  C   UNL     1       7.702   5.056  12.443  0.00  0.00    +0.000 A 
ATOM     18  C   UNL     1       7.653   5.290  13.821  0.00  0.00    +0.000 A 
ATOM     19  C   UNL     1       6.778   4.566  14.641  0.00  0.00    +0.000 A 
ATOM     20  C   UNL     1       5.896   3.656  14.036  0.00  0.00    +0.000 A 
ATOM     21  C   UNL     1       5.936   3.429  12.658  0.00  0.00    +0.000 A 
ENDBRANCH  11  19
ENDBRANCH  10  14
ENDBRANCH   1  10
BRANCH   8  22
ATOM     22  C   UNL     1       2.588   6.680  19.631  0.00  0.00    +0.000 C 
BRANCH  22  23
ATOM     23  C   UNL     1       1.358   7.522  19.944  0.00  0.00    +0.000 C 
ATOM     24  C   UNL     1       1.319   8.242  21.304  0.00  0.00    +0.000 C 
ATOM     25  C   UNL     1       0.910   9.531  20.571  0.00  0.00    +0.000 C 
ATOM     26  C   UNL     1       1.380   8.899  19.252  0.00  0.00    +0.000 C 
ENDBRANCH  22  23
ENDBRANCH   8  22
TORSDOF 5
ENDMDL
MODEL 5
REMARK VINA RESULT:      -8.4      1.625      3.858
REMARK  Name = 
REMARK  5 active torsions:
REMARK  status: ('A' for Active; 'I' for Inactive)
REMARK    1  A    between atoms: C_4  and  C_5
REMARK    2  A    between atoms: C_8  and  C_9
REMARK    3  A    between atoms: C_9  and  N_10
REMARK    4  A    between atoms: N_17  and  C_18
REMARK    5  A    between atoms: C_18  and  C_19
REMARK                            x       y       z     vdW  Elec       q    Type
REMARK                         _______ _______ _______ _____ _____    ______ ____
ROOT
ATOM      1  N   UNL     1       6.230   5.613  18.224  0.00  0.00    +0.000 NA
ATOM      2  C   UNL     1       5.385   6.598  17.522  0.00  0.00    +0.000 C 
ATOM      3  C   UNL     1       3.858   6.300  17.364  0.00  0.00    +0.000 C 
ATOM      4  C   UNL     1       3.079   6.845  18.571  0.00  0.00    +0.000 C 
ATOM      5  C   UNL     1       3.106   5.860  19.735  0.00  0.00    +0.000 C 
ATOM      6  C   UNL     1       4.161   4.754  19.572  0.00  0.00    +0.000 C 
ATOM      7  C   UNL     1       5.641   5.237  19.515  0.00  0.00    +0.000 C 
ATOM      8  N   UNL     1       3.821   4.034  18.361  0.00  0.00    +0.000 NA
ATOM      9  C   UNL     1       3.460   4.807  17.186  0.00  0.00    +0.000 C 
ENDROOT
BRANCH   1  10
ATOM     10  C   UNL     1       6.666   4.563  17.263  0.00  0.00    +0.000 C 
BRANCH  10  14
ATOM     11  C   UNL     1       6.605   4.435  13.724  0.00  0.00    +0.000 A 
ATOM     12  N   UNL     1       7.562   5.341  13.802  0.00  0.00    +0.000 NA
ATOM     13  N   UNL     1       7.767   5.594  15.156  0.00  0.00    +0.000 NA
ATOM     14  C   UNL     1       6.939   4.805  15.815  0.00  0.00    +0.000 A 
ATOM     15  O   UNL     1       6.123   4.095  14.958  0.00  0.00    +0.000 OA
BRANCH  11  19
ATOM     16  C   UNL     1       5.273   1.679  10.748  0.00  0.00    +0.000 A 
ATOM     17  C   UNL     1       6.611   1.705  11.138  0.00  0.00    +0.000 A 
ATOM     18  C   UNL     1       7.054   2.662  12.057  0.00  0.00    +0.000 A 
ATOM     19  C   UNL     1       6.163   3.586  12.617  0.00  0.00    +0.000 A 
ATOM     20  C   UNL     1       4.830   3.581  12.173  0.00  0.00    +0.000 A 
ATOM     21  C   UNL     1       4.389   2.633  11.247  0.00  0.00    +0.000 A 
ENDBRANCH  11  19
ENDBRANCH  10  14
ENDBRANCH   1  10
BRANCH   8  22
ATOM     22  C   UNL     1       3.774   2.597  18.409  0.00  0.00    +0.000 C 
BRANCH  22  23
ATOM     23  C   UNL     1       2.465   2.080  18.993  0.00  0.00    +0.000 C 
ATOM     24  C   UNL     1       2.106   2.520  20.424  0.00  0.00    +0.000 C 
ATOM     25  C   UNL     1       0.699   2.884  19.921  0.00  0.00    +0.000 C 
ATOM     26  C   UNL     1       1.233   2.851  18.482  0.00  0.00    +0.000 C 
ENDBRANCH  22  23
ENDBRANCH   8  22
TORSDOF 5
ENDMDL
MODEL 6
REMARK VINA RESULT:      -8.4      0.879      1.456
REMARK  Name = 
REMARK  5 active torsions:
REMARK  status: ('A' for Active; 'I' for Inactive)
REMARK    1  A    between atoms: C_4  and  C_5
REMARK    2  A    between atoms: C_8  and  C_9
REMARK    3  A    between atoms: C_9  and  N_10
REMARK    4  A    between atoms: N_17  and  C_18
REMARK    5  A    between atoms: C_18  and  C_19
REMARK                            x       y       z     vdW  Elec       q    Type
REMARK                         _______ _______ _______ _____ _____    ______ ____
ROOT
ATOM      1  N   UNL     1       4.435   3.200  18.792  0.00  0.00    +0.000 NA
ATOM      2  C   UNL     1       3.795   2.859  20.078  0.00  0.00    +0.000 C 
ATOM      3  C   UNL     1       2.622   3.755  20.595  0.00  0.00    +0.000 C 
ATOM      4  C   UNL     1       1.278   3.238  20.059  0.00  0.00    +0.000 C 
ATOM      5  C   UNL     1       1.004   3.766  18.655  0.00  0.00    +0.000 C 
ATOM      6  C   UNL     1       2.244   4.375  17.981  0.00  0.00    +0.000 C 
ATOM      7  C   UNL     1       3.431   3.395  17.739  0.00  0.00    +0.000 C 
ATOM      8  N   UNL     1       2.669   5.479  18.819  0.00  0.00    +0.000 NA
ATOM      9  C   UNL     1       2.710   5.270  20.255  0.00  0.00    +0.000 C 
ENDROOT
BRANCH   1  10
ATOM     10  C   UNL     1       5.490   4.225  19.023  0.00  0.00    +0.000 C 
BRANCH  10  14
ATOM     11  C   UNL     1       6.731   5.276  15.876  0.00  0.00    +0.000 A 
ATOM     12  N   UNL     1       7.380   6.185  16.580  0.00  0.00    +0.000 NA
ATOM     13  N   UNL     1       7.027   5.991  17.913  0.00  0.00    +0.000 NA
ATOM     14  C   UNL     1       6.206   4.958  17.937  0.00  0.00    +0.000 A 
ATOM     15  O   UNL     1       5.923   4.503  16.665  0.00  0.00    +0.000 OA
BRANCH  11  19
ATOM     16  C   UNL     1       6.935   4.108  11.775  0.00  0.00    +0.000 A 
ATOM     17  C   UNL     1       6.117   3.416  12.666  0.00  0.00    +0.000 A 
ATOM     18  C   UNL     1       6.114   3.756  14.024  0.00  0.00    +0.000 A 
ATOM     19  C   UNL     1       6.907   4.807  14.501  0.00  0.00    +0.000 A 
ATOM     20  C   UNL     1       7.765   5.458  13.600  0.00  0.00    +0.000 A 
ATOM     21  C   UNL     1       7.777   5.112  12.247  0.00  0.00    +0.000 A 
ENDBRANCH  11  19
ENDBRANCH  10  14
ENDBRANCH   1  10
BRANCH   8  22
ATOM     22  C   UNL     1       2.942   6.746  18.194  0.00  0.00    +0.000 C 
BRANCH  22  23
ATOM     23  C   UNL     1       1.760   7.703  18.285  0.00  0.00    +0.000 C 
ATOM     24  C   UNL     1       1.552   8.449  19.615  0.00  0.00    +0.000 C 
ATOM     25  C   UNL     1       1.399   9.755  18.820  0.00  0.00    +0.000 C 
ATOM     26  C   UNL     1       2.031   9.059  17.605  0.00  0.00    +0.000 C 
ENDBRANCH  22  23
ENDBRANCH   8  22
TORSDOF 5
ENDMDL
MODEL 7
REMARK VINA RESULT:      -8.4      3.128      7.376
REMARK  Name = 
REMARK  5 active torsions:
REMARK  status: ('A' for Active; 'I' for Inactive)
REMARK    1  A    between atoms: C_4  and  C_5
REMARK    2  A    between atoms: C_8  and  C_9
REMARK    3  A    between atoms: C_9  and  N_10
REMARK    4  A    between atoms: N_17  and  C_18
REMARK    5  A    between atoms: C_18  and  C_19
REMARK                            x       y       z     vdW  Elec       q    Type
REMARK                         _______ _______ _______ _____ _____    ______ ____
ROOT
ATOM      1  N   UNL     1       2.598   5.239  19.222  0.00  0.00    +0.000 NA
ATOM      2  C   UNL     1       1.720   4.244  18.576  0.00  0.00    +0.000 C 
ATOM      3  C   UNL     1       2.367   3.153  17.661  0.00  0.00    +0.000 C 
ATOM      4  C   UNL     1       2.758   1.921  18.491  0.00  0.00    +0.000 C 
ATOM      5  C   UNL     1       4.119   2.111  19.152  0.00  0.00    +0.000 C 
ATOM      6  C   UNL     1       4.607   3.568  19.132  0.00  0.00    +0.000 C 
ATOM      7  C   UNL     1       3.720   4.587  19.908  0.00  0.00    +0.000 C 
ATOM      8  N   UNL     1       4.709   3.951  17.738  0.00  0.00    +0.000 NA
ATOM      9  C   UNL     1       3.621   3.588  16.849  0.00  0.00    +0.000 C 
ENDROOT
BRANCH   1  10
ATOM     10  C   UNL     1       2.847   6.363  18.277  0.00  0.00    +0.000 C 
BRANCH  10  14
ATOM     11  C   UNL     1       1.426   9.330  19.592  0.00  0.00    +0.000 A 
ATOM     12  N   UNL     1       1.449   9.744  18.338  0.00  0.00    +0.000 NA
ATOM     13  N   UNL     1       2.012   8.717  17.585  0.00  0.00    +0.000 NA
ATOM     14  C   UNL     1       2.272   7.733  18.426  0.00  0.00    +0.000 A 
ATOM     15  O   UNL     1       1.986   8.089  19.728  0.00  0.00    +0.000 OA
BRANCH  11  19
ATOM     16  C   UNL     1      -0.971  10.658  22.865  0.00  0.00    +0.000 A 
ATOM     17  C   UNL     1      -0.872  11.425  21.706  0.00  0.00    +0.000 A 
ATOM     18  C   UNL     1      -0.025  11.021  20.668  0.00  0.00    +0.000 A 
ATOM     19  C   UNL     1       0.713   9.834  20.766  0.00  0.00    +0.000 A 
ATOM     20  C   UNL     1       0.643   9.101  21.962  0.00  0.00    +0.000 A 
ATOM     21  C   UNL     1      -0.194   9.510  23.003  0.00  0.00    +0.000 A 
ENDBRANCH  11  19
ENDBRANCH  10  14
ENDBRANCH   1  10
BRANCH   8  22
ATOM     22  C   UNL     1       5.917   4.591  17.291  0.00  0.00    +0.000 C 
BRANCH  22  23
ATOM     23  C   UNL     1       6.297   5.783  18.161  0.00  0.00    +0.000 C 
ATOM     24  C   UNL     1       7.686   5.761  18.825  0.00  0.00    +0.000 C 
ATOM     25  C   UNL     1       7.911   7.196  18.322  0.00  0.00    +0.000 C 
ATOM     26  C   UNL     1       6.745   7.008  17.340  0.00  0.00    +0.000 C 
ENDBRANCH  22  23
ENDBRANCH   8  22
TORSDOF 5
ENDMDL
MODEL 8
REMARK VINA RESULT:      -8.3      3.251      7.584
REMARK  Name = 
REMARK  5 active torsions:
REMARK  status: ('A' for Active; 'I' for Inactive)
REMARK    1  A    between atoms: C_4  and  C_5
REMARK    2  A    between atoms: C_8  and  C_9
REMARK    3  A    between atoms: C_9  and  N_10
REMARK    4  A    between atoms: N_17  and  C_18
REMARK    5  A    between atoms: C_18  and  C_19
REMARK                            x       y       z     vdW  Elec       q    Type
REMARK                         _______ _______ _______ _____ _____    ______ ____
ROOT
ATOM      1  N   UNL     1       3.163   5.905  19.821  0.00  0.00    +0.000 NA
ATOM      2  C   UNL     1       2.049   5.161  20.442  0.00  0.00    +0.000 C 
ATOM      3  C   UNL     1       1.682   3.750  19.877  0.00  0.00    +0.000 C 
ATOM      4  C   UNL     1       2.496   2.659  20.590  0.00  0.00    +0.000 C 
ATOM      5  C   UNL     1       3.877   2.503  19.962  0.00  0.00    +0.000 C 
ATOM      6  C   UNL     1       4.258   3.665  19.032  0.00  0.00    +0.000 C 
ATOM      7  C   UNL     1       4.361   5.065  19.709  0.00  0.00    +0.000 C 
ATOM      8  N   UNL     1       3.265   3.692  17.975  0.00  0.00    +0.000 NA
ATOM      9  C   UNL     1       1.869   3.548  18.346  0.00  0.00    +0.000 C 
ENDROOT
BRANCH   1  10
ATOM     10  C   UNL     1       2.656   6.653  18.637  0.00  0.00    +0.000 C 
BRANCH  10  14
ATOM     11  C   UNL     1       1.007   9.592  19.727  0.00  0.00    +0.000 A 
ATOM     12  N   UNL     1       1.195  10.003  18.487  0.00  0.00    +0.000 NA
ATOM     13  N   UNL     1       1.878   8.986  17.824  0.00  0.00    +0.000 NA
ATOM     14  C   UNL     1       2.038   8.010  18.698  0.00  0.00    +0.000 A 
ATOM     15  O   UNL     1       1.568   8.363  19.946  0.00  0.00    +0.000 OA
BRANCH  11  19
ATOM     16  C   UNL     1      -1.247  11.179  22.987  0.00  0.00    +0.000 A 
ATOM     17  C   UNL     1      -0.595   9.953  23.110  0.00  0.00    +0.000 A 
ATOM     18  C   UNL     1       0.077   9.404  22.013  0.00  0.00    +0.000 A 
ATOM     19  C   UNL     1       0.129  10.084  20.789  0.00  0.00    +0.000 A 
ATOM     20  C   UNL     1      -0.578  11.291  20.666  0.00  0.00    +0.000 A 
ATOM     21  C   UNL     1      -1.260  11.835  21.758  0.00  0.00    +0.000 A 
ENDBRANCH  11  19
ENDBRANCH  10  14
ENDBRANCH   1  10
BRANCH   8  22
ATOM     22  C   UNL     1       3.719   3.770  16.612  0.00  0.00    +0.000 C 
BRANCH  22  23
ATOM     23  C   UNL     1       5.163   4.245  16.509  0.00  0.00    +0.000 C 
ATOM     24  C   UNL     1       5.984   3.757  15.302  0.00  0.00    +0.000 C 
ATOM     25  C   UNL     1       6.430   5.209  15.063  0.00  0.00    +0.000 C 
ATOM     26  C   UNL     1       5.285   5.683  15.969  0.00  0.00    +0.000 C 
ENDBRANCH  22  23
ENDBRANCH   8  22
TORSDOF 5
ENDMDL
MODEL 9
REMARK VINA RESULT:      -8.2      3.113      7.564
REMARK  Name = 
REMARK  5 active torsions:
REMARK  status: ('A' for Active; 'I' for Inactive)
REMARK    1  A    between atoms: C_4  and  C_5
REMARK    2  A    between atoms: C_8  and  C_9
REMARK    3  A    between atoms: C_9  and  N_10
REMARK    4  A    between atoms: N_17  and  C_18
REMARK    5  A    between atoms: C_18  and  C_19
REMARK                            x       y       z     vdW  Elec       q    Type
REMARK                         _______ _______ _______ _____ _____    ______ ____
ROOT
ATOM      1  N   UNL     1       2.590   5.242  19.708  0.00  0.00    +0.000 NA
ATOM      2  C   UNL     1       1.448   4.465  19.188  0.00  0.00    +0.000 C 
ATOM      3  C   UNL     1       1.723   3.333  18.145  0.00  0.00    +0.000 C 
ATOM      4  C   UNL     1       1.998   2.002  18.861  0.00  0.00    +0.000 C 
ATOM      5  C   UNL     1       3.457   1.898  19.292  0.00  0.00    +0.000 C 
ATOM      6  C   UNL     1       4.205   3.240  19.236  0.00  0.00    +0.000 C 
ATOM      7  C   UNL     1       3.661   4.355  20.179  0.00  0.00    +0.000 C 
ATOM      8  N   UNL     1       4.157   3.682  17.856  0.00  0.00    +0.000 NA
ATOM      9  C   UNL     1       2.893   3.580  17.150  0.00  0.00    +0.000 C 
ENDROOT
BRANCH   1  10
ATOM     10  C   UNL     1       2.897   6.357  18.770  0.00  0.00    +0.000 C 
BRANCH  10  14
ATOM     11  C   UNL     1       1.136   9.266  19.762  0.00  0.00    +0.000 A 
ATOM     12  N   UNL     1       1.246   9.610  18.492  0.00  0.00    +0.000 NA
ATOM     13  N   UNL     1       1.955   8.592  17.859  0.00  0.00    +0.000 NA
ATOM     14  C   UNL     1       2.208   7.681  18.780  0.00  0.00    +0.000 A 
ATOM     15  O   UNL     1       1.774   8.085  20.026  0.00  0.00    +0.000 OA
BRANCH  11  19
ATOM     16  C   UNL     1      -1.053  10.901  23.042  0.00  0.00    +0.000 A 
ATOM     17  C   UNL     1      -0.409   9.671  23.166  0.00  0.00    +0.000 A 
ATOM     18  C   UNL     1       0.241   9.106  22.063  0.00  0.00    +0.000 A 
ATOM     19  C   UNL     1       0.279   9.775  20.833  0.00  0.00    +0.000 A 
ATOM     20  C   UNL     1      -0.419  10.987  20.711  0.00  0.00    +0.000 A 
ATOM     21  C   UNL     1      -1.079  11.547  21.808  0.00  0.00    +0.000 A 
ENDBRANCH  11  19
ENDBRANCH  10  14
ENDBRANCH   1  10
BRANCH   8  22
ATOM     22  C   UNL     1       5.379   4.117  17.234  0.00  0.00    +0.000 C 
BRANCH  22  23
ATOM     23  C   UNL     1       5.216   4.349  15.738  0.00  0.00    +0.000 C 
ATOM     24  C   UNL     1       5.692   5.701  15.175  0.00  0.00    +0.000 C 
ATOM     25  C   UNL     1       6.438   4.938  14.068  0.00  0.00    +0.000 C 
ATOM     26  C   UNL     1       6.307   3.654  14.899  0.00  0.00    +0.000 C 
ENDBRANCH  22  23
ENDBRANCH   8  22
TORSDOF 5
ENDMDL
