MODEL 1
REMARK VINA RESULT:      -6.8      0.000      0.000
REMARK  Name = 
REMARK  6 active torsions:
REMARK  status: ('A' for Active; 'I' for Inactive)
REMARK    1  A    between atoms: C_1  and  C_2
REMARK    2  A    between atoms: C_5  and  C_6
REMARK    3  A    between atoms: C_7  and  C_8
REMARK    4  A    between atoms: C_8  and  N_9
REMARK    5  A    between atoms: N_15  and  C_16
REMARK    6  A    between atoms: C_16  and  C_17
REMARK                            x       y       z     vdW  Elec       q    Type
REMARK                         _______ _______ _______ _____ _____    ______ ____
ROOT
ATOM      1  N   UNL     1       2.902   6.307  20.129  0.00  0.00    +0.000 N 
ATOM      2  C   UNL     1       2.605   7.362  19.311  0.00  0.00    +0.000 C 
ATOM      3  O   UNL     1       3.051   7.443  18.171  0.00  0.00    +0.000 OA
ATOM      4  N   UNL     1       1.782   8.323  19.864  0.00  0.00    +0.000 N 
ATOM      5  C   UNL     1       1.361   9.466  19.044  0.00  0.00    +0.000 C 
ATOM      6  C   UNL     1      -0.148   9.751  19.210  0.00  0.00    +0.000 C 
ATOM      7  N   UNL     1      -0.627   9.845  20.611  0.00  0.00    +0.000 NA
ATOM      8  C   UNL     1      -0.159   8.648  21.351  0.00  0.00    +0.000 C 
ATOM      9  C   UNL     1       1.363   8.413  21.265  0.00  0.00    +0.000 C 
ATOM     10  H   UNL     1       2.191   6.048  20.790  0.00  0.00    +0.000 HD
ENDROOT
BRANCH   1  11
ATOM     11  C   UNL     1       3.707   5.205  19.650  0.00  0.00    +0.000 C 
BRANCH  11  18
ATOM     12  C   UNL     1       4.278   4.223  16.611  0.00  0.00    +0.000 C 
ATOM     13  C   UNL     1       3.110   3.906  17.468  0.00  0.00    +0.000 A 
ATOM     14  N   UNL     1       2.121   3.137  17.002  0.00  0.00    +0.000 NA
ATOM     15  O   UNL     1       1.198   3.050  18.022  0.00  0.00    +0.000 OA
ATOM     16  C   UNL     1       1.635   3.760  19.096  0.00  0.00    +0.000 A 
ATOM     17  C   UNL     1       0.736   3.775  20.265  0.00  0.00    +0.000 C 
ATOM     18  C   UNL     1       2.860   4.327  18.807  0.00  0.00    +0.000 A 
ENDBRANCH  11  18
ENDBRANCH   1  11
BRANCH   7  19
ATOM     19  C   UNL     1      -0.190  11.066  21.297  0.00  0.00    +0.000 C 
BRANCH  19  20
ATOM     20  C   UNL     1      -1.344  11.889  21.777  0.00  0.00    +0.000 C 
ATOM     21  C   UNL     1      -1.914  11.622  23.150  0.00  0.00    +0.000 C 
ATOM     22  C   UNL     1      -1.163  12.896  22.888  0.00  0.00    +0.000 C 
ENDBRANCH  19  20
ENDBRANCH   7  19
TORSDOF 4
ENDMDL
MODEL 2
REMARK VINA RESULT:      -6.8      0.449      1.774
REMARK  Name = 
REMARK  6 active torsions:
REMARK  status: ('A' for Active; 'I' for Inactive)
REMARK    1  A    between atoms: C_1  and  C_2
REMARK    2  A    between atoms: C_5  and  C_6
REMARK    3  A    between atoms: C_7  and  C_8
REMARK    4  A    between atoms: C_8  and  N_9
REMARK    5  A    between atoms: N_15  and  C_16
REMARK    6  A    between atoms: C_16  and  C_17
REMARK                            x       y       z     vdW  Elec       q    Type
REMARK                         _______ _______ _______ _____ _____    ______ ____
ROOT
ATOM      1  N   UNL     1       2.856   6.357  20.100  0.00  0.00    +0.000 N 
ATOM      2  C   UNL     1       2.608   7.399  19.250  0.00  0.00    +0.000 C 
ATOM      3  O   UNL     1       3.098   7.451  18.127  0.00  0.00    +0.000 OA
ATOM      4  N   UNL     1       1.779   8.384  19.752  0.00  0.00    +0.000 N 
ATOM      5  C   UNL     1       1.408   9.516  18.894  0.00  0.00    +0.000 C 
ATOM      6  C   UNL     1      -0.102   9.827  18.996  0.00  0.00    +0.000 C 
ATOM      7  N   UNL     1      -0.632   9.956  20.375  0.00  0.00    +0.000 NA
ATOM      8  C   UNL     1      -0.212   8.768  21.156  0.00  0.00    +0.000 C 
ATOM      9  C   UNL     1       1.308   8.508  21.134  0.00  0.00    +0.000 C 
ATOM     10  H   UNL     1       2.116   6.122  20.737  0.00  0.00    +0.000 HD
ENDROOT
BRANCH   1  11
ATOM     11  C   UNL     1       3.662   5.234  19.673  0.00  0.00    +0.000 C 
BRANCH  11  18
ATOM     12  C   UNL     1       0.822   3.811  20.336  0.00  0.00    +0.000 C 
ATOM     13  C   UNL     1       1.605   3.744  19.078  0.00  0.00    +0.000 A 
ATOM     14  N   UNL     1       1.161   3.019  18.047  0.00  0.00    +0.000 NA
ATOM     15  O   UNL     1       2.111   3.152  17.056  0.00  0.00    +0.000 OA
ATOM     16  C   UNL     1       3.116   3.956  17.492  0.00  0.00    +0.000 A 
ATOM     17  C   UNL     1       4.221   4.176  16.540  0.00  0.00    +0.000 C 
ATOM     18  C   UNL     1       2.847   4.375  18.779  0.00  0.00    +0.000 A 
ENDBRANCH  11  18
ENDBRANCH   1  11
BRANCH   7  19
ATOM     19  C   UNL     1      -0.203  11.184  21.054  0.00  0.00    +0.000 C 
BRANCH  19  20
ATOM     20  C   UNL     1      -1.346  11.901  21.703  0.00  0.00    +0.000 C 
ATOM     21  C   UNL     1      -1.734  11.534  23.115  0.00  0.00    +0.000 C 
ATOM     22  C   UNL     1      -1.103  12.869  22.837  0.00  0.00    +0.000 C 
ENDBRANCH  19  20
ENDBRANCH   7  19
TORSDOF 4
ENDMDL
MODEL 3
REMARK VINA RESULT:      -6.6      1.496      1.726
REMARK  Name = 
REMARK  6 active torsions:
REMARK  status: ('A' for Active; 'I' for Inactive)
REMARK    1  A    between atoms: C_1  and  C_2
REMARK    2  A    between atoms: C_5  and  C_6
REMARK    3  A    between atoms: C_7  and  C_8
REMARK    4  A    between atoms: C_8  and  N_9
REMARK    5  A    between atoms: N_15  and  C_16
REMARK    6  A    between atoms: C_16  and  C_17
REMARK                            x       y       z     vdW  Elec       q    Type
REMARK                         _______ _______ _______ _____ _____    ______ ____
ROOT
ATOM      1  N   UNL     1       2.630   7.077  18.878  0.00  0.00    +0.000 N 
ATOM      2  C   UNL     1       2.113   8.286  18.502  0.00  0.00    +0.000 C 
ATOM      3  O   UNL     1       2.262   8.730  17.368  0.00  0.00    +0.000 OA
ATOM      4  N   UNL     1       1.427   8.966  19.489  0.00  0.00    +0.000 N 
ATOM      5  C   UNL     1       0.787  10.248  19.166  0.00  0.00    +0.000 C 
ATOM      6  C   UNL     1      -0.641  10.325  19.748  0.00  0.00    +0.000 C 
ATOM      7  N   UNL     1      -0.762   9.972  21.184  0.00  0.00    +0.000 NA
ATOM      8  C   UNL     1      -0.096   8.666  21.406  0.00  0.00    +0.000 C 
ATOM      9  C   UNL     1       1.364   8.615  20.910  0.00  0.00    +0.000 C 
ATOM     10  H   UNL     1       2.111   6.573  19.575  0.00  0.00    +0.000 HD
ENDROOT
BRANCH   1  11
ATOM     11  C   UNL     1       3.321   6.240  17.922  0.00  0.00    +0.000 C 
BRANCH  11  18
ATOM     12  C   UNL     1       6.171   5.321  19.170  0.00  0.00    +0.000 C 
ATOM     13  C   UNL     1       4.908   4.545  19.109  0.00  0.00    +0.000 A 
ATOM     14  N   UNL     1       4.858   3.301  19.595  0.00  0.00    +0.000 NA
ATOM     15  O   UNL     1       3.571   2.861  19.373  0.00  0.00    +0.000 OA
ATOM     16  C   UNL     1       2.853   3.839  18.761  0.00  0.00    +0.000 A 
ATOM     17  C   UNL     1       1.453   3.503  18.441  0.00  0.00    +0.000 C 
ATOM     18  C   UNL     1       3.652   4.948  18.570  0.00  0.00    +0.000 A 
ENDBRANCH  11  18
ENDBRANCH   1  11
BRANCH   7  19
ATOM     19  C   UNL     1      -0.201  10.985  22.085  0.00  0.00    +0.000 C 
BRANCH  19  20
ATOM     20  C   UNL     1      -0.940  12.285  22.004  0.00  0.00    +0.000 C 
ATOM     21  C   UNL     1      -2.384  12.335  22.442  0.00  0.00    +0.000 C 
ATOM     22  C   UNL     1      -1.331  13.027  23.260  0.00  0.00    +0.000 C 
ENDBRANCH  19  20
ENDBRANCH   7  19
TORSDOF 4
ENDMDL
MODEL 4
REMARK VINA RESULT:      -6.5      2.765      5.171
REMARK  Name = 
REMARK  6 active torsions:
REMARK  status: ('A' for Active; 'I' for Inactive)
REMARK    1  A    between atoms: C_1  and  C_2
REMARK    2  A    between atoms: C_5  and  C_6
REMARK    3  A    between atoms: C_7  and  C_8
REMARK    4  A    between atoms: C_8  and  N_9
REMARK    5  A    between atoms: N_15  and  C_16
REMARK    6  A    between atoms: C_16  and  C_17
REMARK                            x       y       z     vdW  Elec       q    Type
REMARK                         _______ _______ _______ _____ _____    ______ ____
ROOT
ATOM      1  N   UNL     1       4.267   4.097  16.807  0.00  0.00    +0.000 N 
ATOM      2  C   UNL     1       3.090   3.651  17.343  0.00  0.00    +0.000 C 
ATOM      3  O   UNL     1       2.578   2.592  16.993  0.00  0.00    +0.000 OA
ATOM      4  N   UNL     1       2.522   4.480  18.290  0.00  0.00    +0.000 N 
ATOM      5  C   UNL     1       1.286   4.060  18.964  0.00  0.00    +0.000 C 
ATOM      6  C   UNL     1       1.362   4.312  20.485  0.00  0.00    +0.000 C 
ATOM      7  N   UNL     1       1.796   5.674  20.883  0.00  0.00    +0.000 NA
ATOM      8  C   UNL     1       3.049   6.000  20.160  0.00  0.00    +0.000 C 
ATOM      9  C   UNL     1       2.948   5.840  18.629  0.00  0.00    +0.000 C 
ATOM     10  H   UNL     1       4.847   4.646  17.416  0.00  0.00    +0.000 HD
ENDROOT
BRANCH   1  11
ATOM     11  C   UNL     1       4.991   3.294  15.847  0.00  0.00    +0.000 C 
BRANCH  11  18
ATOM     12  C   UNL     1       5.739   3.553  12.701  0.00  0.00    +0.000 C 
ATOM     13  C   UNL     1       6.384   4.231  13.851  0.00  0.00    +0.000 A 
ATOM     14  N   UNL     1       7.416   5.057  13.653  0.00  0.00    +0.000 NA
ATOM     15  O   UNL     1       7.789   5.502  14.904  0.00  0.00    +0.000 OA
ATOM     16  C   UNL     1       6.980   4.947  15.845  0.00  0.00    +0.000 A 
ATOM     17  C   UNL     1       7.273   5.318  17.243  0.00  0.00    +0.000 C 
ATOM     18  C   UNL     1       6.053   4.128  15.233  0.00  0.00    +0.000 A 
ENDBRANCH  11  18
ENDBRANCH   1  11
BRANCH   7  19
ATOM     19  C   UNL     1       0.785   6.707  20.633  0.00  0.00    +0.000 C 
BRANCH  19  20
ATOM     20  C   UNL     1       1.174   8.032  21.210  0.00  0.00    +0.000 C 
ATOM     21  C   UNL     1       0.851   9.290  20.440  0.00  0.00    +0.000 C 
ATOM     22  C   UNL     1       0.123   8.990  21.719  0.00  0.00    +0.000 C 
ENDBRANCH  19  20
ENDBRANCH   7  19
TORSDOF 4
ENDMDL
MODEL 5
REMARK VINA RESULT:      -6.5      2.050      7.934
REMARK  Name = 
REMARK  6 active torsions:
REMARK  status: ('A' for Active; 'I' for Inactive)
REMARK    1  A    between atoms: C_1  and  C_2
REMARK    2  A    between atoms: C_5  and  C_6
REMARK    3  A    between atoms: C_7  and  C_8
REMARK    4  A    between atoms: C_8  and  N_9
REMARK    5  A    between atoms: N_15  and  C_16
REMARK    6  A    between atoms: C_16  and  C_17
REMARK                            x       y       z     vdW  Elec       q    Type
REMARK                         _______ _______ _______ _____ _____    ______ ____
ROOT
ATOM      1  N   UNL     1       2.185   7.216  20.350  0.00  0.00    +0.000 N 
ATOM      2  C   UNL     1       2.221   5.868  20.121  0.00  0.00    +0.000 C 
ATOM      3  O   UNL     1       1.493   5.088  20.727  0.00  0.00    +0.000 OA
ATOM      4  N   UNL     1       3.135   5.456  19.171  0.00  0.00    +0.000 N 
ATOM      5  C   UNL     1       3.208   4.033  18.815  0.00  0.00    +0.000 C 
ATOM      6  C   UNL     1       3.291   3.841  17.285  0.00  0.00    +0.000 C 
ATOM      7  N   UNL     1       4.321   4.657  16.597  0.00  0.00    +0.000 NA
ATOM      8  C   UNL     1       4.161   6.070  17.014  0.00  0.00    +0.000 C 
ATOM      9  C   UNL     1       4.172   6.278  18.543  0.00  0.00    +0.000 C 
ATOM     10  H   UNL     1       2.400   7.802  19.564  0.00  0.00    +0.000 HD
ENDROOT
BRANCH   1  11
ATOM     11  C   UNL     1       1.231   7.781  21.279  0.00  0.00    +0.000 C 
BRANCH  11  18
ATOM     12  C   UNL     1      -0.408  10.089  22.865  0.00  0.00    +0.000 C 
ATOM     13  C   UNL     1       0.050  10.101  21.454  0.00  0.00    +0.000 A 
ATOM     14  N   UNL     1      -0.217  11.149  20.669  0.00  0.00    +0.000 NA
ATOM     15  O   UNL     1       0.322  10.843  19.437  0.00  0.00    +0.000 OA
ATOM     16  C   UNL     1       0.911   9.619  19.487  0.00  0.00    +0.000 A 
ATOM     17  C   UNL     1       1.518   9.147  18.228  0.00  0.00    +0.000 C 
ATOM     18  C   UNL     1       0.778   9.093  20.756  0.00  0.00    +0.000 A 
ENDBRANCH  11  18
ENDBRANCH   1  11
BRANCH   7  19
ATOM     19  C   UNL     1       5.693   4.206  16.857  0.00  0.00    +0.000 C 
BRANCH  19  20
ATOM     20  C   UNL     1       6.411   3.824  15.600  0.00  0.00    +0.000 C 
ATOM     21  C   UNL     1       5.803   4.192  14.268  0.00  0.00    +0.000 C 
ATOM     22  C   UNL     1       7.058   4.876  14.731  0.00  0.00    +0.000 C 
ENDBRANCH  19  20
ENDBRANCH   7  19
TORSDOF 4
ENDMDL
MODEL 6
REMARK VINA RESULT:      -6.5      1.427      1.734
REMARK  Name = 
REMARK  6 active torsions:
REMARK  status: ('A' for Active; 'I' for Inactive)
REMARK    1  A    between atoms: C_1  and  C_2
REMARK    2  A    between atoms: C_5  and  C_6
REMARK    3  A    between atoms: C_7  and  C_8
REMARK    4  A    between atoms: C_8  and  N_9
REMARK    5  A    between atoms: N_15  and  C_16
REMARK    6  A    between atoms: C_16  and  C_17
REMARK                            x       y       z     vdW  Elec       q    Type
REMARK                         _______ _______ _______ _____ _____    ______ ____
ROOT
ATOM      1  N   UNL     1       2.844   6.603  19.802  0.00  0.00    +0.000 N 
ATOM      2  C   UNL     1       2.647   7.521  18.808  0.00  0.00    +0.000 C 
ATOM      3  O   UNL     1       3.189   7.416  17.712  0.00  0.00    +0.000 OA
ATOM      4  N   UNL     1       1.806   8.568  19.130  0.00  0.00    +0.000 N 
ATOM      5  C   UNL     1       1.487   9.574  18.109  0.00  0.00    +0.000 C 
ATOM      6  C   UNL     1      -0.022   9.902  18.096  0.00  0.00    +0.000 C 
ATOM      7  N   UNL     1      -0.615  10.221  19.417  0.00  0.00    +0.000 NA
ATOM      8  C   UNL     1      -0.245   9.149  20.372  0.00  0.00    +0.000 C 
ATOM      9  C   UNL     1       1.272   8.882  20.458  0.00  0.00    +0.000 C 
ATOM     10  H   UNL     1       2.073   6.461  20.430  0.00  0.00    +0.000 HD
ENDROOT
BRANCH   1  11
ATOM     11  C   UNL     1       3.657   5.429  19.572  0.00  0.00    +0.000 C 
BRANCH  11  18
ATOM     12  C   UNL     1       4.325   4.269  16.617  0.00  0.00    +0.000 C 
ATOM     13  C   UNL     1       3.162   3.952  17.481  0.00  0.00    +0.000 A 
ATOM     14  N   UNL     1       2.221   3.102  17.058  0.00  0.00    +0.000 NA
ATOM     15  O   UNL     1       1.287   3.038  18.070  0.00  0.00    +0.000 OA
ATOM     16  C   UNL     1       1.671   3.843  19.096  0.00  0.00    +0.000 A 
ATOM     17  C   UNL     1       0.754   3.892  20.251  0.00  0.00    +0.000 C 
ATOM     18  C   UNL     1       2.870   4.452  18.783  0.00  0.00    +0.000 A 
ENDBRANCH  11  18
ENDBRANCH   1  11
BRANCH   7  19
ATOM     19  C   UNL     1      -0.205  11.528  19.942  0.00  0.00    +0.000 C 
BRANCH  19  20
ATOM     20  C   UNL     1      -0.388  12.623  18.938  0.00  0.00    +0.000 C 
ATOM     21  C   UNL     1      -0.442  14.054  19.417  0.00  0.00    +0.000 C 
ATOM     22  C   UNL     1       0.741  13.576  18.624  0.00  0.00    +0.000 C 
ENDBRANCH  19  20
ENDBRANCH   7  19
TORSDOF 4
ENDMDL
MODEL 7
REMARK VINA RESULT:      -6.5      1.616      2.224
REMARK  Name = 
REMARK  6 active torsions:
REMARK  status: ('A' for Active; 'I' for Inactive)
REMARK    1  A    between atoms: C_1  and  C_2
REMARK    2  A    between atoms: C_5  and  C_6
REMARK    3  A    between atoms: C_7  and  C_8
REMARK    4  A    between atoms: C_8  and  N_9
REMARK    5  A    between atoms: N_15  and  C_16
REMARK    6  A    between atoms: C_16  and  C_17
REMARK                            x       y       z     vdW  Elec       q    Type
REMARK                         _______ _______ _______ _____ _____    ______ ____
ROOT
ATOM      1  N   UNL     1       2.825   7.128  18.758  0.00  0.00    +0.000 N 
ATOM      2  C   UNL     1       2.218   8.299  18.398  0.00  0.00    +0.000 C 
ATOM      3  O   UNL     1       2.324   8.764  17.268  0.00  0.00    +0.000 OA
ATOM      4  N   UNL     1       1.490   8.916  19.397  0.00  0.00    +0.000 N 
ATOM      5  C   UNL     1       0.754  10.150  19.092  0.00  0.00    +0.000 C 
ATOM      6  C   UNL     1      -0.671  10.115  19.685  0.00  0.00    +0.000 C 
ATOM      7  N   UNL     1      -0.755   9.739  21.117  0.00  0.00    +0.000 NA
ATOM      8  C   UNL     1       0.009   8.484  21.321  0.00  0.00    +0.000 C 
ATOM      9  C   UNL     1       1.464   8.547  20.814  0.00  0.00    +0.000 C 
ATOM     10  H   UNL     1       2.350   6.580  19.453  0.00  0.00    +0.000 HD
ENDROOT
BRANCH   1  11
ATOM     11  C   UNL     1       3.569   6.354  17.788  0.00  0.00    +0.000 C 
BRANCH  11  18
ATOM     12  C   UNL     1       1.769   3.679  18.146  0.00  0.00    +0.000 C 
ATOM     13  C   UNL     1       3.172   3.899  18.574  0.00  0.00    +0.000 A 
ATOM     14  N   UNL     1       3.845   2.930  19.202  0.00  0.00    +0.000 NA
ATOM     15  O   UNL     1       5.092   3.450  19.472  0.00  0.00    +0.000 OA
ATOM     16  C   UNL     1       5.167   4.724  19.004  0.00  0.00    +0.000 A 
ATOM     17  C   UNL     1       6.446   5.421  19.240  0.00  0.00    +0.000 C 
ATOM     18  C   UNL     1       3.970   5.069  18.410  0.00  0.00    +0.000 A 
ENDBRANCH  11  18
ENDBRANCH   1  11
BRANCH   7  19
ATOM     19  C   UNL     1      -0.264  10.782  22.025  0.00  0.00    +0.000 C 
BRANCH  19  20
ATOM     20  C   UNL     1      -1.093  12.027  21.958  0.00  0.00    +0.000 C 
ATOM     21  C   UNL     1      -1.927  12.417  23.155  0.00  0.00    +0.000 C 
ATOM     22  C   UNL     1      -0.728  13.240  22.780  0.00  0.00    +0.000 C 
ENDBRANCH  19  20
ENDBRANCH   7  19
TORSDOF 4
ENDMDL
MODEL 8
REMARK VINA RESULT:      -6.5      1.414      2.382
REMARK  Name = 
REMARK  6 active torsions:
REMARK  status: ('A' for Active; 'I' for Inactive)
REMARK    1  A    between atoms: C_1  and  C_2
REMARK    2  A    between atoms: C_5  and  C_6
REMARK    3  A    between atoms: C_7  and  C_8
REMARK    4  A    between atoms: C_8  and  N_9
REMARK    5  A    between atoms: N_15  and  C_16
REMARK    6  A    between atoms: C_16  and  C_17
REMARK                            x       y       z     vdW  Elec       q    Type
REMARK                         _______ _______ _______ _____ _____    ______ ____
ROOT
ATOM      1  N   UNL     1       2.804   6.585  19.851  0.00  0.00    +0.000 N 
ATOM      2  C   UNL     1       2.612   7.509  18.861  0.00  0.00    +0.000 C 
ATOM      3  O   UNL     1       3.154   7.406  17.765  0.00  0.00    +0.000 OA
ATOM      4  N   UNL     1       1.778   8.560  19.188  0.00  0.00    +0.000 N 
ATOM      5  C   UNL     1       1.465   9.572  18.172  0.00  0.00    +0.000 C 
ATOM      6  C   UNL     1      -0.042   9.910  18.160  0.00  0.00    +0.000 C 
ATOM      7  N   UNL     1      -0.633  10.226  19.483  0.00  0.00    +0.000 NA
ATOM      8  C   UNL     1      -0.269   9.147  20.432  0.00  0.00    +0.000 C 
ATOM      9  C   UNL     1       1.246   8.871  20.517  0.00  0.00    +0.000 C 
ATOM     10  H   UNL     1       2.032   6.445  20.478  0.00  0.00    +0.000 HD
ENDROOT
BRANCH   1  11
ATOM     11  C   UNL     1       3.609   5.407  19.615  0.00  0.00    +0.000 C 
BRANCH  11  18
ATOM     12  C   UNL     1       0.831   3.898  20.341  0.00  0.00    +0.000 C 
ATOM     13  C   UNL     1       1.624   3.798  19.092  0.00  0.00    +0.000 A 
ATOM     14  N   UNL     1       1.220   2.999  18.099  0.00  0.00    +0.000 NA
ATOM     15  O   UNL     1       2.171   3.120  17.108  0.00  0.00    +0.000 OA
ATOM     16  C   UNL     1       3.136   3.990  17.504  0.00  0.00    +0.000 A 
ATOM     17  C   UNL     1       4.238   4.207  16.547  0.00  0.00    +0.000 C 
ATOM     18  C   UNL     1       2.840   4.466  18.765  0.00  0.00    +0.000 A 
ENDBRANCH  11  18
ENDBRANCH   1  11
BRANCH   7  19
ATOM     19  C   UNL     1      -0.214  11.528  20.014  0.00  0.00    +0.000 C 
BRANCH  19  20
ATOM     20  C   UNL     1      -0.909  12.667  19.334  0.00  0.00    +0.000 C 
ATOM     21  C   UNL     1      -0.739  14.062  19.884  0.00  0.00    +0.000 C 
ATOM     22  C   UNL     1      -0.121  13.700  18.563  0.00  0.00    +0.000 C 
ENDBRANCH  19  20
ENDBRANCH   7  19
TORSDOF 4
ENDMDL
MODEL 9
REMARK VINA RESULT:      -6.5      1.055      1.203
REMARK  Name = 
REMARK  6 active torsions:
REMARK  status: ('A' for Active; 'I' for Inactive)
REMARK    1  A    between atoms: C_1  and  C_2
REMARK    2  A    between atoms: C_5  and  C_6
REMARK    3  A    between atoms: C_7  and  C_8
REMARK    4  A    between atoms: C_8  and  N_9
REMARK    5  A    between atoms: N_15  and  C_16
REMARK    6  A    between atoms: C_16  and  C_17
REMARK                            x       y       z     vdW  Elec       q    Type
REMARK                         _______ _______ _______ _____ _____    ______ ____
ROOT
ATOM      1  N   UNL     1       2.830   6.574  19.844  0.00  0.00    +0.000 N 
ATOM      2  C   UNL     1       2.634   7.524  18.880  0.00  0.00    +0.000 C 
ATOM      3  O   UNL     1       3.180   7.457  17.784  0.00  0.00    +0.000 OA
ATOM      4  N   UNL     1       1.790   8.558  19.235  0.00  0.00    +0.000 N 
ATOM      5  C   UNL     1       1.472   9.597  18.247  0.00  0.00    +0.000 C 
ATOM      6  C   UNL     1      -0.037   9.922  18.240  0.00  0.00    +0.000 C 
ATOM      7  N   UNL     1      -0.635  10.196  19.570  0.00  0.00    +0.000 NA
ATOM      8  C   UNL     1      -0.265   9.093  20.490  0.00  0.00    +0.000 C 
ATOM      9  C   UNL     1       1.252   8.827  20.571  0.00  0.00    +0.000 C 
ATOM     10  H   UNL     1       2.058   6.409  20.465  0.00  0.00    +0.000 HD
ENDROOT
BRANCH   1  11
ATOM     11  C   UNL     1       3.646   5.410  19.577  0.00  0.00    +0.000 C 
BRANCH  11  18
ATOM     12  C   UNL     1       4.282   4.305  16.594  0.00  0.00    +0.000 C 
ATOM     13  C   UNL     1       3.130   3.969  17.465  0.00  0.00    +0.000 A 
ATOM     14  N   UNL     1       2.187   3.124  17.038  0.00  0.00    +0.000 NA
ATOM     15  O   UNL     1       1.265   3.039  18.060  0.00  0.00    +0.000 OA
ATOM     16  C   UNL     1       1.659   3.826  19.096  0.00  0.00    +0.000 A 
ATOM     17  C   UNL     1       0.755   3.852  20.262  0.00  0.00    +0.000 C 
ATOM     18  C   UNL     1       2.852   4.444  18.780  0.00  0.00    +0.000 A 
ENDBRANCH  11  18
ENDBRANCH   1  11
BRANCH   7  19
ATOM     19  C   UNL     1      -0.228  11.485  20.140  0.00  0.00    +0.000 C 
BRANCH  19  20
ATOM     20  C   UNL     1      -1.182  12.585  19.789  0.00  0.00    +0.000 C 
ATOM     21  C   UNL     1      -2.648  12.258  19.624  0.00  0.00    +0.000 C 
ATOM     22  C   UNL     1      -2.192  13.079  20.797  0.00  0.00    +0.000 C 
ENDBRANCH  19  20
ENDBRANCH   7  19
TORSDOF 4
ENDMDL
