MODEL 1
REMARK VINA RESULT:      -7.2      0.000      0.000
REMARK  Name = 
REMARK  7 active torsions:
REMARK  status: ('A' for Active; 'I' for Inactive)
REMARK    1  A    between atoms: C_1  and  C_2
REMARK    2  A    between atoms: C_3  and  O_4
REMARK    3  A    between atoms: C_7  and  C_8
REMARK    4  A    between atoms: N_9  and  N_10
REMARK    5  A    between atoms: N_10  and  C_11
REMARK    6  A    between atoms: C_16  and  N_17
REMARK    7  A    between atoms: C_20  and  O_21
REMARK                            x       y       z     vdW  Elec       q    Type
REMARK                         _______ _______ _______ _____ _____    ______ ____
ROOT
ATOM      1  C   UNL     1       3.249   6.003  18.654  0.00  0.00    +0.000 C 
ATOM      2  N   UNL     1       4.297   5.735  19.366  0.00  0.00    +0.000 NA
ENDROOT
BRANCH   1   8
ATOM      3  C   UNL     1       0.644   9.062  21.665  0.00  0.00    +0.000 C 
ATOM      4  C   UNL     1       1.206   8.774  20.301  0.00  0.00    +0.000 A 
ATOM      5  C   UNL     1       1.107   9.648  19.209  0.00  0.00    +0.000 A 
ATOM      6  C   UNL     1       1.692   9.340  17.980  0.00  0.00    +0.000 A 
ATOM      7  C   UNL     1       2.390   8.146  17.805  0.00  0.00    +0.000 A 
ATOM      8  C   UNL     1       2.493   7.252  18.874  0.00  0.00    +0.000 A 
ATOM      9  C   UNL     1       1.897   7.560  20.106  0.00  0.00    +0.000 A 
BRANCH   5  10
ATOM     10  O   UNL     1       0.454  10.846  19.248  0.00  0.00    +0.000 OA
ATOM     11  H   UNL     1       1.092  11.571  19.310  0.00  0.00    +0.000 HD
ENDBRANCH   5  10
BRANCH   9  12
ATOM     12  O   UNL     1       1.961   6.701  21.178  0.00  0.00    +0.000 OA
ATOM     13  H   UNL     1       2.089   5.783  20.841  0.00  0.00    +0.000 HD
ENDBRANCH   9  12
ENDBRANCH   1   8
BRANCH   2  14
ATOM     14  N   UNL     1       4.911   4.559  19.070  0.00  0.00    +0.000 N 
ATOM     15  H   UNL     1       4.444   3.684  19.330  0.00  0.00    +0.000 HD
BRANCH  14  16
ATOM     16  C   UNL     1       5.597   4.475  17.834  0.00  0.00    +0.000 A 
ATOM     17  N   UNL     1       4.988   3.822  16.806  0.00  0.00    +0.000 NA
ATOM     18  C   UNL     1       5.552   3.834  15.578  0.00  0.00    +0.000 A 
ATOM     19  C   UNL     1       6.736   4.483  15.287  0.00  0.00    +0.000 A 
ATOM     20  C   UNL     1       7.386   5.141  16.324  0.00  0.00    +0.000 A 
ATOM     21  C   UNL     1       6.814   5.137  17.609  0.00  0.00    +0.000 A 
BRANCH  21  22
ATOM     22  N   UNL     1       7.537   5.795  18.696  0.00  0.00    +0.000 N 
ATOM     23  O   UNL     1       7.937   6.956  18.525  0.00  0.00    +0.000 OA
ATOM     24  O   UNL     1       7.688   5.161  19.751  0.00  0.00    +0.000 OA
ENDBRANCH  21  22
ENDBRANCH  14  16
ENDBRANCH   2  14
TORSDOF 6
ENDMDL
MODEL 2
REMARK VINA RESULT:      -7.0      2.005      2.558
REMARK  Name = 
REMARK  7 active torsions:
REMARK  status: ('A' for Active; 'I' for Inactive)
REMARK    1  A    between atoms: C_1  and  C_2
REMARK    2  A    between atoms: C_3  and  O_4
REMARK    3  A    between atoms: C_7  and  C_8
REMARK    4  A    between atoms: N_9  and  N_10
REMARK    5  A    between atoms: N_10  and  C_11
REMARK    6  A    between atoms: C_16  and  N_17
REMARK    7  A    between atoms: C_20  and  O_21
REMARK                            x       y       z     vdW  Elec       q    Type
REMARK                         _______ _______ _______ _____ _____    ______ ____
ROOT
ATOM      1  C   UNL     1       2.800   7.324  18.102  0.00  0.00    +0.000 C 
ATOM      2  N   UNL     1       2.668   6.058  18.338  0.00  0.00    +0.000 NA
ENDROOT
BRANCH   1   8
ATOM      3  C   UNL     1       0.547   9.115  22.216  0.00  0.00    +0.000 C 
ATOM      4  C   UNL     1       0.782   9.212  20.734  0.00  0.00    +0.000 A 
ATOM      5  C   UNL     1       0.250  10.219  19.917  0.00  0.00    +0.000 A 
ATOM      6  C   UNL     1       0.545  10.278  18.555  0.00  0.00    +0.000 A 
ATOM      7  C   UNL     1       1.379   9.328  17.967  0.00  0.00    +0.000 A 
ATOM      8  C   UNL     1       1.912   8.306  18.757  0.00  0.00    +0.000 A 
ATOM      9  C   UNL     1       1.607   8.244  20.125  0.00  0.00    +0.000 A 
BRANCH   5  10
ATOM     10  O   UNL     1      -0.577  11.208  20.367  0.00  0.00    +0.000 OA
ATOM     11  H   UNL     1      -0.947  11.698  19.619  0.00  0.00    +0.000 HD
ENDBRANCH   5  10
BRANCH   9  12
ATOM     12  O   UNL     1       2.099   7.246  20.933  0.00  0.00    +0.000 OA
ATOM     13  H   UNL     1       3.085   7.268  20.900  0.00  0.00    +0.000 HD
ENDBRANCH   9  12
ENDBRANCH   1   8
BRANCH   2  14
ATOM     14  N   UNL     1       3.542   5.253  17.681  0.00  0.00    +0.000 N 
ATOM     15  H   UNL     1       3.339   5.000  16.708  0.00  0.00    +0.000 HD
BRANCH  14  16
ATOM     16  C   UNL     1       4.923   5.456  17.923  0.00  0.00    +0.000 A 
ATOM     17  N   UNL     1       5.373   5.340  19.204  0.00  0.00    +0.000 NA
ATOM     18  C   UNL     1       6.700   5.396  19.453  0.00  0.00    +0.000 A 
ATOM     19  C   UNL     1       7.657   5.566  18.472  0.00  0.00    +0.000 A 
ATOM     20  C   UNL     1       7.221   5.706  17.161  0.00  0.00    +0.000 A 
ATOM     21  C   UNL     1       5.843   5.652  16.882  0.00  0.00    +0.000 A 
BRANCH  21  22
ATOM     22  N   UNL     1       5.402   5.848  15.502  0.00  0.00    +0.000 N 
ATOM     23  O   UNL     1       5.282   4.853  14.771  0.00  0.00    +0.000 OA
ATOM     24  O   UNL     1       5.144   7.005  15.140  0.00  0.00    +0.000 OA
ENDBRANCH  21  22
ENDBRANCH  14  16
ENDBRANCH   2  14
TORSDOF 6
ENDMDL
MODEL 3
REMARK VINA RESULT:      -6.9      1.103      1.455
REMARK  Name = 
REMARK  7 active torsions:
REMARK  status: ('A' for Active; 'I' for Inactive)
REMARK    1  A    between atoms: C_1  and  C_2
REMARK    2  A    between atoms: C_3  and  O_4
REMARK    3  A    between atoms: C_7  and  C_8
REMARK    4  A    between atoms: N_9  and  N_10
REMARK    5  A    between atoms: N_10  and  C_11
REMARK    6  A    between atoms: C_16  and  N_17
REMARK    7  A    between atoms: C_20  and  O_21
REMARK                            x       y       z     vdW  Elec       q    Type
REMARK                         _______ _______ _______ _____ _____    ______ ____
ROOT
ATOM      1  C   UNL     1       3.315   6.140  18.166  0.00  0.00    +0.000 C 
ATOM      2  N   UNL     1       2.698   5.027  17.921  0.00  0.00    +0.000 NA
ENDROOT
BRANCH   1   8
ATOM      3  C   UNL     1       0.800   8.780  21.616  0.00  0.00    +0.000 C 
ATOM      4  C   UNL     1       1.315   8.667  20.208  0.00  0.00    +0.000 A 
ATOM      5  C   UNL     1       1.173   9.667  19.236  0.00  0.00    +0.000 A 
ATOM      6  C   UNL     1       1.715   9.518  17.959  0.00  0.00    +0.000 A 
ATOM      7  C   UNL     1       2.414   8.361  17.616  0.00  0.00    +0.000 A 
ATOM      8  C   UNL     1       2.560   7.345  18.563  0.00  0.00    +0.000 A 
ATOM      9  C   UNL     1       2.006   7.494  19.843  0.00  0.00    +0.000 A 
BRANCH   5  10
ATOM     10  O   UNL     1       0.514  10.844  19.443  0.00  0.00    +0.000 OA
ATOM     11  H   UNL     1       0.652  11.148  20.353  0.00  0.00    +0.000 HD
ENDBRANCH   5  10
BRANCH   9  12
ATOM     12  O   UNL     1       2.114   6.510  20.799  0.00  0.00    +0.000 OA
ATOM     13  H   UNL     1       2.775   6.795  21.473  0.00  0.00    +0.000 HD
ENDBRANCH   9  12
ENDBRANCH   1   8
BRANCH   2  14
ATOM     14  N   UNL     1       3.499   3.988  17.569  0.00  0.00    +0.000 N 
ATOM     15  H   UNL     1       3.063   3.135  17.205  0.00  0.00    +0.000 HD
BRANCH  14  16
ATOM     16  C   UNL     1       4.726   4.297  16.932  0.00  0.00    +0.000 A 
ATOM     17  N   UNL     1       4.727   4.443  15.578  0.00  0.00    +0.000 NA
ATOM     18  C   UNL     1       5.848   4.865  14.952  0.00  0.00    +0.000 A 
ATOM     19  C   UNL     1       7.024   5.169  15.610  0.00  0.00    +0.000 A 
ATOM     20  C   UNL     1       7.053   5.009  16.990  0.00  0.00    +0.000 A 
ATOM     21  C   UNL     1       5.896   4.569  17.658  0.00  0.00    +0.000 A 
BRANCH  21  22
ATOM     22  N   UNL     1       5.962   4.363  19.104  0.00  0.00    +0.000 N 
ATOM     23  O   UNL     1       5.360   3.395  19.593  0.00  0.00    +0.000 OA
ATOM     24  O   UNL     1       6.645   5.158  19.767  0.00  0.00    +0.000 OA
ENDBRANCH  21  22
ENDBRANCH  14  16
ENDBRANCH   2  14
TORSDOF 6
ENDMDL
MODEL 4
REMARK VINA RESULT:      -6.8      1.888      2.591
REMARK  Name = 
REMARK  7 active torsions:
REMARK  status: ('A' for Active; 'I' for Inactive)
REMARK    1  A    between atoms: C_1  and  C_2
REMARK    2  A    between atoms: C_3  and  O_4
REMARK    3  A    between atoms: C_7  and  C_8
REMARK    4  A    between atoms: N_9  and  N_10
REMARK    5  A    between atoms: N_10  and  C_11
REMARK    6  A    between atoms: C_16  and  N_17
REMARK    7  A    between atoms: C_20  and  O_21
REMARK                            x       y       z     vdW  Elec       q    Type
REMARK                         _______ _______ _______ _____ _____    ______ ____
ROOT
ATOM      1  C   UNL     1       2.961   7.203  18.263  0.00  0.00    +0.000 C 
ATOM      2  N   UNL     1       3.612   7.459  17.173  0.00  0.00    +0.000 NA
ENDROOT
BRANCH   1   8
ATOM      3  C   UNL     1       0.327   9.074  22.106  0.00  0.00    +0.000 C 
ATOM      4  C   UNL     1       0.677   9.120  20.645  0.00  0.00    +0.000 A 
ATOM      5  C   UNL     1       0.178  10.073  19.746  0.00  0.00    +0.000 A 
ATOM      6  C   UNL     1       0.578  10.087  18.409  0.00  0.00    +0.000 A 
ATOM      7  C   UNL     1       1.488   9.145  17.931  0.00  0.00    +0.000 A 
ATOM      8  C   UNL     1       1.991   8.177  18.803  0.00  0.00    +0.000 A 
ATOM      9  C   UNL     1       1.580   8.160  20.145  0.00  0.00    +0.000 A 
BRANCH   5  10
ATOM     10  O   UNL     1      -0.715  11.048  20.086  0.00  0.00    +0.000 OA
ATOM     11  H   UNL     1      -1.313  10.726  20.776  0.00  0.00    +0.000 HD
ENDBRANCH   5  10
BRANCH   9  12
ATOM     12  O   UNL     1       2.040   7.214  21.032  0.00  0.00    +0.000 OA
ATOM     13  H   UNL     1       1.466   6.415  20.968  0.00  0.00    +0.000 HD
ENDBRANCH   9  12
ENDBRANCH   1   8
BRANCH   2  14
ATOM     14  N   UNL     1       4.472   6.486  16.773  0.00  0.00    +0.000 N 
ATOM     15  H   UNL     1       4.472   6.208  15.786  0.00  0.00    +0.000 HD
BRANCH  14  16
ATOM     16  C   UNL     1       5.766   6.483  17.350  0.00  0.00    +0.000 A 
ATOM     17  N   UNL     1       6.556   7.575  17.158  0.00  0.00    +0.000 NA
ATOM     18  C   UNL     1       7.742   7.662  17.800  0.00  0.00    +0.000 A 
ATOM     19  C   UNL     1       8.220   6.694  18.661  0.00  0.00    +0.000 A 
ATOM     20  C   UNL     1       7.440   5.561  18.857  0.00  0.00    +0.000 A 
ATOM     21  C   UNL     1       6.203   5.452  18.196  0.00  0.00    +0.000 A 
BRANCH  21  22
ATOM     22  N   UNL     1       5.419   4.232  18.380  0.00  0.00    +0.000 N 
ATOM     23  O   UNL     1       5.361   3.729  19.512  0.00  0.00    +0.000 OA
ATOM     24  O   UNL     1       4.827   3.775  17.391  0.00  0.00    +0.000 OA
ENDBRANCH  21  22
ENDBRANCH  14  16
ENDBRANCH   2  14
TORSDOF 6
ENDMDL
MODEL 5
REMARK VINA RESULT:      -6.8      3.550      7.589
REMARK  Name = 
REMARK  7 active torsions:
REMARK  status: ('A' for Active; 'I' for Inactive)
REMARK    1  A    between atoms: C_1  and  C_2
REMARK    2  A    between atoms: C_3  and  O_4
REMARK    3  A    between atoms: C_7  and  C_8
REMARK    4  A    between atoms: N_9  and  N_10
REMARK    5  A    between atoms: N_10  and  C_11
REMARK    6  A    between atoms: C_16  and  N_17
REMARK    7  A    between atoms: C_20  and  O_21
REMARK                            x       y       z     vdW  Elec       q    Type
REMARK                         _______ _______ _______ _____ _____    ______ ____
ROOT
ATOM      1  C   UNL     1       1.443   6.246  20.983  0.00  0.00    +0.000 C 
ATOM      2  N   UNL     1       1.860   7.382  20.521  0.00  0.00    +0.000 NA
ENDROOT
BRANCH   1   8
ATOM      3  C   UNL     1       4.828   3.361  18.654  0.00  0.00    +0.000 C 
ATOM      4  C   UNL     1       3.425   3.541  19.161  0.00  0.00    +0.000 A 
ATOM      5  C   UNL     1       2.430   2.556  19.090  0.00  0.00    +0.000 A 
ATOM      6  C   UNL     1       1.158   2.770  19.622  0.00  0.00    +0.000 A 
ATOM      7  C   UNL     1       0.842   3.980  20.239  0.00  0.00    +0.000 A 
ATOM      8  C   UNL     1       1.812   4.983  20.313  0.00  0.00    +0.000 A 
ATOM      9  C   UNL     1       3.087   4.767  19.769  0.00  0.00    +0.000 A 
BRANCH   5  10
ATOM     10  O   UNL     1       2.610   1.331  18.514  0.00  0.00    +0.000 OA
ATOM     11  H   UNL     1       3.555   1.147  18.411  0.00  0.00    +0.000 HD
ENDBRANCH   5  10
BRANCH   9  12
ATOM     12  O   UNL     1       4.064   5.735  19.807  0.00  0.00    +0.000 OA
ATOM     13  H   UNL     1       3.728   6.543  19.354  0.00  0.00    +0.000 HD
ENDBRANCH   9  12
ENDBRANCH   1   8
BRANCH   2  14
ATOM     14  N   UNL     1       1.459   8.473  21.223  0.00  0.00    +0.000 N 
ATOM     15  H   UNL     1       2.084   8.849  21.944  0.00  0.00    +0.000 HD
BRANCH  14  16
ATOM     16  C   UNL     1       0.759   9.483  20.517  0.00  0.00    +0.000 A 
ATOM     17  N   UNL     1       0.947   9.570  19.170  0.00  0.00    +0.000 NA
ATOM     18  C   UNL     1       0.199  10.432  18.447  0.00  0.00    +0.000 A 
ATOM     19  C   UNL     1      -0.769  11.251  18.994  0.00  0.00    +0.000 A 
ATOM     20  C   UNL     1      -0.965  11.194  20.367  0.00  0.00    +0.000 A 
ATOM     21  C   UNL     1      -0.195  10.303  21.137  0.00  0.00    +0.000 A 
BRANCH  21  22
ATOM     22  N   UNL     1      -0.383  10.291  22.587  0.00  0.00    +0.000 N 
ATOM     23  O   UNL     1      -0.507  11.375  23.178  0.00  0.00    +0.000 OA
ATOM     24  O   UNL     1      -0.439   9.188  23.151  0.00  0.00    +0.000 OA
ENDBRANCH  21  22
ENDBRANCH  14  16
ENDBRANCH   2  14
TORSDOF 6
ENDMDL
MODEL 6
REMARK VINA RESULT:      -6.8      0.754      1.030
REMARK  Name = 
REMARK  7 active torsions:
REMARK  status: ('A' for Active; 'I' for Inactive)
REMARK    1  A    between atoms: C_1  and  C_2
REMARK    2  A    between atoms: C_3  and  O_4
REMARK    3  A    between atoms: C_7  and  C_8
REMARK    4  A    between atoms: N_9  and  N_10
REMARK    5  A    between atoms: N_10  and  C_11
REMARK    6  A    between atoms: C_16  and  N_17
REMARK    7  A    between atoms: C_20  and  O_21
REMARK                            x       y       z     vdW  Elec       q    Type
REMARK                         _______ _______ _______ _____ _____    ______ ____
ROOT
ATOM      1  C   UNL     1       2.802   6.607  19.384  0.00  0.00    +0.000 C 
ATOM      2  N   UNL     1       3.781   6.387  18.566  0.00  0.00    +0.000 NA
ENDROOT
BRANCH   1   8
ATOM      3  C   UNL     1       0.225  10.299  21.606  0.00  0.00    +0.000 C 
ATOM      4  C   UNL     1       0.749   9.678  20.341  0.00  0.00    +0.000 A 
ATOM      5  C   UNL     1       0.594  10.240  19.066  0.00  0.00    +0.000 A 
ATOM      6  C   UNL     1       1.145   9.635  17.936  0.00  0.00    +0.000 A 
ATOM      7  C   UNL     1       1.865   8.447  18.047  0.00  0.00    +0.000 A 
ATOM      8  C   UNL     1       2.024   7.860  19.305  0.00  0.00    +0.000 A 
ATOM      9  C   UNL     1       1.461   8.466  20.438  0.00  0.00    +0.000 A 
BRANCH   5  10
ATOM     10  O   UNL     1      -0.085  11.398  18.821  0.00  0.00    +0.000 OA
ATOM     11  H   UNL     1      -0.739  11.259  18.120  0.00  0.00    +0.000 HD
ENDBRANCH   5  10
BRANCH   9  12
ATOM     12  O   UNL     1       1.582   7.911  21.692  0.00  0.00    +0.000 OA
ATOM     13  H   UNL     1       2.483   7.520  21.780  0.00  0.00    +0.000 HD
ENDBRANCH   9  12
ENDBRANCH   1   8
BRANCH   2  14
ATOM     14  N   UNL     1       4.419   5.200  18.734  0.00  0.00    +0.000 N 
ATOM     15  H   UNL     1       3.905   4.424  19.164  0.00  0.00    +0.000 HD
BRANCH  14  16
ATOM     16  C   UNL     1       5.296   4.779  17.704  0.00  0.00    +0.000 A 
ATOM     17  N   UNL     1       4.762   4.130  16.633  0.00  0.00    +0.000 NA
ATOM     18  C   UNL     1       5.547   3.831  15.574  0.00  0.00    +0.000 A 
ATOM     19  C   UNL     1       6.889   4.149  15.501  0.00  0.00    +0.000 A 
ATOM     20  C   UNL     1       7.460   4.795  16.590  0.00  0.00    +0.000 A 
ATOM     21  C   UNL     1       6.659   5.113  17.702  0.00  0.00    +0.000 A 
BRANCH  21  22
ATOM     22  N   UNL     1       7.290   5.751  18.856  0.00  0.00    +0.000 N 
ATOM     23  O   UNL     1       7.089   5.270  19.982  0.00  0.00    +0.000 OA
ATOM     24  O   UNL     1       8.022   6.729  18.644  0.00  0.00    +0.000 OA
ENDBRANCH  21  22
ENDBRANCH  14  16
ENDBRANCH   2  14
TORSDOF 6
ENDMDL
MODEL 7
REMARK VINA RESULT:      -6.8      2.049      2.558
REMARK  Name = 
REMARK  7 active torsions:
REMARK  status: ('A' for Active; 'I' for Inactive)
REMARK    1  A    between atoms: C_1  and  C_2
REMARK    2  A    between atoms: C_3  and  O_4
REMARK    3  A    between atoms: C_7  and  C_8
REMARK    4  A    between atoms: N_9  and  N_10
REMARK    5  A    between atoms: N_10  and  C_11
REMARK    6  A    between atoms: C_16  and  N_17
REMARK    7  A    between atoms: C_20  and  O_21
REMARK                            x       y       z     vdW  Elec       q    Type
REMARK                         _______ _______ _______ _____ _____    ______ ____
ROOT
ATOM      1  C   UNL     1       2.952   6.381  18.721  0.00  0.00    +0.000 C 
ATOM      2  N   UNL     1       3.867   6.011  19.560  0.00  0.00    +0.000 NA
ENDROOT
BRANCH   1   8
ATOM      3  C   UNL     1       0.467   9.572  21.696  0.00  0.00    +0.000 C 
ATOM      4  C   UNL     1       0.992   9.234  20.329  0.00  0.00    +0.000 A 
ATOM      5  C   UNL     1       0.882  10.076  19.213  0.00  0.00    +0.000 A 
ATOM      6  C   UNL     1       1.432   9.721  17.981  0.00  0.00    +0.000 A 
ATOM      7  C   UNL     1       2.107   8.511  17.827  0.00  0.00    +0.000 A 
ATOM      8  C   UNL     1       2.221   7.649  18.920  0.00  0.00    +0.000 A 
ATOM      9  C   UNL     1       1.659   8.004  20.156  0.00  0.00    +0.000 A 
BRANCH   5  10
ATOM     10  O   UNL     1       0.249  11.285  19.230  0.00  0.00    +0.000 OA
ATOM     11  H   UNL     1       0.844  11.968  19.572  0.00  0.00    +0.000 HD
ENDBRANCH   5  10
BRANCH   9  12
ATOM     12  O   UNL     1       1.736   7.176  21.252  0.00  0.00    +0.000 OA
ATOM     13  H   UNL     1       1.001   7.400  21.869  0.00  0.00    +0.000 HD
ENDBRANCH   9  12
ENDBRANCH   1   8
BRANCH   2  14
ATOM     14  N   UNL     1       4.472   4.830  19.270  0.00  0.00    +0.000 N 
ATOM     15  H   UNL     1       4.023   3.961  19.578  0.00  0.00    +0.000 HD
BRANCH  14  16
ATOM     16  C   UNL     1       5.099   4.711  18.005  0.00  0.00    +0.000 A 
ATOM     17  N   UNL     1       6.181   5.497  17.750  0.00  0.00    +0.000 NA
ATOM     18  C   UNL     1       6.882   5.318  16.609  0.00  0.00    +0.000 A 
ATOM     19  C   UNL     1       6.568   4.366  15.659  0.00  0.00    +0.000 A 
ATOM     20  C   UNL     1       5.456   3.566  15.887  0.00  0.00    +0.000 A 
ATOM     21  C   UNL     1       4.714   3.738  17.070  0.00  0.00    +0.000 A 
BRANCH  21  22
ATOM     22  N   UNL     1       3.520   2.918  17.270  0.00  0.00    +0.000 N 
ATOM     23  O   UNL     1       3.655   1.784  17.753  0.00  0.00    +0.000 OA
ATOM     24  O   UNL     1       2.424   3.414  16.970  0.00  0.00    +0.000 OA
ENDBRANCH  21  22
ENDBRANCH  14  16
ENDBRANCH   2  14
TORSDOF 6
ENDMDL
MODEL 8
REMARK VINA RESULT:      -6.7      3.312      7.467
REMARK  Name = 
REMARK  7 active torsions:
REMARK  status: ('A' for Active; 'I' for Inactive)
REMARK    1  A    between atoms: C_1  and  C_2
REMARK    2  A    between atoms: C_3  and  O_4
REMARK    3  A    between atoms: C_7  and  C_8
REMARK    4  A    between atoms: N_9  and  N_10
REMARK    5  A    between atoms: N_10  and  C_11
REMARK    6  A    between atoms: C_16  and  N_17
REMARK    7  A    between atoms: C_20  and  O_21
REMARK                            x       y       z     vdW  Elec       q    Type
REMARK                         _______ _______ _______ _____ _____    ______ ____
ROOT
ATOM      1  C   UNL     1       1.620   5.747  20.584  0.00  0.00    +0.000 C 
ATOM      2  N   UNL     1       2.098   6.950  20.532  0.00  0.00    +0.000 NA
ENDROOT
BRANCH   1   8
ATOM      3  C   UNL     1       4.270   4.110  16.646  0.00  0.00    +0.000 C 
ATOM      4  C   UNL     1       3.550   3.800  17.928  0.00  0.00    +0.000 A 
ATOM      5  C   UNL     1       3.490   2.526  18.508  0.00  0.00    +0.000 A 
ATOM      6  C   UNL     1       2.842   2.313  19.726  0.00  0.00    +0.000 A 
ATOM      7  C   UNL     1       2.233   3.372  20.399  0.00  0.00    +0.000 A 
ATOM      8  C   UNL     1       2.268   4.650  19.837  0.00  0.00    +0.000 A 
ATOM      9  C   UNL     1       2.912   4.858  18.608  0.00  0.00    +0.000 A 
BRANCH   5  10
ATOM     10  O   UNL     1       4.045   1.409  17.954  0.00  0.00    +0.000 OA
ATOM     11  H   UNL     1       5.010   1.440  18.037  0.00  0.00    +0.000 HD
ENDBRANCH   5  10
BRANCH   9  12
ATOM     12  O   UNL     1       2.956   6.098  18.013  0.00  0.00    +0.000 OA
ATOM     13  H   UNL     1       3.531   6.046  17.214  0.00  0.00    +0.000 HD
ENDBRANCH   9  12
ENDBRANCH   1   8
BRANCH   2  14
ATOM     14  N   UNL     1       1.420   7.872  21.263  0.00  0.00    +0.000 N 
ATOM     15  H   UNL     1       1.723   8.055  22.225  0.00  0.00    +0.000 HD
BRANCH  14  16
ATOM     16  C   UNL     1       0.977   9.038  20.591  0.00  0.00    +0.000 A 
ATOM     17  N   UNL     1       1.219   9.140  19.255  0.00  0.00    +0.000 NA
ATOM     18  C   UNL     1       0.699  10.174  18.558  0.00  0.00    +0.000 A 
ATOM     19  C   UNL     1      -0.085  11.160  19.124  0.00  0.00    +0.000 A 
ATOM     20  C   UNL     1      -0.330  11.089  20.489  0.00  0.00    +0.000 A 
ATOM     21  C   UNL     1       0.206  10.020  21.231  0.00  0.00    +0.000 A 
BRANCH  21  22
ATOM     22  N   UNL     1      -0.025   9.989  22.675  0.00  0.00    +0.000 N 
ATOM     23  O   UNL     1       0.906   9.637  23.416  0.00  0.00    +0.000 OA
ATOM     24  O   UNL     1      -1.138  10.346  23.087  0.00  0.00    +0.000 OA
ENDBRANCH  21  22
ENDBRANCH  14  16
ENDBRANCH   2  14
TORSDOF 6
ENDMDL
MODEL 9
REMARK VINA RESULT:      -6.7      1.497      2.151
REMARK  Name = 
REMARK  7 active torsions:
REMARK  status: ('A' for Active; 'I' for Inactive)
REMARK    1  A    between atoms: C_1  and  C_2
REMARK    2  A    between atoms: C_3  and  O_4
REMARK    3  A    between atoms: C_7  and  C_8
REMARK    4  A    between atoms: N_9  and  N_10
REMARK    5  A    between atoms: N_10  and  C_11
REMARK    6  A    between atoms: C_16  and  N_17
REMARK    7  A    between atoms: C_20  and  O_21
REMARK                            x       y       z     vdW  Elec       q    Type
REMARK                         _______ _______ _______ _____ _____    ______ ____
ROOT
ATOM      1  C   UNL     1       2.908   5.786  19.108  0.00  0.00    +0.000 C 
ATOM      2  N   UNL     1       2.876   5.399  17.872  0.00  0.00    +0.000 NA
ENDROOT
BRANCH   1   8
ATOM      3  C   UNL     1       1.422  10.484  18.144  0.00  0.00    +0.000 C 
ATOM      4  C   UNL     1       1.490   9.329  19.104  0.00  0.00    +0.000 A 
ATOM      5  C   UNL     1       0.898   9.326  20.375  0.00  0.00    +0.000 A 
ATOM      6  C   UNL     1       0.960   8.202  21.201  0.00  0.00    +0.000 A 
ATOM      7  C   UNL     1       1.619   7.048  20.780  0.00  0.00    +0.000 A 
ATOM      8  C   UNL     1       2.228   7.029  19.523  0.00  0.00    +0.000 A 
ATOM      9  C   UNL     1       2.172   8.164  18.699  0.00  0.00    +0.000 A 
BRANCH   5  10
ATOM     10  O   UNL     1       0.223  10.388  20.904  0.00  0.00    +0.000 OA
ATOM     11  H   UNL     1       0.740  11.199  20.795  0.00  0.00    +0.000 HD
ENDBRANCH   5  10
BRANCH   9  12
ATOM     12  O   UNL     1       2.772   8.191  17.461  0.00  0.00    +0.000 OA
ATOM     13  H   UNL     1       3.584   7.633  17.491  0.00  0.00    +0.000 HD
ENDBRANCH   9  12
ENDBRANCH   1   8
BRANCH   2  14
ATOM     14  N   UNL     1       3.533   4.240  17.613  0.00  0.00    +0.000 N 
ATOM     15  H   UNL     1       2.987   3.418  17.333  0.00  0.00    +0.000 HD
BRANCH  14  16
ATOM     16  C   UNL     1       4.777   4.332  16.941  0.00  0.00    +0.000 A 
ATOM     17  N   UNL     1       4.769   4.369  15.580  0.00  0.00    +0.000 NA
ATOM     18  C   UNL     1       5.923   4.588  14.911  0.00  0.00    +0.000 A 
ATOM     19  C   UNL     1       7.142   4.783  15.530  0.00  0.00    +0.000 A 
ATOM     20  C   UNL     1       7.179   4.730  16.917  0.00  0.00    +0.000 A 
ATOM     21  C   UNL     1       5.988   4.502  17.631  0.00  0.00    +0.000 A 
BRANCH  21  22
ATOM     22  N   UNL     1       6.055   4.403  19.088  0.00  0.00    +0.000 N 
ATOM     23  O   UNL     1       6.679   5.274  19.713  0.00  0.00    +0.000 OA
ATOM     24  O   UNL     1       5.457   3.461  19.629  0.00  0.00    +0.000 OA
ENDBRANCH  21  22
ENDBRANCH  14  16
ENDBRANCH   2  14
TORSDOF 6
ENDMDL
