MODEL 1
REMARK VINA RESULT:      -8.4      0.000      0.000
REMARK  Name = 
REMARK  5 active torsions:
REMARK  status: ('A' for Active; 'I' for Inactive)
REMARK    1  A    between atoms: C_2  and  C_3
REMARK    2  A    between atoms: C_3  and  C_4
REMARK    3  A    between atoms: C_3  and  N_15
REMARK    4  A    between atoms: C_4  and  C_6
REMARK    5  A    between atoms: C_9  and  N_10
REMARK                            x       y       z     vdW  Elec       q    Type
REMARK                         _______ _______ _______ _____ _____    ______ ____
ROOT
ATOM      1  N   UNL     1       1.721   8.361  19.219  0.00  0.00    +0.000 N 
ATOM      2  C   UNL     1       2.136   7.051  19.397  0.00  0.00    +0.000 A 
ATOM      3  C   UNL     1       3.104   6.650  18.475  0.00  0.00    +0.000 A 
ATOM      4  S   UNL     1       3.441   7.888  17.404  0.00  0.00    +0.000 S 
ATOM      5  C   UNL     1       2.349   8.923  18.135  0.00  0.00    +0.000 A 
ATOM      6  N   UNL     1       2.146  10.119  17.713  0.00  0.00    +0.000 NA
ATOM      7  C   UNL     1       3.836   5.357  18.485  0.00  0.00    +0.000 C 
ATOM      8  C   UNL     1       3.150   4.288  19.341  0.00  0.00    +0.000 C 
ATOM      9  C   UNL     1       2.043   3.553  18.560  0.00  0.00    +0.000 C 
ATOM     10  C   UNL     1       1.539   2.373  19.395  0.00  0.00    +0.000 C 
ATOM     11  C   UNL     1       0.953   2.883  20.717  0.00  0.00    +0.000 C 
ATOM     12  C   UNL     1       2.027   3.664  21.503  0.00  0.00    +0.000 C 
ATOM     13  C   UNL     1       2.616   4.856  20.684  0.00  0.00    +0.000 C 
ATOM     14  C   UNL     1       1.653   6.090  20.492  0.00  0.00    +0.000 C 
ATOM     15  H   UNL     1       2.646  10.493  16.893  0.00  0.00    +0.000 HD
ENDROOT
BRANCH   1  16
ATOM     16  C   UNL     1       0.816   9.071  20.163  0.00  0.00    +0.000 C 
BRANCH  16  18
ATOM     17  N   UNL     1       1.815   9.277  22.597  0.00  0.00    +0.000 NA
ATOM     18  C   UNL     1       1.381   9.176  21.528  0.00  0.00    +0.000 C 
ENDBRANCH  16  18
BRANCH  16  19
ATOM     19  C   UNL     1       0.363  10.426  19.666  0.00  0.00    +0.000 C 
ATOM     20  O   UNL     1       1.044  11.409  19.925  0.00  0.00    +0.000 OA
BRANCH  19  21
ATOM     21  C   UNL     1      -0.878  10.581  18.837  0.00  0.00    +0.000 A 
ATOM     22  C   UNL     1      -1.116   9.791  17.691  0.00  0.00    +0.000 A 
ATOM     23  C   UNL     1      -2.267   9.971  16.920  0.00  0.00    +0.000 A 
ATOM     24  C   UNL     1      -3.214  10.950  17.267  0.00  0.00    +0.000 A 
ATOM     25  C   UNL     1      -2.982  11.736  18.407  0.00  0.00    +0.000 A 
ATOM     26  C   UNL     1      -1.833  11.553  19.182  0.00  0.00    +0.000 A 
BRANCH  24  27
ATOM     27  N   UNL     1      -4.387  11.146  16.476  0.00  0.00    +0.000 N 
ATOM     28  O   UNL     1      -4.389  10.872  15.316  0.00  0.00    +0.000 OA
ATOM     29  O   UNL     1      -5.472  11.666  17.012  0.00  0.00    +0.000 OA
ENDBRANCH  24  27
ENDBRANCH  19  21
ENDBRANCH  16  19
ENDBRANCH   1  16
TORSDOF 5
ENDMDL
MODEL 2
REMARK VINA RESULT:      -8.2      0.630      1.200
REMARK  Name = 
REMARK  5 active torsions:
REMARK  status: ('A' for Active; 'I' for Inactive)
REMARK    1  A    between atoms: C_2  and  C_3
REMARK    2  A    between atoms: C_3  and  C_4
REMARK    3  A    between atoms: C_3  and  N_15
REMARK    4  A    between atoms: C_4  and  C_6
REMARK    5  A    between atoms: C_9  and  N_10
REMARK                            x       y       z     vdW  Elec       q    Type
REMARK                         _______ _______ _______ _____ _____    ______ ____
ROOT
ATOM      1  N   UNL     1       1.600   8.536  19.262  0.00  0.00    +0.000 N 
ATOM      2  C   UNL     1       2.030   7.226  19.402  0.00  0.00    +0.000 A 
ATOM      3  C   UNL     1       2.955   6.844  18.429  0.00  0.00    +0.000 A 
ATOM      4  S   UNL     1       3.234   8.098  17.360  0.00  0.00    +0.000 S 
ATOM      5  C   UNL     1       2.172   9.116  18.157  0.00  0.00    +0.000 A 
ATOM      6  N   UNL     1       1.942  10.316  17.761  0.00  0.00    +0.000 NA
ATOM      7  C   UNL     1       3.694   5.555  18.387  0.00  0.00    +0.000 C 
ATOM      8  C   UNL     1       3.056   4.471  19.261  0.00  0.00    +0.000 C 
ATOM      9  C   UNL     1       1.917   3.739  18.524  0.00  0.00    +0.000 C 
ATOM     10  C   UNL     1       1.460   2.546  19.366  0.00  0.00    +0.000 C 
ATOM     11  C   UNL     1       0.936   3.034  20.721  0.00  0.00    +0.000 C 
ATOM     12  C   UNL     1       2.042   3.811  21.465  0.00  0.00    +0.000 C 
ATOM     13  C   UNL     1       2.584   5.018  20.635  0.00  0.00    +0.000 C 
ATOM     14  C   UNL     1       1.606   6.248  20.506  0.00  0.00    +0.000 C 
ATOM     15  H   UNL     1       2.400  10.704  16.923  0.00  0.00    +0.000 HD
ENDROOT
BRANCH   1  16
ATOM     16  C   UNL     1       0.737   9.228  20.258  0.00  0.00    +0.000 C 
BRANCH  16  18
ATOM     17  N   UNL     1       1.804   9.322  22.670  0.00  0.00    +0.000 NA
ATOM     18  C   UNL     1       1.346   9.276  21.607  0.00  0.00    +0.000 C 
ENDBRANCH  16  18
BRANCH  16  19
ATOM     19  C   UNL     1       0.294  10.607  19.823  0.00  0.00    +0.000 C 
ATOM     20  O   UNL     1       1.081  11.538  19.914  0.00  0.00    +0.000 OA
BRANCH  19  21
ATOM     21  C   UNL     1      -1.073  10.845  19.250  0.00  0.00    +0.000 A 
ATOM     22  C   UNL     1      -1.909  11.883  19.716  0.00  0.00    +0.000 A 
ATOM     23  C   UNL     1      -3.188  12.070  19.186  0.00  0.00    +0.000 A 
ATOM     24  C   UNL     1      -3.673  11.221  18.175  0.00  0.00    +0.000 A 
ATOM     25  C   UNL     1      -2.843  10.190  17.707  0.00  0.00    +0.000 A 
ATOM     26  C   UNL     1      -1.562  10.006  18.234  0.00  0.00    +0.000 A 
BRANCH  24  27
ATOM     27  N   UNL     1      -4.984  11.400  17.637  0.00  0.00    +0.000 N 
ATOM     28  O   UNL     1      -5.911  10.800  18.085  0.00  0.00    +0.000 OA
ATOM     29  O   UNL     1      -5.179  12.206  16.613  0.00  0.00    +0.000 OA
ENDBRANCH  24  27
ENDBRANCH  19  21
ENDBRANCH  16  19
ENDBRANCH   1  16
TORSDOF 5
ENDMDL
MODEL 3
REMARK VINA RESULT:      -7.8      2.620      3.909
REMARK  Name = 
REMARK  5 active torsions:
REMARK  status: ('A' for Active; 'I' for Inactive)
REMARK    1  A    between atoms: C_2  and  C_3
REMARK    2  A    between atoms: C_3  and  C_4
REMARK    3  A    between atoms: C_3  and  N_15
REMARK    4  A    between atoms: C_4  and  C_6
REMARK    5  A    between atoms: C_9  and  N_10
REMARK                            x       y       z     vdW  Elec       q    Type
REMARK                         _______ _______ _______ _____ _____    ______ ____
ROOT
ATOM      1  N   UNL     1       1.379   8.448  19.623  0.00  0.00    +0.000 N 
ATOM      2  C   UNL     1       1.883   7.157  19.579  0.00  0.00    +0.000 A 
ATOM      3  C   UNL     1       2.783   6.952  18.533  0.00  0.00    +0.000 A 
ATOM      4  S   UNL     1       2.950   8.345  17.623  0.00  0.00    +0.000 S 
ATOM      5  C   UNL     1       1.873   9.193  18.580  0.00  0.00    +0.000 A 
ATOM      6  N   UNL     1       1.564  10.418  18.349  0.00  0.00    +0.000 NA
ATOM      7  C   UNL     1       3.585   5.723  18.301  0.00  0.00    +0.000 C 
ATOM      8  C   UNL     1       3.042   4.504  19.052  0.00  0.00    +0.000 C 
ATOM      9  C   UNL     1       1.912   3.807  18.270  0.00  0.00    +0.000 C 
ATOM     10  C   UNL     1       1.554   2.493  18.970  0.00  0.00    +0.000 C 
ATOM     11  C   UNL     1       1.064   2.778  20.394  0.00  0.00    +0.000 C 
ATOM     12  C   UNL     1       2.159   3.518  21.190  0.00  0.00    +0.000 C 
ATOM     13  C   UNL     1       2.602   4.848  20.501  0.00  0.00    +0.000 C 
ATOM     14  C   UNL     1       1.557   6.027  20.565  0.00  0.00    +0.000 C 
ATOM     15  H   UNL     1       1.965  10.933  17.551  0.00  0.00    +0.000 HD
ENDROOT
BRANCH   1  16
ATOM     16  C   UNL     1       0.525   8.961  20.729  0.00  0.00    +0.000 C 
BRANCH  16  18
ATOM     17  N   UNL     1       1.927   9.556  22.885  0.00  0.00    +0.000 NA
ATOM     18  C   UNL     1       1.305   9.303  21.941  0.00  0.00    +0.000 C 
ENDBRANCH  16  18
BRANCH  16  19
ATOM     19  C   UNL     1      -0.367  10.112  20.323  0.00  0.00    +0.000 C 
ATOM     20  O   UNL     1      -1.034  10.013  19.304  0.00  0.00    +0.000 OA
BRANCH  19  21
ATOM     21  C   UNL     1      -0.475  11.351  21.163  0.00  0.00    +0.000 A 
ATOM     22  C   UNL     1      -1.284  11.404  22.320  0.00  0.00    +0.000 A 
ATOM     23  C   UNL     1      -1.389  12.576  23.071  0.00  0.00    +0.000 A 
ATOM     24  C   UNL     1      -0.692  13.735  22.688  0.00  0.00    +0.000 A 
ATOM     25  C   UNL     1       0.115  13.686  21.541  0.00  0.00    +0.000 A 
ATOM     26  C   UNL     1       0.225  12.512  20.791  0.00  0.00    +0.000 A 
BRANCH  24  27
ATOM     27  N   UNL     1      -0.805  14.941  23.447  0.00  0.00    +0.000 N 
ATOM     28  O   UNL     1      -0.741  14.917  24.637  0.00  0.00    +0.000 OA
ATOM     29  O   UNL     1      -1.016  16.091  22.841  0.00  0.00    +0.000 OA
ENDBRANCH  24  27
ENDBRANCH  19  21
ENDBRANCH  16  19
ENDBRANCH   1  16
TORSDOF 5
ENDMDL
MODEL 4
REMARK VINA RESULT:      -7.7      2.595      3.892
REMARK  Name = 
REMARK  5 active torsions:
REMARK  status: ('A' for Active; 'I' for Inactive)
REMARK    1  A    between atoms: C_2  and  C_3
REMARK    2  A    between atoms: C_3  and  C_4
REMARK    3  A    between atoms: C_3  and  N_15
REMARK    4  A    between atoms: C_4  and  C_6
REMARK    5  A    between atoms: C_9  and  N_10
REMARK                            x       y       z     vdW  Elec       q    Type
REMARK                         _______ _______ _______ _____ _____    ______ ____
ROOT
ATOM      1  N   UNL     1       1.358   8.451  19.610  0.00  0.00    +0.000 N 
ATOM      2  C   UNL     1       1.863   7.160  19.594  0.00  0.00    +0.000 A 
ATOM      3  C   UNL     1       2.770   6.936  18.558  0.00  0.00    +0.000 A 
ATOM      4  S   UNL     1       2.942   8.311  17.622  0.00  0.00    +0.000 S 
ATOM      5  C   UNL     1       1.858   9.177  18.556  0.00  0.00    +0.000 A 
ATOM      6  N   UNL     1       1.550  10.397  18.299  0.00  0.00    +0.000 NA
ATOM      7  C   UNL     1       3.574   5.704  18.354  0.00  0.00    +0.000 C 
ATOM      8  C   UNL     1       3.028   4.499  19.126  0.00  0.00    +0.000 C 
ATOM      9  C   UNL     1       1.903   3.785  18.350  0.00  0.00    +0.000 C 
ATOM     10  C   UNL     1       1.541   2.485  19.072  0.00  0.00    +0.000 C 
ATOM     11  C   UNL     1       1.042   2.797  20.488  0.00  0.00    +0.000 C 
ATOM     12  C   UNL     1       2.132   3.553  21.277  0.00  0.00    +0.000 C 
ATOM     13  C   UNL     1       2.578   4.870  20.564  0.00  0.00    +0.000 C 
ATOM     14  C   UNL     1       1.532   6.049  20.599  0.00  0.00    +0.000 C 
ATOM     15  H   UNL     1       1.955  10.896  17.494  0.00  0.00    +0.000 HD
ENDROOT
BRANCH   1  16
ATOM     16  C   UNL     1       0.497   8.984  20.700  0.00  0.00    +0.000 C 
BRANCH  16  18
ATOM     17  N   UNL     1       1.849   9.611  22.878  0.00  0.00    +0.000 NA
ATOM     18  C   UNL     1       1.266   9.335  21.916  0.00  0.00    +0.000 C 
ENDBRANCH  16  18
BRANCH  16  19
ATOM     19  C   UNL     1      -0.380  10.139  20.271  0.00  0.00    +0.000 C 
ATOM     20  O   UNL     1      -1.070  10.018  19.269  0.00  0.00    +0.000 OA
BRANCH  19  21
ATOM     21  C   UNL     1      -0.448  11.409  21.069  0.00  0.00    +0.000 A 
ATOM     22  C   UNL     1       0.361  12.526  20.766  0.00  0.00    +0.000 A 
ATOM     23  C   UNL     1       0.299  13.689  21.539  0.00  0.00    +0.000 A 
ATOM     24  C   UNL     1      -0.570  13.769  22.641  0.00  0.00    +0.000 A 
ATOM     25  C   UNL     1      -1.378  12.661  22.943  0.00  0.00    +0.000 A 
ATOM     26  C   UNL     1      -1.320  11.499  22.168  0.00  0.00    +0.000 A 
BRANCH  24  27
ATOM     27  N   UNL     1      -0.629  14.951  23.441  0.00  0.00    +0.000 N 
ATOM     28  O   UNL     1      -0.443  16.023  22.955  0.00  0.00    +0.000 OA
ATOM     29  O   UNL     1      -0.856  14.868  24.736  0.00  0.00    +0.000 OA
ENDBRANCH  24  27
ENDBRANCH  19  21
ENDBRANCH  16  19
ENDBRANCH   1  16
TORSDOF 5
ENDMDL
MODEL 5
REMARK VINA RESULT:      -7.7      6.129      8.041
REMARK  Name = 
REMARK  5 active torsions:
REMARK  status: ('A' for Active; 'I' for Inactive)
REMARK    1  A    between atoms: C_2  and  C_3
REMARK    2  A    between atoms: C_3  and  C_4
REMARK    3  A    between atoms: C_3  and  N_15
REMARK    4  A    between atoms: C_4  and  C_6
REMARK    5  A    between atoms: C_9  and  N_10
REMARK                            x       y       z     vdW  Elec       q    Type
REMARK                         _______ _______ _______ _____ _____    ______ ____
ROOT
ATOM      1  N   UNL     1       5.796   6.259  17.919  0.00  0.00    +0.000 N 
ATOM      2  C   UNL     1       4.736   5.437  18.271  0.00  0.00    +0.000 A 
ATOM      3  C   UNL     1       3.499   5.922  17.845  0.00  0.00    +0.000 A 
ATOM      4  S   UNL     1       3.682   7.386  17.059  0.00  0.00    +0.000 S 
ATOM      5  C   UNL     1       5.341   7.380  17.269  0.00  0.00    +0.000 A 
ATOM      6  N   UNL     1       6.092   8.332  16.846  0.00  0.00    +0.000 NA
ATOM      7  C   UNL     1       2.199   5.211  17.954  0.00  0.00    +0.000 C 
ATOM      8  C   UNL     1       2.229   4.062  18.967  0.00  0.00    +0.000 C 
ATOM      9  C   UNL     1       1.975   4.559  20.403  0.00  0.00    +0.000 C 
ATOM     10  C   UNL     1       1.818   3.352  21.331  0.00  0.00    +0.000 C 
ATOM     11  C   UNL     1       3.102   2.514  21.320  0.00  0.00    +0.000 C 
ATOM     12  C   UNL     1       3.408   2.039  19.884  0.00  0.00    +0.000 C 
ATOM     13  C   UNL     1       3.534   3.226  18.877  0.00  0.00    +0.000 C 
ATOM     14  C   UNL     1       4.838   4.101  19.019  0.00  0.00    +0.000 C 
ATOM     15  H   UNL     1       5.699   9.153  16.361  0.00  0.00    +0.000 HD
ENDROOT
BRANCH   1  16
ATOM     16  C   UNL     1       7.224   5.890  18.120  0.00  0.00    +0.000 C 
BRANCH  16  18
ATOM     17  N   UNL     1       7.837   5.509  20.659  0.00  0.00    +0.000 NA
ATOM     18  C   UNL     1       7.562   5.666  19.544  0.00  0.00    +0.000 C 
ENDBRANCH  16  18
BRANCH  16  19
ATOM     19  C   UNL     1       7.673   4.721  17.273  0.00  0.00    +0.000 C 
ATOM     20  O   UNL     1       8.573   4.003  17.686  0.00  0.00    +0.000 OA
BRANCH  19  21
ATOM     21  C   UNL     1       7.015   4.405  15.962  0.00  0.00    +0.000 A 
ATOM     22  C   UNL     1       5.920   3.518  15.868  0.00  0.00    +0.000 A 
ATOM     23  C   UNL     1       5.340   3.220  14.633  0.00  0.00    +0.000 A 
ATOM     24  C   UNL     1       5.839   3.794  13.452  0.00  0.00    +0.000 A 
ATOM     25  C   UNL     1       6.926   4.679  13.541  0.00  0.00    +0.000 A 
ATOM     26  C   UNL     1       7.505   4.981  14.777  0.00  0.00    +0.000 A 
BRANCH  24  27
ATOM     27  N   UNL     1       5.258   3.484  12.185  0.00  0.00    +0.000 N 
ATOM     28  O   UNL     1       4.433   4.198  11.704  0.00  0.00    +0.000 OA
ATOM     29  O   UNL     1       5.600   2.384  11.546  0.00  0.00    +0.000 OA
ENDBRANCH  24  27
ENDBRANCH  19  21
ENDBRANCH  16  19
ENDBRANCH   1  16
TORSDOF 5
ENDMDL
MODEL 6
REMARK VINA RESULT:      -7.6      3.196      4.900
REMARK  Name = 
REMARK  5 active torsions:
REMARK  status: ('A' for Active; 'I' for Inactive)
REMARK    1  A    between atoms: C_2  and  C_3
REMARK    2  A    between atoms: C_3  and  C_4
REMARK    3  A    between atoms: C_3  and  N_15
REMARK    4  A    between atoms: C_4  and  C_6
REMARK    5  A    between atoms: C_9  and  N_10
REMARK                            x       y       z     vdW  Elec       q    Type
REMARK                         _______ _______ _______ _____ _____    ______ ____
ROOT
ATOM      1  N   UNL     1       4.843   5.372  17.183  0.00  0.00    +0.000 N 
ATOM      2  C   UNL     1       4.258   4.346  17.908  0.00  0.00    +0.000 A 
ATOM      3  C   UNL     1       4.404   3.095  17.306  0.00  0.00    +0.000 A 
ATOM      4  S   UNL     1       5.224   3.234  15.857  0.00  0.00    +0.000 S 
ATOM      5  C   UNL     1       5.387   4.890  16.017  0.00  0.00    +0.000 A 
ATOM      6  N   UNL     1       5.974   5.613  15.134  0.00  0.00    +0.000 NA
ATOM      7  C   UNL     1       4.004   1.791  17.897  0.00  0.00    +0.000 C 
ATOM      8  C   UNL     1       3.012   1.939  19.055  0.00  0.00    +0.000 C 
ATOM      9  C   UNL     1       1.560   2.056  18.553  0.00  0.00    +0.000 C 
ATOM     10  C   UNL     1       0.609   1.997  19.751  0.00  0.00    +0.000 C 
ATOM     11  C   UNL     1       0.896   3.164  20.703  0.00  0.00    +0.000 C 
ATOM     12  C   UNL     1       2.359   3.100  21.188  0.00  0.00    +0.000 C 
ATOM     13  C   UNL     1       3.381   3.109  20.006  0.00  0.00    +0.000 C 
ATOM     14  C   UNL     1       3.538   4.487  19.256  0.00  0.00    +0.000 C 
ATOM     15  H   UNL     1       6.367   5.200  14.275  0.00  0.00    +0.000 HD
ENDROOT
BRANCH   1  16
ATOM     16  C   UNL     1       4.960   6.769  17.683  0.00  0.00    +0.000 C 
BRANCH  16  18
ATOM     17  N   UNL     1       7.307   7.848  17.144  0.00  0.00    +0.000 NA
ATOM     18  C   UNL     1       6.280   7.372  17.391  0.00  0.00    +0.000 C 
ENDBRANCH  16  18
BRANCH  16  19
ATOM     19  C   UNL     1       3.843   7.676  17.218  0.00  0.00    +0.000 C 
ATOM     20  O   UNL     1       3.780   7.978  16.035  0.00  0.00    +0.000 OA
BRANCH  19  21
ATOM     21  C   UNL     1       2.796   8.180  18.169  0.00  0.00    +0.000 A 
ATOM     22  C   UNL     1       2.052   9.352  17.910  0.00  0.00    +0.000 A 
ATOM     23  C   UNL     1       1.101   9.815  18.822  0.00  0.00    +0.000 A 
ATOM     24  C   UNL     1       0.866   9.124  20.023  0.00  0.00    +0.000 A 
ATOM     25  C   UNL     1       1.602   7.956  20.282  0.00  0.00    +0.000 A 
ATOM     26  C   UNL     1       2.551   7.489  19.368  0.00  0.00    +0.000 A 
BRANCH  24  27
ATOM     27  N   UNL     1      -0.097   9.599  20.965  0.00  0.00    +0.000 N 
ATOM     28  O   UNL     1      -0.587  10.679  20.840  0.00  0.00    +0.000 OA
ATOM     29  O   UNL     1      -0.432   8.863  22.004  0.00  0.00    +0.000 OA
ENDBRANCH  24  27
ENDBRANCH  19  21
ENDBRANCH  16  19
ENDBRANCH   1  16
TORSDOF 5
ENDMDL
MODEL 7
REMARK VINA RESULT:      -7.3      4.474      8.285
REMARK  Name = 
REMARK  5 active torsions:
REMARK  status: ('A' for Active; 'I' for Inactive)
REMARK    1  A    between atoms: C_2  and  C_3
REMARK    2  A    between atoms: C_3  and  C_4
REMARK    3  A    between atoms: C_3  and  N_15
REMARK    4  A    between atoms: C_4  and  C_6
REMARK    5  A    between atoms: C_9  and  N_10
REMARK                            x       y       z     vdW  Elec       q    Type
REMARK                         _______ _______ _______ _____ _____    ______ ____
ROOT
ATOM      1  N   UNL     1       0.015  12.630  20.827  0.00  0.00    +0.000 N 
ATOM      2  C   UNL     1       0.870  13.666  20.483  0.00  0.00    +0.000 A 
ATOM      3  C   UNL     1       0.251  14.916  20.490  0.00  0.00    +0.000 A 
ATOM      4  S   UNL     1      -1.366  14.768  20.886  0.00  0.00    +0.000 S 
ATOM      5  C   UNL     1      -1.254  13.107  21.047  0.00  0.00    +0.000 A 
ATOM      6  N   UNL     1      -2.264  12.376  21.358  0.00  0.00    +0.000 NA
ATOM      7  C   UNL     1       0.927  16.225  20.294  0.00  0.00    +0.000 C 
ATOM      8  C   UNL     1       2.310  16.093  19.649  0.00  0.00    +0.000 C 
ATOM      9  C   UNL     1       2.219  16.011  18.113  0.00  0.00    +0.000 C 
ATOM     10  C   UNL     1       3.629  16.085  17.522  0.00  0.00    +0.000 C 
ATOM     11  C   UNL     1       4.469  14.906  18.029  0.00  0.00    +0.000 C 
ATOM     12  C   UNL     1       4.541  14.935  19.570  0.00  0.00    +0.000 C 
ATOM     13  C   UNL     1       3.127  14.909  20.234  0.00  0.00    +0.000 C 
ATOM     14  C   UNL     1       2.363  13.533  20.151  0.00  0.00    +0.000 C 
ATOM     15  H   UNL     1      -3.197  12.785  21.513  0.00  0.00    +0.000 HD
ENDROOT
BRANCH   1  16
ATOM     16  C   UNL     1       0.466  11.229  21.043  0.00  0.00    +0.000 C 
BRANCH  16  18
ATOM     17  N   UNL     1      -0.366  10.242  23.345  0.00  0.00    +0.000 NA
ATOM     18  C   UNL     1      -0.007  10.667  22.329  0.00  0.00    +0.000 C 
ENDBRANCH  16  18
BRANCH  16  19
ATOM     19  C   UNL     1       0.130  10.300  19.898  0.00  0.00    +0.000 C 
ATOM     20  O   UNL     1      -0.906  10.480  19.274  0.00  0.00    +0.000 OA
BRANCH  19  21
ATOM     21  C   UNL     1       1.057   9.192  19.491  0.00  0.00    +0.000 A 
ATOM     22  C   UNL     1       1.394   8.138  20.368  0.00  0.00    +0.000 A 
ATOM     23  C   UNL     1       2.279   7.131  19.976  0.00  0.00    +0.000 A 
ATOM     24  C   UNL     1       2.859   7.148  18.696  0.00  0.00    +0.000 A 
ATOM     25  C   UNL     1       2.525   8.193  17.820  0.00  0.00    +0.000 A 
ATOM     26  C   UNL     1       1.636   9.198  18.210  0.00  0.00    +0.000 A 
BRANCH  24  27
ATOM     27  N   UNL     1       3.774   6.127  18.294  0.00  0.00    +0.000 N 
ATOM     28  O   UNL     1       3.992   5.927  17.139  0.00  0.00    +0.000 OA
ATOM     29  O   UNL     1       4.364   5.368  19.195  0.00  0.00    +0.000 OA
ENDBRANCH  24  27
ENDBRANCH  19  21
ENDBRANCH  16  19
ENDBRANCH   1  16
TORSDOF 5
ENDMDL
MODEL 8
REMARK VINA RESULT:      -7.3      4.496      8.259
REMARK  Name = 
REMARK  5 active torsions:
REMARK  status: ('A' for Active; 'I' for Inactive)
REMARK    1  A    between atoms: C_2  and  C_3
REMARK    2  A    between atoms: C_3  and  C_4
REMARK    3  A    between atoms: C_3  and  N_15
REMARK    4  A    between atoms: C_4  and  C_6
REMARK    5  A    between atoms: C_9  and  N_10
REMARK                            x       y       z     vdW  Elec       q    Type
REMARK                         _______ _______ _______ _____ _____    ______ ____
ROOT
ATOM      1  N   UNL     1       0.008  12.737  20.671  0.00  0.00    +0.000 N 
ATOM      2  C   UNL     1       0.909  13.735  20.336  0.00  0.00    +0.000 A 
ATOM      3  C   UNL     1       0.324  15.000  20.252  0.00  0.00    +0.000 A 
ATOM      4  S   UNL     1      -1.318  14.907  20.554  0.00  0.00    +0.000 S 
ATOM      5  C   UNL     1      -1.260  13.253  20.793  0.00  0.00    +0.000 A 
ATOM      6  N   UNL     1      -2.305  12.561  21.072  0.00  0.00    +0.000 NA
ATOM      7  C   UNL     1       1.044  16.282  20.041  0.00  0.00    +0.000 C 
ATOM      8  C   UNL     1       2.460  16.089  19.488  0.00  0.00    +0.000 C 
ATOM      9  C   UNL     1       2.458  15.941  17.954  0.00  0.00    +0.000 C 
ATOM     10  C   UNL     1       3.903  15.954  17.448  0.00  0.00    +0.000 C 
ATOM     11  C   UNL     1       4.679  14.780  18.055  0.00  0.00    +0.000 C 
ATOM     12  C   UNL     1       4.659  14.875  19.595  0.00  0.00    +0.000 C 
ATOM     13  C   UNL     1       3.208  14.913  20.172  0.00  0.00    +0.000 C 
ATOM     14  C   UNL     1       2.414  13.552  20.102  0.00  0.00    +0.000 C 
ATOM     15  H   UNL     1      -3.235  12.998  21.153  0.00  0.00    +0.000 HD
ENDROOT
BRANCH   1  16
ATOM     16  C   UNL     1       0.408  11.336  20.974  0.00  0.00    +0.000 C 
BRANCH  16  18
ATOM     17  N   UNL     1      -0.537  10.466  23.280  0.00  0.00    +0.000 NA
ATOM     18  C   UNL     1      -0.120  10.858  22.273  0.00  0.00    +0.000 C 
ENDBRANCH  16  18
BRANCH  16  19
ATOM     19  C   UNL     1       0.075  10.358  19.869  0.00  0.00    +0.000 C 
ATOM     20  O   UNL     1      -0.971  10.496  19.252  0.00  0.00    +0.000 OA
BRANCH  19  21
ATOM     21  C   UNL     1       1.017   9.250  19.496  0.00  0.00    +0.000 A 
ATOM     22  C   UNL     1       1.567   9.141  18.200  0.00  0.00    +0.000 A 
ATOM     23  C   UNL     1       2.421   8.087  17.868  0.00  0.00    +0.000 A 
ATOM     24  C   UNL     1       2.749   7.106  18.820  0.00  0.00    +0.000 A 
ATOM     25  C   UNL     1       2.206   7.213  20.110  0.00  0.00    +0.000 A 
ATOM     26  C   UNL     1       1.355   8.270  20.444  0.00  0.00    +0.000 A 
BRANCH  24  27
ATOM     27  N   UNL     1       3.613   6.019  18.483  0.00  0.00    +0.000 N 
ATOM     28  O   UNL     1       4.118   5.358  19.336  0.00  0.00    +0.000 OA
ATOM     29  O   UNL     1       3.891   5.756  17.222  0.00  0.00    +0.000 OA
ENDBRANCH  24  27
ENDBRANCH  19  21
ENDBRANCH  16  19
ENDBRANCH   1  16
TORSDOF 5
ENDMDL
MODEL 9
REMARK VINA RESULT:      -7.2      3.935      8.324
REMARK  Name = 
REMARK  5 active torsions:
REMARK  status: ('A' for Active; 'I' for Inactive)
REMARK    1  A    between atoms: C_2  and  C_3
REMARK    2  A    between atoms: C_3  and  C_4
REMARK    3  A    between atoms: C_3  and  N_15
REMARK    4  A    between atoms: C_4  and  C_6
REMARK    5  A    between atoms: C_9  and  N_10
REMARK                            x       y       z     vdW  Elec       q    Type
REMARK                         _______ _______ _______ _____ _____    ______ ____
ROOT
ATOM      1  N   UNL     1      -1.496  11.882  19.671  0.00  0.00    +0.000 N 
ATOM      2  C   UNL     1      -2.501  12.265  20.545  0.00  0.00    +0.000 A 
ATOM      3  C   UNL     1      -3.766  12.279  19.957  0.00  0.00    +0.000 A 
ATOM      4  S   UNL     1      -3.667  11.855  18.343  0.00  0.00    +0.000 S 
ATOM      5  C   UNL     1      -2.009  11.654  18.417  0.00  0.00    +0.000 A 
ATOM      6  N   UNL     1      -1.311  11.309  17.395  0.00  0.00    +0.000 NA
ATOM      7  C   UNL     1      -5.053  12.518  20.661  0.00  0.00    +0.000 C 
ATOM      8  C   UNL     1      -4.871  13.181  22.030  0.00  0.00    +0.000 C 
ATOM      9  C   UNL     1      -4.754  14.714  21.911  0.00  0.00    +0.000 C 
ATOM     10  C   UNL     1      -4.778  15.328  23.313  0.00  0.00    +0.000 C 
ATOM     11  C   UNL     1      -3.592  14.806  24.132  0.00  0.00    +0.000 C 
ATOM     12  C   UNL     1      -3.656  13.267  24.230  0.00  0.00    +0.000 C 
ATOM     13  C   UNL     1      -3.682  12.581  22.827  0.00  0.00    +0.000 C 
ATOM     14  C   UNL     1      -2.323  12.617  22.028  0.00  0.00    +0.000 C 
ATOM     15  H   UNL     1      -1.747  11.149  16.475  0.00  0.00    +0.000 HD
ENDROOT
BRANCH   1  16
ATOM     16  C   UNL     1      -0.089  11.639  20.091  0.00  0.00    +0.000 C 
BRANCH  16  18
ATOM     17  N   UNL     1       0.861  13.579  21.607  0.00  0.00    +0.000 NA
ATOM     18  C   UNL     1       0.446  12.720  20.951  0.00  0.00    +0.000 C 
ENDBRANCH  16  18
BRANCH  16  19
ATOM     19  C   UNL     1       0.127  10.287  20.734  0.00  0.00    +0.000 C 
ATOM     20  O   UNL     1      -0.416  10.047  21.803  0.00  0.00    +0.000 OA
BRANCH  19  21
ATOM     21  C   UNL     1       0.961   9.230  20.072  0.00  0.00    +0.000 A 
ATOM     22  C   UNL     1       1.334   9.313  18.712  0.00  0.00    +0.000 A 
ATOM     23  C   UNL     1       2.089   8.304  18.110  0.00  0.00    +0.000 A 
ATOM     24  C   UNL     1       2.492   7.177  18.848  0.00  0.00    +0.000 A 
ATOM     25  C   UNL     1       2.127   7.092  20.201  0.00  0.00    +0.000 A 
ATOM     26  C   UNL     1       1.375   8.104  20.805  0.00  0.00    +0.000 A 
BRANCH  24  27
ATOM     27  N   UNL     1       3.255   6.136  18.235  0.00  0.00    +0.000 N 
ATOM     28  O   UNL     1       4.447   6.164  18.255  0.00  0.00    +0.000 OA
ATOM     29  O   UNL     1       2.650   5.148  17.607  0.00  0.00    +0.000 OA
ENDBRANCH  24  27
ENDBRANCH  19  21
ENDBRANCH  16  19
ENDBRANCH   1  16
TORSDOF 5
ENDMDL
