MODEL 1
REMARK VINA RESULT:      -8.6      0.000      0.000
REMARK  Name = 
REMARK  7 active torsions:
REMARK  status: ('A' for Active; 'I' for Inactive)
REMARK    1  A    between atoms: C_1  and  C_2
REMARK    2  A    between atoms: C_2  and  C_3
REMARK    3  A    between atoms: C_2  and  O_4
REMARK    4  A    between atoms: O_4  and  C_5
REMARK    5  A    between atoms: C_10  and  O_11
REMARK    6  A    between atoms: O_11  and  C_12
REMARK    7  A    between atoms: C_24  and  C_25
REMARK                            x       y       z     vdW  Elec       q    Type
REMARK                         _______ _______ _______ _____ _____    ______ ____
ROOT
ATOM      1  C   UNL     1       2.758   6.323  18.806  0.00  0.00    +0.000 A 
ATOM      2  N   UNL     1       2.543   5.531  19.867  0.00  0.00    +0.000 NA
ATOM      3  C   UNL     1       1.852   6.074  20.878  0.00  0.00    +0.000 A 
ATOM      4  N   UNL     1       1.376   7.327  20.926  0.00  0.00    +0.000 NA
ATOM      5  C   UNL     1       1.613   8.077  19.848  0.00  0.00    +0.000 A 
ATOM      6  C   UNL     1       2.313   7.617  18.757  0.00  0.00    +0.000 A 
ATOM      7  C   UNL     1       2.370   8.653  17.694  0.00  0.00    +0.000 C 
ATOM      8  C   UNL     1       1.813   9.890  18.433  0.00  0.00    +0.000 C 
ATOM      9  N   UNL     1       1.174   9.406  19.659  0.00  0.00    +0.000 N 
ATOM     10  C   UNL     1       0.553  10.309  20.518  0.00  0.00    +0.000 A 
ATOM     11  C   UNL     1      -0.075   9.874  21.684  0.00  0.00    +0.000 A 
ATOM     12  C   UNL     1      -0.677  10.788  22.545  0.00  0.00    +0.000 A 
ATOM     13  C   UNL     1      -0.647  12.134  22.218  0.00  0.00    +0.000 A 
ATOM     14  C   UNL     1      -0.024  12.502  21.039  0.00  0.00    +0.000 A 
ATOM     15  N   UNL     1       0.564  11.624  20.193  0.00  0.00    +0.000 NA
ENDROOT
BRANCH  13  16
ATOM     16  C   UNL     1      -1.238  13.105  23.062  0.00  0.00    +0.000 C 
ATOM     17  N   UNL     1      -1.722  13.902  23.755  0.00  0.00    +0.000 NA
ENDBRANCH  13  16
BRANCH   1  18
ATOM     18  O   UNL     1       3.376   5.794  17.697  0.00  0.00    +0.000 OA
BRANCH  18  24
ATOM     19  C   UNL     1       6.563   4.625  14.233  0.00  0.00    +0.000 C 
ATOM     20  O   UNL     1       7.371   5.489  13.908  0.00  0.00    +0.000 OA
ATOM     21  N   UNL     1       5.668   4.798  15.277  0.00  0.00    +0.000 N 
ATOM     22  C   UNL     1       5.608   6.103  15.923  0.00  0.00    +0.000 C 
ATOM     23  C   UNL     1       5.745   5.943  17.431  0.00  0.00    +0.000 C 
ATOM     24  C   UNL     1       4.598   5.076  17.962  0.00  0.00    +0.000 C 
ATOM     25  C   UNL     1       4.660   3.707  17.255  0.00  0.00    +0.000 C 
ATOM     26  C   UNL     1       4.677   3.822  15.725  0.00  0.00    +0.000 C 
BRANCH  19  27
ATOM     27  O   UNL     1       6.483   3.408  13.611  0.00  0.00    +0.000 OA
BRANCH  27  29
ATOM     28  C   UNL     1       7.036   2.404  11.463  0.00  0.00    +0.000 C 
ATOM     29  C   UNL     1       6.254   3.499  12.187  0.00  0.00    +0.000 C 
ATOM     30  C   UNL     1       4.766   3.348  11.889  0.00  0.00    +0.000 C 
ENDBRANCH  27  29
ENDBRANCH  19  27
ENDBRANCH  18  24
ENDBRANCH   1  18
TORSDOF 5
ENDMDL
MODEL 2
REMARK VINA RESULT:      -7.6      1.167      1.478
REMARK  Name = 
REMARK  7 active torsions:
REMARK  status: ('A' for Active; 'I' for Inactive)
REMARK    1  A    between atoms: C_1  and  C_2
REMARK    2  A    between atoms: C_2  and  C_3
REMARK    3  A    between atoms: C_2  and  O_4
REMARK    4  A    between atoms: O_4  and  C_5
REMARK    5  A    between atoms: C_10  and  O_11
REMARK    6  A    between atoms: O_11  and  C_12
REMARK    7  A    between atoms: C_24  and  C_25
REMARK                            x       y       z     vdW  Elec       q    Type
REMARK                         _______ _______ _______ _____ _____    ______ ____
ROOT
ATOM      1  C   UNL     1       2.317   6.129  19.206  0.00  0.00    +0.000 A 
ATOM      2  N   UNL     1       1.970   5.659  20.415  0.00  0.00    +0.000 NA
ATOM      3  C   UNL     1       1.397   6.539  21.248  0.00  0.00    +0.000 A 
ATOM      4  N   UNL     1       1.154   7.831  20.986  0.00  0.00    +0.000 NA
ATOM      5  C   UNL     1       1.514   8.253  19.772  0.00  0.00    +0.000 A 
ATOM      6  C   UNL     1       2.111   7.433  18.843  0.00  0.00    +0.000 A 
ATOM      7  C   UNL     1       2.345   8.164  17.570  0.00  0.00    +0.000 C 
ATOM      8  C   UNL     1       2.026   9.618  17.981  0.00  0.00    +0.000 C 
ATOM      9  N   UNL     1       1.320   9.557  19.263  0.00  0.00    +0.000 N 
ATOM     10  C   UNL     1       0.878  10.731  19.867  0.00  0.00    +0.000 A 
ATOM     11  C   UNL     1       0.191  10.700  21.079  0.00  0.00    +0.000 A 
ATOM     12  C   UNL     1      -0.230  11.883  21.682  0.00  0.00    +0.000 A 
ATOM     13  C   UNL     1       0.039  13.087  21.052  0.00  0.00    +0.000 A 
ATOM     14  C   UNL     1       0.709  13.051  19.843  0.00  0.00    +0.000 A 
ATOM     15  N   UNL     1       1.123  11.910  19.245  0.00  0.00    +0.000 NA
ENDROOT
BRANCH  13  16
ATOM     16  C   UNL     1      -0.361  14.318  21.626  0.00  0.00    +0.000 C 
ATOM     17  N   UNL     1      -0.691  15.327  22.098  0.00  0.00    +0.000 NA
ENDBRANCH  13  16
BRANCH   1  18
ATOM     18  O   UNL     1       2.821   5.254  18.274  0.00  0.00    +0.000 OA
BRANCH  18  24
ATOM     19  C   UNL     1       7.042   5.415  15.893  0.00  0.00    +0.000 C 
ATOM     20  O   UNL     1       7.786   6.358  16.144  0.00  0.00    +0.000 OA
ATOM     21  N   UNL     1       5.856   5.199  16.576  0.00  0.00    +0.000 N 
ATOM     22  C   UNL     1       5.425   6.204  17.539  0.00  0.00    +0.000 C 
ATOM     23  C   UNL     1       5.114   5.543  18.876  0.00  0.00    +0.000 C 
ATOM     24  C   UNL     1       3.989   4.519  18.692  0.00  0.00    +0.000 C 
ATOM     25  C   UNL     1       4.449   3.475  17.655  0.00  0.00    +0.000 C 
ATOM     26  C   UNL     1       4.918   4.105  16.337  0.00  0.00    +0.000 C 
BRANCH  19  27
ATOM     27  O   UNL     1       7.323   4.481  14.931  0.00  0.00    +0.000 OA
BRANCH  27  29
ATOM     28  C   UNL     1       8.014   5.381  12.777  0.00  0.00    +0.000 C 
ATOM     29  C   UNL     1       6.853   4.846  13.614  0.00  0.00    +0.000 C 
ATOM     30  C   UNL     1       6.242   3.630  12.925  0.00  0.00    +0.000 C 
ENDBRANCH  27  29
ENDBRANCH  19  27
ENDBRANCH  18  24
ENDBRANCH   1  18
TORSDOF 5
ENDMDL
MODEL 3
REMARK VINA RESULT:      -7.4      4.394     11.599
REMARK  Name = 
REMARK  7 active torsions:
REMARK  status: ('A' for Active; 'I' for Inactive)
REMARK    1  A    between atoms: C_1  and  C_2
REMARK    2  A    between atoms: C_2  and  C_3
REMARK    3  A    between atoms: C_2  and  O_4
REMARK    4  A    between atoms: O_4  and  C_5
REMARK    5  A    between atoms: C_10  and  O_11
REMARK    6  A    between atoms: O_11  and  C_12
REMARK    7  A    between atoms: C_24  and  C_25
REMARK                            x       y       z     vdW  Elec       q    Type
REMARK                         _______ _______ _______ _____ _____    ______ ____
ROOT
ATOM      1  C   UNL     1      -0.197  10.749  20.031  0.00  0.00    +0.000 A 
ATOM      2  N   UNL     1       0.130  11.580  19.029  0.00  0.00    +0.000 NA
ATOM      3  C   UNL     1       1.075  11.143  18.185  0.00  0.00    +0.000 A 
ATOM      4  N   UNL     1       1.722   9.970  18.262  0.00  0.00    +0.000 NA
ATOM      5  C   UNL     1       1.361   9.177  19.273  0.00  0.00    +0.000 A 
ATOM      6  C   UNL     1       0.403   9.530  20.196  0.00  0.00    +0.000 A 
ATOM      7  C   UNL     1       0.178   8.428  21.167  0.00  0.00    +0.000 C 
ATOM      8  C   UNL     1       1.338   7.468  20.826  0.00  0.00    +0.000 C 
ATOM      9  N   UNL     1       1.874   7.885  19.528  0.00  0.00    +0.000 N 
ATOM     10  C   UNL     1       2.922   7.174  18.950  0.00  0.00    +0.000 A 
ATOM     11  C   UNL     1       3.441   7.540  17.710  0.00  0.00    +0.000 A 
ATOM     12  C   UNL     1       4.502   6.832  17.151  0.00  0.00    +0.000 A 
ATOM     13  C   UNL     1       5.025   5.753  17.845  0.00  0.00    +0.000 A 
ATOM     14  C   UNL     1       4.456   5.428  19.063  0.00  0.00    +0.000 A 
ATOM     15  N   UNL     1       3.425   6.107  19.617  0.00  0.00    +0.000 NA
ENDROOT
BRANCH  13  16
ATOM     16  C   UNL     1       6.107   5.003  17.324  0.00  0.00    +0.000 C 
ATOM     17  N   UNL     1       6.995   4.389  16.895  0.00  0.00    +0.000 NA
ENDBRANCH  13  16
BRANCH   1  18
ATOM     18  O   UNL     1      -1.227  11.098  20.872  0.00  0.00    +0.000 OA
BRANCH  18  24
ATOM     19  C   UNL     1      -4.492  12.890  23.978  0.00  0.00    +0.000 C 
ATOM     20  O   UNL     1      -4.326  12.635  25.167  0.00  0.00    +0.000 OA
ATOM     21  N   UNL     1      -3.578  12.524  23.003  0.00  0.00    +0.000 N 
ATOM     22  C   UNL     1      -2.445  11.697  23.398  0.00  0.00    +0.000 C 
ATOM     23  C   UNL     1      -1.146  12.330  22.917  0.00  0.00    +0.000 C 
ATOM     24  C   UNL     1      -1.167  12.443  21.389  0.00  0.00    +0.000 C 
ATOM     25  C   UNL     1      -2.382  13.302  20.983  0.00  0.00    +0.000 C 
ATOM     26  C   UNL     1      -3.703  12.788  21.571  0.00  0.00    +0.000 C 
BRANCH  19  27
ATOM     27  O   UNL     1      -5.581  13.575  23.508  0.00  0.00    +0.000 OA
BRANCH  27  29
ATOM     28  C   UNL     1      -7.830  13.948  24.365  0.00  0.00    +0.000 C 
ATOM     29  C   UNL     1      -6.841  12.929  23.800  0.00  0.00    +0.000 C 
ATOM     30  C   UNL     1      -7.413  12.310  22.528  0.00  0.00    +0.000 C 
ENDBRANCH  27  29
ENDBRANCH  19  27
ENDBRANCH  18  24
ENDBRANCH   1  18
TORSDOF 5
ENDMDL
MODEL 4
REMARK VINA RESULT:      -7.3      1.246      1.515
REMARK  Name = 
REMARK  7 active torsions:
REMARK  status: ('A' for Active; 'I' for Inactive)
REMARK    1  A    between atoms: C_1  and  C_2
REMARK    2  A    between atoms: C_2  and  C_3
REMARK    3  A    between atoms: C_2  and  O_4
REMARK    4  A    between atoms: O_4  and  C_5
REMARK    5  A    between atoms: C_10  and  O_11
REMARK    6  A    between atoms: O_11  and  C_12
REMARK    7  A    between atoms: C_24  and  C_25
REMARK                            x       y       z     vdW  Elec       q    Type
REMARK                         _______ _______ _______ _____ _____    ______ ____
ROOT
ATOM      1  C   UNL     1       2.343   7.153  19.274  0.00  0.00    +0.000 A 
ATOM      2  N   UNL     1       2.034   6.470  20.388  0.00  0.00    +0.000 NA
ATOM      3  C   UNL     1       1.266   7.111  21.279  0.00  0.00    +0.000 A 
ATOM      4  N   UNL     1       0.798   8.362  21.162  0.00  0.00    +0.000 NA
ATOM      5  C   UNL     1       1.129   9.001  20.038  0.00  0.00    +0.000 A 
ATOM      6  C   UNL     1       1.914   8.434  19.060  0.00  0.00    +0.000 A 
ATOM      7  C   UNL     1       2.067   9.360  17.907  0.00  0.00    +0.000 C 
ATOM      8  C   UNL     1       1.461  10.664  18.470  0.00  0.00    +0.000 C 
ATOM      9  N   UNL     1       0.718  10.305  19.681  0.00  0.00    +0.000 N 
ATOM     10  C   UNL     1       0.035  11.289  20.392  0.00  0.00    +0.000 A 
ATOM     11  C   UNL     1      -0.691  10.972  21.538  0.00  0.00    +0.000 A 
ATOM     12  C   UNL     1      -1.355  11.968  22.251  0.00  0.00    +0.000 A 
ATOM     13  C   UNL     1      -1.287  13.274  21.795  0.00  0.00    +0.000 A 
ATOM     14  C   UNL     1      -0.565  13.522  20.641  0.00  0.00    +0.000 A 
ATOM     15  N   UNL     1       0.083  12.565  19.939  0.00  0.00    +0.000 NA
ENDROOT
BRANCH  13  16
ATOM     16  C   UNL     1      -1.939  14.325  22.485  0.00  0.00    +0.000 C 
ATOM     17  N   UNL     1      -2.473  15.188  23.050  0.00  0.00    +0.000 NA
ENDBRANCH  13  16
BRANCH   1  18
ATOM     18  O   UNL     1       3.046   6.515  18.280  0.00  0.00    +0.000 OA
BRANCH  18  24
ATOM     19  C   UNL     1       6.807   4.371  16.093  0.00  0.00    +0.000 C 
ATOM     20  O   UNL     1       7.925   4.632  16.527  0.00  0.00    +0.000 OA
ATOM     21  N   UNL     1       5.648   4.837  16.692  0.00  0.00    +0.000 N 
ATOM     22  C   UNL     1       5.775   5.774  17.801  0.00  0.00    +0.000 C 
ATOM     23  C   UNL     1       4.964   5.283  18.993  0.00  0.00    +0.000 C 
ATOM     24  C   UNL     1       3.486   5.180  18.600  0.00  0.00    +0.000 C 
ATOM     25  C   UNL     1       3.368   4.203  17.412  0.00  0.00    +0.000 C 
ATOM     26  C   UNL     1       4.284   4.573  16.238  0.00  0.00    +0.000 C 
BRANCH  19  27
ATOM     27  O   UNL     1       6.601   3.581  14.994  0.00  0.00    +0.000 OA
BRANCH  27  29
ATOM     28  C   UNL     1       7.680   5.056  13.385  0.00  0.00    +0.000 C 
ATOM     29  C   UNL     1       6.394   4.329  13.774  0.00  0.00    +0.000 C 
ATOM     30  C   UNL     1       5.979   3.384  12.651  0.00  0.00    +0.000 C 
ENDBRANCH  27  29
ENDBRANCH  19  27
ENDBRANCH  18  24
ENDBRANCH   1  18
TORSDOF 5
ENDMDL
MODEL 5
REMARK VINA RESULT:      -7.1      2.120      3.328
REMARK  Name = 
REMARK  7 active torsions:
REMARK  status: ('A' for Active; 'I' for Inactive)
REMARK    1  A    between atoms: C_1  and  C_2
REMARK    2  A    between atoms: C_2  and  C_3
REMARK    3  A    between atoms: C_2  and  O_4
REMARK    4  A    between atoms: O_4  and  C_5
REMARK    5  A    between atoms: C_10  and  O_11
REMARK    6  A    between atoms: O_11  and  C_12
REMARK    7  A    between atoms: C_24  and  C_25
REMARK                            x       y       z     vdW  Elec       q    Type
REMARK                         _______ _______ _______ _____ _____    ______ ____
ROOT
ATOM      1  C   UNL     1       1.922   8.246  19.429  0.00  0.00    +0.000 A 
ATOM      2  N   UNL     1       1.655   8.664  18.183  0.00  0.00    +0.000 NA
ATOM      3  C   UNL     1       0.767   9.661  18.073  0.00  0.00    +0.000 A 
ATOM      4  N   UNL     1       0.122  10.260  19.085  0.00  0.00    +0.000 NA
ATOM      5  C   UNL     1       0.422   9.813  20.306  0.00  0.00    +0.000 A 
ATOM      6  C   UNL     1       1.318   8.792  20.529  0.00  0.00    +0.000 A 
ATOM      7  C   UNL     1       1.487   8.551  21.986  0.00  0.00    +0.000 C 
ATOM      8  C   UNL     1       0.355   9.417  22.580  0.00  0.00    +0.000 C 
ATOM      9  N   UNL     1      -0.100  10.318  21.518  0.00  0.00    +0.000 N 
ATOM     10  C   UNL     1      -1.106  11.244  21.780  0.00  0.00    +0.000 A 
ATOM     11  C   UNL     1      -1.547  12.122  20.792  0.00  0.00    +0.000 A 
ATOM     12  C   UNL     1      -2.567  13.031  21.060  0.00  0.00    +0.000 A 
ATOM     13  C   UNL     1      -3.128  13.053  22.327  0.00  0.00    +0.000 A 
ATOM     14  C   UNL     1      -2.636  12.168  23.269  0.00  0.00    +0.000 A 
ATOM     15  N   UNL     1      -1.645  11.280  23.022  0.00  0.00    +0.000 NA
ENDROOT
BRANCH  13  16
ATOM     16  C   UNL     1      -4.172  13.954  22.650  0.00  0.00    +0.000 C 
ATOM     17  N   UNL     1      -5.027  14.694  22.913  0.00  0.00    +0.000 NA
ENDBRANCH  13  16
BRANCH   1  18
ATOM     18  O   UNL     1       2.895   7.292  19.614  0.00  0.00    +0.000 OA
BRANCH  18  24
ATOM     19  C   UNL     1       6.750   5.281  17.466  0.00  0.00    +0.000 C 
ATOM     20  O   UNL     1       7.400   4.479  18.129  0.00  0.00    +0.000 OA
ATOM     21  N   UNL     1       5.572   5.847  17.927  0.00  0.00    +0.000 N 
ATOM     22  C   UNL     1       5.167   5.571  19.299  0.00  0.00    +0.000 C 
ATOM     23  C   UNL     1       3.728   5.072  19.326  0.00  0.00    +0.000 C 
ATOM     24  C   UNL     1       2.802   6.146  18.744  0.00  0.00    +0.000 C 
ATOM     25  C   UNL     1       3.255   6.445  17.301  0.00  0.00    +0.000 C 
ATOM     26  C   UNL     1       4.743   6.807  17.202  0.00  0.00    +0.000 C 
BRANCH  19  27
ATOM     27  O   UNL     1       7.115   5.674  16.206  0.00  0.00    +0.000 OA
BRANCH  27  29
ATOM     28  C   UNL     1       5.635   4.057  15.143  0.00  0.00    +0.000 C 
ATOM     29  C   UNL     1       7.057   4.610  15.228  0.00  0.00    +0.000 C 
ATOM     30  C   UNL     1       7.484   5.138  13.862  0.00  0.00    +0.000 C 
ENDBRANCH  27  29
ENDBRANCH  19  27
ENDBRANCH  18  24
ENDBRANCH   1  18
TORSDOF 5
ENDMDL
MODEL 6
REMARK VINA RESULT:      -7.0      2.305      4.079
REMARK  Name = 
REMARK  7 active torsions:
REMARK  status: ('A' for Active; 'I' for Inactive)
REMARK    1  A    between atoms: C_1  and  C_2
REMARK    2  A    between atoms: C_2  and  C_3
REMARK    3  A    between atoms: C_2  and  O_4
REMARK    4  A    between atoms: O_4  and  C_5
REMARK    5  A    between atoms: C_10  and  O_11
REMARK    6  A    between atoms: O_11  and  C_12
REMARK    7  A    between atoms: C_24  and  C_25
REMARK                            x       y       z     vdW  Elec       q    Type
REMARK                         _______ _______ _______ _____ _____    ______ ____
ROOT
ATOM      1  C   UNL     1       1.349   9.070  19.573  0.00  0.00    +0.000 A 
ATOM      2  N   UNL     1       1.246   9.770  18.432  0.00  0.00    +0.000 NA
ATOM      3  C   UNL     1       0.454  10.850  18.472  0.00  0.00    +0.000 A 
ATOM      4  N   UNL     1      -0.245  11.278  19.534  0.00  0.00    +0.000 NA
ATOM      5  C   UNL     1      -0.110  10.552  20.646  0.00  0.00    +0.000 A 
ATOM      6  C   UNL     1       0.677   9.425  20.711  0.00  0.00    +0.000 A 
ATOM      7  C   UNL     1       0.674   8.862  22.086  0.00  0.00    +0.000 C 
ATOM      8  C   UNL     1      -0.444   9.687  22.760  0.00  0.00    +0.000 C 
ATOM      9  N   UNL     1      -0.715  10.835  21.891  0.00  0.00    +0.000 N 
ATOM     10  C   UNL     1      -1.669  11.777  22.265  0.00  0.00    +0.000 A 
ATOM     11  C   UNL     1      -1.935  12.886  21.464  0.00  0.00    +0.000 A 
ATOM     12  C   UNL     1      -2.905  13.812  21.840  0.00  0.00    +0.000 A 
ATOM     13  C   UNL     1      -3.592  13.616  23.027  0.00  0.00    +0.000 A 
ATOM     14  C   UNL     1      -3.270  12.506  23.787  0.00  0.00    +0.000 A 
ATOM     15  N   UNL     1      -2.330  11.599  23.434  0.00  0.00    +0.000 NA
ENDROOT
BRANCH  13  16
ATOM     16  C   UNL     1      -4.591  14.525  23.453  0.00  0.00    +0.000 C 
ATOM     17  N   UNL     1      -5.411  15.269  23.804  0.00  0.00    +0.000 NA
ENDBRANCH  13  16
BRANCH   1  18
ATOM     18  O   UNL     1       2.221   8.009  19.623  0.00  0.00    +0.000 OA
BRANCH  18  24
ATOM     19  C   UNL     1       5.676   4.831  18.403  0.00  0.00    +0.000 C 
ATOM     20  O   UNL     1       5.752   3.808  19.076  0.00  0.00    +0.000 OA
ATOM     21  N   UNL     1       4.672   5.769  18.584  0.00  0.00    +0.000 N 
ATOM     22  C   UNL     1       3.752   5.585  19.700  0.00  0.00    +0.000 C 
ATOM     23  C   UNL     1       2.314   5.659  19.206  0.00  0.00    +0.000 C 
ATOM     24  C   UNL     1       2.057   7.032  18.575  0.00  0.00    +0.000 C 
ATOM     25  C   UNL     1       3.051   7.223  17.411  0.00  0.00    +0.000 C 
ATOM     26  C   UNL     1       4.512   7.009  17.828  0.00  0.00    +0.000 C 
BRANCH  19  27
ATOM     27  O   UNL     1       6.560   5.131  17.402  0.00  0.00    +0.000 OA
BRANCH  27  29
ATOM     28  C   UNL     1       4.999   3.998  15.915  0.00  0.00    +0.000 C 
ATOM     29  C   UNL     1       6.466   4.247  16.262  0.00  0.00    +0.000 C 
ATOM     30  C   UNL     1       7.179   4.867  15.064  0.00  0.00    +0.000 C 
ENDBRANCH  27  29
ENDBRANCH  19  27
ENDBRANCH  18  24
ENDBRANCH   1  18
TORSDOF 5
ENDMDL
MODEL 7
REMARK VINA RESULT:      -7.0      4.603      9.599
REMARK  Name = 
REMARK  7 active torsions:
REMARK  status: ('A' for Active; 'I' for Inactive)
REMARK    1  A    between atoms: C_1  and  C_2
REMARK    2  A    between atoms: C_2  and  C_3
REMARK    3  A    between atoms: C_2  and  O_4
REMARK    4  A    between atoms: O_4  and  C_5
REMARK    5  A    between atoms: C_10  and  O_11
REMARK    6  A    between atoms: O_11  and  C_12
REMARK    7  A    between atoms: C_24  and  C_25
REMARK                            x       y       z     vdW  Elec       q    Type
REMARK                         _______ _______ _______ _____ _____    ______ ____
ROOT
ATOM      1  C   UNL     1       0.390  11.171  20.211  0.00  0.00    +0.000 A 
ATOM      2  N   UNL     1      -0.142  10.813  21.390  0.00  0.00    +0.000 NA
ATOM      3  C   UNL     1       0.058   9.543  21.767  0.00  0.00    +0.000 A 
ATOM      4  N   UNL     1       0.722   8.609  21.071  0.00  0.00    +0.000 NA
ATOM      5  C   UNL     1       1.235   9.010  19.907  0.00  0.00    +0.000 A 
ATOM      6  C   UNL     1       1.086  10.292  19.427  0.00  0.00    +0.000 A 
ATOM      7  C   UNL     1       1.809  10.458  18.139  0.00  0.00    +0.000 C 
ATOM      8  C   UNL     1       2.193   8.999  17.805  0.00  0.00    +0.000 C 
ATOM      9  N   UNL     1       2.004   8.215  19.028  0.00  0.00    +0.000 N 
ATOM     10  C   UNL     1       2.305   6.855  19.032  0.00  0.00    +0.000 A 
ATOM     11  C   UNL     1       2.149   6.089  20.185  0.00  0.00    +0.000 A 
ATOM     12  C   UNL     1       2.435   4.726  20.172  0.00  0.00    +0.000 A 
ATOM     13  C   UNL     1       2.885   4.150  18.995  0.00  0.00    +0.000 A 
ATOM     14  C   UNL     1       3.037   4.966  17.889  0.00  0.00    +0.000 A 
ATOM     15  N   UNL     1       2.763   6.291  17.889  0.00  0.00    +0.000 NA
ENDROOT
BRANCH  13  16
ATOM     16  C   UNL     1       3.185   2.767  18.926  0.00  0.00    +0.000 C 
ATOM     17  N   UNL     1       3.432   1.634  18.871  0.00  0.00    +0.000 NA
ENDBRANCH  13  16
BRANCH   1  18
ATOM     18  O   UNL     1       0.302  12.485  19.816  0.00  0.00    +0.000 OA
BRANCH  18  24
ATOM     19  C   UNL     1       3.140  16.158  18.409  0.00  0.00    +0.000 C 
ATOM     20  O   UNL     1       2.577  17.171  18.007  0.00  0.00    +0.000 OA
ATOM     21  N   UNL     1       2.445  15.079  18.933  0.00  0.00    +0.000 N 
ATOM     22  C   UNL     1       0.989  15.108  18.884  0.00  0.00    +0.000 C 
ATOM     23  C   UNL     1       0.417  14.828  20.266  0.00  0.00    +0.000 C 
ATOM     24  C   UNL     1       0.867  13.440  20.736  0.00  0.00    +0.000 C 
ATOM     25  C   UNL     1       2.409  13.415  20.763  0.00  0.00    +0.000 C 
ATOM     26  C   UNL     1       3.039  13.839  19.429  0.00  0.00    +0.000 C 
BRANCH  19  27
ATOM     27  O   UNL     1       4.500  16.006  18.396  0.00  0.00    +0.000 OA
BRANCH  27  29
ATOM     28  C   UNL     1       4.997  16.766  20.655  0.00  0.00    +0.000 C 
ATOM     29  C   UNL     1       5.203  17.012  19.162  0.00  0.00    +0.000 C 
ATOM     30  C   UNL     1       6.692  16.966  18.835  0.00  0.00    +0.000 C 
ENDBRANCH  27  29
ENDBRANCH  19  27
ENDBRANCH  18  24
ENDBRANCH   1  18
TORSDOF 5
ENDMDL
MODEL 8
REMARK VINA RESULT:      -6.7      4.426     10.997
REMARK  Name = 
REMARK  7 active torsions:
REMARK  status: ('A' for Active; 'I' for Inactive)
REMARK    1  A    between atoms: C_1  and  C_2
REMARK    2  A    between atoms: C_2  and  C_3
REMARK    3  A    between atoms: C_2  and  O_4
REMARK    4  A    between atoms: O_4  and  C_5
REMARK    5  A    between atoms: C_10  and  O_11
REMARK    6  A    between atoms: O_11  and  C_12
REMARK    7  A    between atoms: C_24  and  C_25
REMARK                            x       y       z     vdW  Elec       q    Type
REMARK                         _______ _______ _______ _____ _____    ______ ____
ROOT
ATOM      1  C   UNL     1       0.667  10.664  20.419  0.00  0.00    +0.000 A 
ATOM      2  N   UNL     1       0.304  10.282  21.654  0.00  0.00    +0.000 NA
ATOM      3  C   UNL     1       0.578   9.013  21.984  0.00  0.00    +0.000 A 
ATOM      4  N   UNL     1       1.163   8.101  21.194  0.00  0.00    +0.000 NA
ATOM      5  C   UNL     1       1.509   8.526  19.977  0.00  0.00    +0.000 A 
ATOM      6  C   UNL     1       1.271   9.808  19.538  0.00  0.00    +0.000 A 
ATOM      7  C   UNL     1       1.813  10.004  18.168  0.00  0.00    +0.000 C 
ATOM      8  C   UNL     1       2.180   8.558  17.768  0.00  0.00    +0.000 C 
ATOM      9  N   UNL     1       2.171   7.757  18.994  0.00  0.00    +0.000 N 
ATOM     10  C   UNL     1       2.498   6.404  18.940  0.00  0.00    +0.000 A 
ATOM     11  C   UNL     1       2.511   5.623  20.094  0.00  0.00    +0.000 A 
ATOM     12  C   UNL     1       2.822   4.267  20.024  0.00  0.00    +0.000 A 
ATOM     13  C   UNL     1       3.124   3.712  18.791  0.00  0.00    +0.000 A 
ATOM     14  C   UNL     1       3.110   4.543  17.686  0.00  0.00    +0.000 A 
ATOM     15  N   UNL     1       2.812   5.862  17.739  0.00  0.00    +0.000 NA
ENDROOT
BRANCH  13  16
ATOM     16  C   UNL     1       3.440   2.338  18.665  0.00  0.00    +0.000 C 
ATOM     17  N   UNL     1       3.698   1.210  18.559  0.00  0.00    +0.000 NA
ENDBRANCH  13  16
BRANCH   1  18
ATOM     18  O   UNL     1       0.501  11.979  20.056  0.00  0.00    +0.000 OA
BRANCH  18  24
ATOM     19  C   UNL     1      -2.922  15.302  20.931  0.00  0.00    +0.000 C 
ATOM     20  O   UNL     1      -2.661  16.461  20.626  0.00  0.00    +0.000 OA
ATOM     21  N   UNL     1      -2.072  14.246  20.641  0.00  0.00    +0.000 N 
ATOM     22  C   UNL     1      -0.768  14.551  20.066  0.00  0.00    +0.000 C 
ATOM     23  C   UNL     1      -0.549  13.723  18.807  0.00  0.00    +0.000 C 
ATOM     24  C   UNL     1      -0.598  12.232  19.158  0.00  0.00    +0.000 C 
ATOM     25  C   UNL     1      -1.973  11.928  19.785  0.00  0.00    +0.000 C 
ATOM     26  C   UNL     1      -2.307  12.843  20.971  0.00  0.00    +0.000 C 
BRANCH  19  27
ATOM     27  O   UNL     1      -4.080  14.941  21.566  0.00  0.00    +0.000 OA
BRANCH  27  29
ATOM     28  C   UNL     1      -5.652  16.023  23.079  0.00  0.00    +0.000 C 
ATOM     29  C   UNL     1      -4.223  15.519  22.884  0.00  0.00    +0.000 C 
ATOM     30  C   UNL     1      -3.898  14.474  23.946  0.00  0.00    +0.000 C 
ENDBRANCH  27  29
ENDBRANCH  19  27
ENDBRANCH  18  24
ENDBRANCH   1  18
TORSDOF 5
ENDMDL
MODEL 9
REMARK VINA RESULT:      -6.7      3.094      4.538
REMARK  Name = 
REMARK  7 active torsions:
REMARK  status: ('A' for Active; 'I' for Inactive)
REMARK    1  A    between atoms: C_1  and  C_2
REMARK    2  A    between atoms: C_2  and  C_3
REMARK    3  A    between atoms: C_2  and  O_4
REMARK    4  A    between atoms: O_4  and  C_5
REMARK    5  A    between atoms: C_10  and  O_11
REMARK    6  A    between atoms: O_11  and  C_12
REMARK    7  A    between atoms: C_24  and  C_25
REMARK                            x       y       z     vdW  Elec       q    Type
REMARK                         _______ _______ _______ _____ _____    ______ ____
ROOT
ATOM      1  C   UNL     1       1.205   9.011  19.491  0.00  0.00    +0.000 A 
ATOM      2  N   UNL     1       0.970   9.614  18.315  0.00  0.00    +0.000 NA
ATOM      3  C   UNL     1       0.120  10.650  18.342  0.00  0.00    +0.000 A 
ATOM      4  N   UNL     1      -0.517  11.120  19.425  0.00  0.00    +0.000 NA
ATOM      5  C   UNL     1      -0.251  10.491  20.571  0.00  0.00    +0.000 A 
ATOM      6  C   UNL     1       0.604   9.416  20.652  0.00  0.00    +0.000 A 
ATOM      7  C   UNL     1       0.744   8.962  22.060  0.00  0.00    +0.000 C 
ATOM      8  C   UNL     1      -0.365   9.775  22.763  0.00  0.00    +0.000 C 
ATOM      9  N   UNL     1      -0.772  10.836  21.838  0.00  0.00    +0.000 N 
ATOM     10  C   UNL     1      -1.748  11.751  22.221  0.00  0.00    +0.000 A 
ATOM     11  C   UNL     1      -2.143  12.779  21.367  0.00  0.00    +0.000 A 
ATOM     12  C   UNL     1      -3.134  13.678  21.754  0.00  0.00    +0.000 A 
ATOM     13  C   UNL     1      -3.712  13.537  23.005  0.00  0.00    +0.000 A 
ATOM     14  C   UNL     1      -3.265  12.509  23.815  0.00  0.00    +0.000 A 
ATOM     15  N   UNL     1      -2.303  11.629  23.451  0.00  0.00    +0.000 NA
ENDROOT
BRANCH  13  16
ATOM     16  C   UNL     1      -4.727  14.421  23.446  0.00  0.00    +0.000 C 
ATOM     17  N   UNL     1      -5.559  15.147  23.805  0.00  0.00    +0.000 NA
ENDBRANCH  13  16
BRANCH   1  18
ATOM     18  O   UNL     1       2.140   8.006  19.545  0.00  0.00    +0.000 OA
BRANCH  18  24
ATOM     19  C   UNL     1       5.535   4.668  18.620  0.00  0.00    +0.000 C 
ATOM     20  O   UNL     1       5.580   3.699  19.370  0.00  0.00    +0.000 OA
ATOM     21  N   UNL     1       4.551   5.639  18.715  0.00  0.00    +0.000 N 
ATOM     22  C   UNL     1       3.614   5.562  19.828  0.00  0.00    +0.000 C 
ATOM     23  C   UNL     1       2.184   5.629  19.310  0.00  0.00    +0.000 C 
ATOM     24  C   UNL     1       1.967   6.955  18.573  0.00  0.00    +0.000 C 
ATOM     25  C   UNL     1       2.979   7.034  17.411  0.00  0.00    +0.000 C 
ATOM     26  C   UNL     1       4.430   6.821  17.864  0.00  0.00    +0.000 C 
BRANCH  19  27
ATOM     27  O   UNL     1       6.439   4.871  17.611  0.00  0.00    +0.000 OA
BRANCH  27  29
ATOM     28  C   UNL     1       7.639   6.984  17.447  0.00  0.00    +0.000 C 
ATOM     29  C   UNL     1       7.631   5.573  18.033  0.00  0.00    +0.000 C 
ATOM     30  C   UNL     1       7.676   5.649  19.555  0.00  0.00    +0.000 C 
ENDBRANCH  27  29
ENDBRANCH  19  27
ENDBRANCH  18  24
ENDBRANCH   1  18
TORSDOF 5
ENDMDL
