MODEL 1
REMARK VINA RESULT:      -8.9      0.000      0.000
REMARK  Name = 
REMARK  5 active torsions:
REMARK  status: ('A' for Active; 'I' for Inactive)
REMARK    1  A    between atoms: C_1  and  O_2
REMARK    2  A    between atoms: O_2  and  C_3
REMARK    3  A    between atoms: C_10  and  S_11
REMARK    4  A    between atoms: S_11  and  C_12
REMARK    5  A    between atoms: C_18  and  C_19
REMARK                            x       y       z     vdW  Elec       q    Type
REMARK                         _______ _______ _______ _____ _____    ______ ____
ROOT
ATOM      1  S   UNL     1       1.242  10.373  18.660  0.00  0.00    +0.000 S 
ENDROOT
BRANCH   1   9
ATOM      2  C   UNL     1      -6.898  11.873  19.861  0.00  0.00    +0.000 C 
ATOM      3  O   UNL     1      -7.055  10.728  19.456  0.00  0.00    +0.000 OA
ATOM      4  N   UNL     1      -5.821  12.676  19.624  0.00  0.00    +0.000 N 
ATOM      5  C   UNL     1      -4.652  12.145  19.152  0.00  0.00    +0.000 A 
ATOM      6  N   UNL     1      -3.471  12.484  19.606  0.00  0.00    +0.000 NA
ATOM      7  C   UNL     1      -2.591  11.642  18.975  0.00  0.00    +0.000 A 
ATOM      8  C   UNL     1      -1.215  11.474  19.183  0.00  0.00    +0.000 A 
ATOM      9  C   UNL     1      -0.516  10.553  18.389  0.00  0.00    +0.000 A 
ATOM     10  C   UNL     1      -1.183   9.854  17.373  0.00  0.00    +0.000 A 
ATOM     11  C   UNL     1      -2.565   9.992  17.165  0.00  0.00    +0.000 A 
ATOM     12  C   UNL     1      -3.239  10.872  18.013  0.00  0.00    +0.000 A 
ATOM     13  N   UNL     1      -4.563  11.197  18.165  0.00  0.00    +0.000 N 
ATOM     14  H   UNL     1      -5.728  13.460  20.253  0.00  0.00    +0.000 HD
ATOM     15  H   UNL     1      -5.349  10.800  17.669  0.00  0.00    +0.000 HD
BRANCH   2  17
ATOM     16  C   UNL     1      -7.542  12.224  22.095  0.00  0.00    +0.000 C 
ATOM     17  O   UNL     1      -7.733  12.522  20.712  0.00  0.00    +0.000 OA
ENDBRANCH   2  17
ENDBRANCH   1   9
BRANCH   1  18
ATOM     18  C   UNL     1       1.267   9.051  19.775  0.00  0.00    +0.000 A 
ATOM     19  N   UNL     1       0.587   8.991  20.898  0.00  0.00    +0.000 NA
ATOM     20  N   UNL     1       0.800   7.751  21.460  0.00  0.00    +0.000 NA
ATOM     21  C   UNL     1       1.597   7.082  20.657  0.00  0.00    +0.000 A 
ATOM     22  C   UNL     1       2.144   5.785  20.733  0.00  0.00    +0.000 A 
ATOM     23  C   UNL     1       2.938   5.351  19.746  0.00  0.00    +0.000 A 
ATOM     24  C   UNL     1       3.176   6.269  18.586  0.00  0.00    +0.000 A 
ATOM     25  N   UNL     1       2.711   7.481  18.498  0.00  0.00    +0.000 NA
ATOM     26  N   UNL     1       1.927   7.855  19.559  0.00  0.00    +0.000 N 
BRANCH  24  27
ATOM     27  C   UNL     1       4.015   5.739  17.468  0.00  0.00    +0.000 A 
ATOM     28  C   UNL     1       4.120   4.365  17.204  0.00  0.00    +0.000 A 
ATOM     29  C   UNL     1       4.886   3.915  16.124  0.00  0.00    +0.000 A 
ATOM     30  C   UNL     1       5.530   4.838  15.307  0.00  0.00    +0.000 A 
ATOM     31  F   UNL     1       6.252   4.402  14.266  0.00  0.00    +0.000 F 
ATOM     32  C   UNL     1       5.427   6.202  15.547  0.00  0.00    +0.000 A 
ATOM     33  C   UNL     1       4.667   6.654  16.628  0.00  0.00    +0.000 A 
ENDBRANCH  24  27
ENDBRANCH   1  18
TORSDOF 4
ENDMDL
MODEL 2
REMARK VINA RESULT:      -8.8      6.837     10.136
REMARK  Name = 
REMARK  5 active torsions:
REMARK  status: ('A' for Active; 'I' for Inactive)
REMARK    1  A    between atoms: C_1  and  O_2
REMARK    2  A    between atoms: O_2  and  C_3
REMARK    3  A    between atoms: C_10  and  S_11
REMARK    4  A    between atoms: S_11  and  C_12
REMARK    5  A    between atoms: C_18  and  C_19
REMARK                            x       y       z     vdW  Elec       q    Type
REMARK                         _______ _______ _______ _____ _____    ______ ____
ROOT
ATOM      1  S   UNL     1       5.613   4.361  16.776  0.00  0.00    +0.000 S 
ENDROOT
BRANCH   1   9
ATOM      2  C   UNL     1      10.100  11.316  17.980  0.00  0.00    +0.000 C 
ATOM      3  O   UNL     1      11.010  10.547  18.265  0.00  0.00    +0.000 OA
ATOM      4  N   UNL     1       8.764  11.042  18.022  0.00  0.00    +0.000 N 
ATOM      5  C   UNL     1       8.324   9.749  18.095  0.00  0.00    +0.000 A 
ATOM      6  N   UNL     1       7.322   9.287  17.390  0.00  0.00    +0.000 NA
ATOM      7  C   UNL     1       7.291   7.941  17.653  0.00  0.00    +0.000 A 
ATOM      8  C   UNL     1       6.506   6.938  17.068  0.00  0.00    +0.000 A 
ATOM      9  C   UNL     1       6.640   5.618  17.524  0.00  0.00    +0.000 A 
ATOM     10  C   UNL     1       7.510   5.328  18.586  0.00  0.00    +0.000 A 
ATOM     11  C   UNL     1       8.320   6.316  19.169  0.00  0.00    +0.000 A 
ATOM     12  C   UNL     1       8.204   7.606  18.648  0.00  0.00    +0.000 A 
ATOM     13  N   UNL     1       8.871   8.779  18.896  0.00  0.00    +0.000 N 
ATOM     14  H   UNL     1       8.183  11.678  17.495  0.00  0.00    +0.000 HD
ATOM     15  H   UNL     1       9.646   8.917  19.529  0.00  0.00    +0.000 HD
BRANCH   2  17
ATOM     16  C   UNL     1       9.282  13.517  17.878  0.00  0.00    +0.000 C 
ATOM     17  O   UNL     1      10.262  12.564  17.470  0.00  0.00    +0.000 OA
ENDBRANCH   2  17
ENDBRANCH   1   9
BRANCH   1  18
ATOM     18  C   UNL     1       4.670   3.858  18.135  0.00  0.00    +0.000 A 
ATOM     19  N   UNL     1       4.779   2.700  18.748  0.00  0.00    +0.000 NA
ATOM     20  N   UNL     1       3.925   2.708  19.830  0.00  0.00    +0.000 NA
ATOM     21  C   UNL     1       3.327   3.879  19.855  0.00  0.00    +0.000 A 
ATOM     22  C   UNL     1       2.363   4.429  20.723  0.00  0.00    +0.000 A 
ATOM     23  C   UNL     1       1.924   5.676  20.510  0.00  0.00    +0.000 A 
ATOM     24  C   UNL     1       2.516   6.437  19.362  0.00  0.00    +0.000 A 
ATOM     25  N   UNL     1       3.384   5.950  18.525  0.00  0.00    +0.000 NA
ATOM     26  N   UNL     1       3.764   4.661  18.802  0.00  0.00    +0.000 N 
BRANCH  24  27
ATOM     27  C   UNL     1       2.056   7.847  19.180  0.00  0.00    +0.000 A 
ATOM     28  C   UNL     1       2.247   8.542  17.977  0.00  0.00    +0.000 A 
ATOM     29  C   UNL     1       1.767   9.848  17.838  0.00  0.00    +0.000 A 
ATOM     30  C   UNL     1       1.089  10.447  18.894  0.00  0.00    +0.000 A 
ATOM     31  F   UNL     1       0.620  11.694  18.751  0.00  0.00    +0.000 F 
ATOM     32  C   UNL     1       0.881   9.769  20.088  0.00  0.00    +0.000 A 
ATOM     33  C   UNL     1       1.364   8.467  20.232  0.00  0.00    +0.000 A 
ENDBRANCH  24  27
ENDBRANCH   1  18
TORSDOF 4
ENDMDL
MODEL 3
REMARK VINA RESULT:      -8.7      6.509      9.773
REMARK  Name = 
REMARK  5 active torsions:
REMARK  status: ('A' for Active; 'I' for Inactive)
REMARK    1  A    between atoms: C_1  and  O_2
REMARK    2  A    between atoms: O_2  and  C_3
REMARK    3  A    between atoms: C_10  and  S_11
REMARK    4  A    between atoms: S_11  and  C_12
REMARK    5  A    between atoms: C_18  and  C_19
REMARK                            x       y       z     vdW  Elec       q    Type
REMARK                         _______ _______ _______ _____ _____    ______ ____
ROOT
ATOM      1  S   UNL     1       3.483   2.835  16.706  0.00  0.00    +0.000 S 
ENDROOT
BRANCH   1   9
ATOM      2  C   UNL     1       8.642   9.151  18.563  0.00  0.00    +0.000 C 
ATOM      3  O   UNL     1       8.221   9.653  17.529  0.00  0.00    +0.000 OA
ATOM      4  N   UNL     1       8.628   7.825  18.885  0.00  0.00    +0.000 N 
ATOM      5  C   UNL     1       7.840   6.951  18.187  0.00  0.00    +0.000 A 
ATOM      6  N   UNL     1       7.124   6.014  18.756  0.00  0.00    +0.000 NA
ATOM      7  C   UNL     1       6.392   5.457  17.739  0.00  0.00    +0.000 A 
ATOM      8  C   UNL     1       5.367   4.503  17.798  0.00  0.00    +0.000 A 
ATOM      9  C   UNL     1       4.774   4.067  16.604  0.00  0.00    +0.000 A 
ATOM     10  C   UNL     1       5.244   4.546  15.372  0.00  0.00    +0.000 A 
ATOM     11  C   UNL     1       6.255   5.518  15.294  0.00  0.00    +0.000 A 
ATOM     12  C   UNL     1       6.778   5.973  16.505  0.00  0.00    +0.000 A 
ATOM     13  N   UNL     1       7.690   6.947  16.824  0.00  0.00    +0.000 N 
ATOM     14  H   UNL     1       8.748   7.625  19.868  0.00  0.00    +0.000 HD
ATOM     15  H   UNL     1       8.157   7.577  16.187  0.00  0.00    +0.000 HD
BRANCH   2  17
ATOM     16  C   UNL     1       9.788  11.060  19.315  0.00  0.00    +0.000 C 
ATOM     17  O   UNL     1       9.115   9.843  19.631  0.00  0.00    +0.000 OA
ENDBRANCH   2  17
ENDBRANCH   1   9
BRANCH   1  18
ATOM     18  C   UNL     1       3.182   2.818  18.409  0.00  0.00    +0.000 A 
ATOM     19  N   UNL     1       3.394   1.795  19.207  0.00  0.00    +0.000 NA
ATOM     20  N   UNL     1       3.119   2.196  20.497  0.00  0.00    +0.000 NA
ATOM     21  C   UNL     1       2.758   3.460  20.452  0.00  0.00    +0.000 A 
ATOM     22  C   UNL     1       2.362   4.366  21.456  0.00  0.00    +0.000 A 
ATOM     23  C   UNL     1       2.047   5.623  21.117  0.00  0.00    +0.000 A 
ATOM     24  C   UNL     1       2.164   6.006  19.673  0.00  0.00    +0.000 A 
ATOM     25  N   UNL     1       2.497   5.188  18.718  0.00  0.00    +0.000 NA
ATOM     26  N   UNL     1       2.783   3.917  19.147  0.00  0.00    +0.000 N 
BRANCH  24  27
ATOM     27  C   UNL     1       1.867   7.429  19.327  0.00  0.00    +0.000 A 
ATOM     28  C   UNL     1       1.299   8.316  20.254  0.00  0.00    +0.000 A 
ATOM     29  C   UNL     1       1.073   9.650  19.900  0.00  0.00    +0.000 A 
ATOM     30  C   UNL     1       1.427  10.094  18.630  0.00  0.00    +0.000 A 
ATOM     31  F   UNL     1       1.219  11.375  18.301  0.00  0.00    +0.000 F 
ATOM     32  C   UNL     1       2.001   9.232  17.705  0.00  0.00    +0.000 A 
ATOM     33  C   UNL     1       2.223   7.898  18.053  0.00  0.00    +0.000 A 
ENDBRANCH  24  27
ENDBRANCH   1  18
TORSDOF 4
ENDMDL
MODEL 4
REMARK VINA RESULT:      -8.6      1.020      1.040
REMARK  Name = 
REMARK  5 active torsions:
REMARK  status: ('A' for Active; 'I' for Inactive)
REMARK    1  A    between atoms: C_1  and  O_2
REMARK    2  A    between atoms: O_2  and  C_3
REMARK    3  A    between atoms: C_10  and  S_11
REMARK    4  A    between atoms: S_11  and  C_12
REMARK    5  A    between atoms: C_18  and  C_19
REMARK                            x       y       z     vdW  Elec       q    Type
REMARK                         _______ _______ _______ _____ _____    ______ ____
ROOT
ATOM      1  S   UNL     1       1.387  10.096  18.226  0.00  0.00    +0.000 S 
ENDROOT
BRANCH   1   9
ATOM      2  C   UNL     1      -5.939  12.717  21.291  0.00  0.00    +0.000 C 
ATOM      3  O   UNL     1      -6.362  11.635  20.906  0.00  0.00    +0.000 OA
ATOM      4  N   UNL     1      -4.829  13.364  20.832  0.00  0.00    +0.000 N 
ATOM      5  C   UNL     1      -3.893  12.694  20.094  0.00  0.00    +0.000 A 
ATOM      6  N   UNL     1      -2.602  12.826  20.273  0.00  0.00    +0.000 NA
ATOM      7  C   UNL     1      -2.030  11.900  19.439  0.00  0.00    +0.000 A 
ATOM      8  C   UNL     1      -0.686  11.518  19.322  0.00  0.00    +0.000 A 
ATOM      9  C   UNL     1      -0.336  10.551  18.369  0.00  0.00    +0.000 A 
ATOM     10  C   UNL     1      -1.314  10.020  17.515  0.00  0.00    +0.000 A 
ATOM     11  C   UNL     1      -2.668  10.375  17.632  0.00  0.00    +0.000 A 
ATOM     12  C   UNL     1      -2.988  11.294  18.633  0.00  0.00    +0.000 A 
ATOM     13  N   UNL     1      -4.177  11.803  19.090  0.00  0.00    +0.000 N 
ATOM     14  H   UNL     1      -4.476  14.087  21.442  0.00  0.00    +0.000 HD
ATOM     15  H   UNL     1      -5.106  11.557  18.778  0.00  0.00    +0.000 HD
BRANCH   2  17
ATOM     16  C   UNL     1      -5.495  13.875  23.288  0.00  0.00    +0.000 C 
ATOM     17  O   UNL     1      -6.451  13.433  22.326  0.00  0.00    +0.000 OA
ENDBRANCH   2  17
ENDBRANCH   1   9
BRANCH   1  18
ATOM     18  C   UNL     1       1.494   8.843  19.413  0.00  0.00    +0.000 A 
ATOM     19  N   UNL     1       0.844   8.822  20.556  0.00  0.00    +0.000 NA
ATOM     20  N   UNL     1       1.121   7.626  21.182  0.00  0.00    +0.000 NA
ATOM     21  C   UNL     1       1.924   6.942  20.397  0.00  0.00    +0.000 A 
ATOM     22  C   UNL     1       2.525   5.675  20.532  0.00  0.00    +0.000 A 
ATOM     23  C   UNL     1       3.311   5.215  19.551  0.00  0.00    +0.000 A 
ATOM     24  C   UNL     1       3.483   6.072  18.334  0.00  0.00    +0.000 A 
ATOM     25  N   UNL     1       2.968   7.258  18.190  0.00  0.00    +0.000 NA
ATOM     26  N   UNL     1       2.195   7.663  19.248  0.00  0.00    +0.000 N 
BRANCH  24  27
ATOM     27  C   UNL     1       4.315   5.511  17.226  0.00  0.00    +0.000 A 
ATOM     28  C   UNL     1       4.518   4.132  17.074  0.00  0.00    +0.000 A 
ATOM     29  C   UNL     1       5.271   3.648  16.001  0.00  0.00    +0.000 A 
ATOM     30  C   UNL     1       5.806   4.542  15.079  0.00  0.00    +0.000 A 
ATOM     31  F   UNL     1       6.518   4.072  14.046  0.00  0.00    +0.000 F 
ATOM     32  C   UNL     1       5.606   5.909  15.208  0.00  0.00    +0.000 A 
ATOM     33  C   UNL     1       4.858   6.396  16.282  0.00  0.00    +0.000 A 
ENDBRANCH  24  27
ENDBRANCH   1  18
TORSDOF 4
ENDMDL
MODEL 5
REMARK VINA RESULT:      -8.5      0.848      1.232
REMARK  Name = 
REMARK  5 active torsions:
REMARK  status: ('A' for Active; 'I' for Inactive)
REMARK    1  A    between atoms: C_1  and  O_2
REMARK    2  A    between atoms: O_2  and  C_3
REMARK    3  A    between atoms: C_10  and  S_11
REMARK    4  A    between atoms: S_11  and  C_12
REMARK    5  A    between atoms: C_18  and  C_19
REMARK                            x       y       z     vdW  Elec       q    Type
REMARK                         _______ _______ _______ _____ _____    ______ ____
ROOT
ATOM      1  S   UNL     1       1.217  10.511  18.707  0.00  0.00    +0.000 S 
ENDROOT
BRANCH   1   9
ATOM      2  C   UNL     1      -6.497  12.867  20.917  0.00  0.00    +0.000 C 
ATOM      3  O   UNL     1      -6.839  11.782  20.463  0.00  0.00    +0.000 OA
ATOM      4  N   UNL     1      -5.359  13.553  20.607  0.00  0.00    +0.000 N 
ATOM      5  C   UNL     1      -4.323  12.924  19.974  0.00  0.00    +0.000 A 
ATOM      6  N   UNL     1      -3.067  13.087  20.309  0.00  0.00    +0.000 NA
ATOM      7  C   UNL     1      -2.372  12.195  19.533  0.00  0.00    +0.000 A 
ATOM      8  C   UNL     1      -1.013  11.852  19.571  0.00  0.00    +0.000 A 
ATOM      9  C   UNL     1      -0.523  10.916  18.649  0.00  0.00    +0.000 A 
ATOM     10  C   UNL     1      -1.376  10.378  17.675  0.00  0.00    +0.000 A 
ATOM     11  C   UNL     1      -2.744  10.694  17.634  0.00  0.00    +0.000 A 
ATOM     12  C   UNL     1      -3.209  11.581  18.606  0.00  0.00    +0.000 A 
ATOM     13  N   UNL     1      -4.458  12.048  18.927  0.00  0.00    +0.000 N 
ATOM     14  H   UNL     1      -5.103  14.272  21.268  0.00  0.00    +0.000 HD
ATOM     15  H   UNL     1      -5.336  11.784  18.501  0.00  0.00    +0.000 HD
BRANCH   2  17
ATOM     16  C   UNL     1      -7.691  14.805  21.501  0.00  0.00    +0.000 C 
ATOM     17  O   UNL     1      -7.150  13.545  21.895  0.00  0.00    +0.000 OA
ENDBRANCH   2  17
ENDBRANCH   1   9
BRANCH   1  18
ATOM     18  C   UNL     1       1.207   9.181  19.812  0.00  0.00    +0.000 A 
ATOM     19  N   UNL     1       0.520   9.130  20.932  0.00  0.00    +0.000 NA
ATOM     20  N   UNL     1       0.701   7.882  21.487  0.00  0.00    +0.000 NA
ATOM     21  C   UNL     1       1.486   7.199  20.683  0.00  0.00    +0.000 A 
ATOM     22  C   UNL     1       2.003   5.890  20.753  0.00  0.00    +0.000 A 
ATOM     23  C   UNL     1       2.791   5.443  19.766  0.00  0.00    +0.000 A 
ATOM     24  C   UNL     1       3.056   6.363  18.614  0.00  0.00    +0.000 A 
ATOM     25  N   UNL     1       2.620   7.586  18.532  0.00  0.00    +0.000 NA
ATOM     26  N   UNL     1       1.839   7.971  19.591  0.00  0.00    +0.000 N 
BRANCH  24  27
ATOM     27  C   UNL     1       3.887   5.821  17.496  0.00  0.00    +0.000 A 
ATOM     28  C   UNL     1       4.633   6.656  16.651  0.00  0.00    +0.000 A 
ATOM     29  C   UNL     1       5.427   6.103  15.642  0.00  0.00    +0.000 A 
ATOM     30  C   UNL     1       5.484   4.722  15.491  0.00  0.00    +0.000 A 
ATOM     31  F   UNL     1       6.256   4.197  14.531  0.00  0.00    +0.000 F 
ATOM     32  C   UNL     1       4.761   3.880  16.326  0.00  0.00    +0.000 A 
ATOM     33  C   UNL     1       3.962   4.429  17.332  0.00  0.00    +0.000 A 
ENDBRANCH  24  27
ENDBRANCH   1  18
TORSDOF 4
ENDMDL
MODEL 6
REMARK VINA RESULT:      -8.4      5.014     10.558
REMARK  Name = 
REMARK  5 active torsions:
REMARK  status: ('A' for Active; 'I' for Inactive)
REMARK    1  A    between atoms: C_1  and  O_2
REMARK    2  A    between atoms: O_2  and  C_3
REMARK    3  A    between atoms: C_10  and  S_11
REMARK    4  A    between atoms: S_11  and  C_12
REMARK    5  A    between atoms: C_18  and  C_19
REMARK                            x       y       z     vdW  Elec       q    Type
REMARK                         _______ _______ _______ _____ _____    ______ ____
ROOT
ATOM      1  S   UNL     1      -0.784  12.450  19.255  0.00  0.00    +0.000 S 
ENDROOT
BRANCH   1   9
ATOM      2  C   UNL     1       2.374   4.748  20.062  0.00  0.00    +0.000 C 
ATOM      3  O   UNL     1       1.412   4.549  20.793  0.00  0.00    +0.000 OA
ATOM      4  N   UNL     1       2.921   5.959  19.753  0.00  0.00    +0.000 N 
ATOM      5  C   UNL     1       2.231   7.113  19.998  0.00  0.00    +0.000 A 
ATOM      6  N   UNL     1       2.170   8.111  19.152  0.00  0.00    +0.000 NA
ATOM      7  C   UNL     1       1.288   9.000  19.711  0.00  0.00    +0.000 A 
ATOM      8  C   UNL     1       0.750  10.178  19.174  0.00  0.00    +0.000 A 
ATOM      9  C   UNL     1      -0.129  10.941  19.956  0.00  0.00    +0.000 A 
ATOM     10  C   UNL     1      -0.417  10.551  21.272  0.00  0.00    +0.000 A 
ATOM     11  C   UNL     1       0.094   9.363  21.819  0.00  0.00    +0.000 A 
ATOM     12  C   UNL     1       0.916   8.597  20.990  0.00  0.00    +0.000 A 
ATOM     13  N   UNL     1       1.516   7.372  21.140  0.00  0.00    +0.000 N 
ATOM     14  H   UNL     1       3.511   5.961  18.933  0.00  0.00    +0.000 HD
ATOM     15  H   UNL     1       1.434   6.746  21.928  0.00  0.00    +0.000 HD
BRANCH   2  17
ATOM     16  C   UNL     1       2.542   3.621  18.006  0.00  0.00    +0.000 C 
ATOM     17  O   UNL     1       3.017   3.794  19.340  0.00  0.00    +0.000 OA
ENDBRANCH   2  17
ENDBRANCH   1   9
BRANCH   1  18
ATOM     18  C   UNL     1      -2.124  11.835  18.352  0.00  0.00    +0.000 A 
ATOM     19  N   UNL     1      -2.037  11.171  17.221  0.00  0.00    +0.000 NA
ATOM     20  N   UNL     1      -3.306  10.776  16.858  0.00  0.00    +0.000 NA
ATOM     21  C   UNL     1      -4.135  11.201  17.787  0.00  0.00    +0.000 A 
ATOM     22  C   UNL     1      -5.533  11.092  17.928  0.00  0.00    +0.000 A 
ATOM     23  C   UNL     1      -6.126  11.627  19.003  0.00  0.00    +0.000 A 
ATOM     24  C   UNL     1      -5.254  12.293  20.023  0.00  0.00    +0.000 A 
ATOM     25  N   UNL     1      -3.965  12.437  19.910  0.00  0.00    +0.000 NA
ATOM     26  N   UNL     1      -3.441  11.880  18.772  0.00  0.00    +0.000 N 
BRANCH  24  27
ATOM     27  C   UNL     1      -5.931  12.828  21.243  0.00  0.00    +0.000 A 
ATOM     28  C   UNL     1      -7.320  13.015  21.301  0.00  0.00    +0.000 A 
ATOM     29  C   UNL     1      -7.916  13.482  22.476  0.00  0.00    +0.000 A 
ATOM     30  C   UNL     1      -7.127  13.746  23.589  0.00  0.00    +0.000 A 
ATOM     31  F   UNL     1      -7.704  14.182  24.716  0.00  0.00    +0.000 F 
ATOM     32  C   UNL     1      -5.751  13.556  23.553  0.00  0.00    +0.000 A 
ATOM     33  C   UNL     1      -5.152  13.094  22.379  0.00  0.00    +0.000 A 
ENDBRANCH  24  27
ENDBRANCH   1  18
TORSDOF 4
ENDMDL
MODEL 7
REMARK VINA RESULT:      -8.4      1.378      1.762
REMARK  Name = 
REMARK  5 active torsions:
REMARK  status: ('A' for Active; 'I' for Inactive)
REMARK    1  A    between atoms: C_1  and  O_2
REMARK    2  A    between atoms: O_2  and  C_3
REMARK    3  A    between atoms: C_10  and  S_11
REMARK    4  A    between atoms: S_11  and  C_12
REMARK    5  A    between atoms: C_18  and  C_19
REMARK                            x       y       z     vdW  Elec       q    Type
REMARK                         _______ _______ _______ _____ _____    ______ ____
ROOT
ATOM      1  S   UNL     1       1.481  10.177  18.286  0.00  0.00    +0.000 S 
ENDROOT
BRANCH   1   9
ATOM      2  C   UNL     1      -5.340  13.630  21.679  0.00  0.00    +0.000 C 
ATOM      3  O   UNL     1      -5.867  12.549  21.448  0.00  0.00    +0.000 OA
ATOM      4  N   UNL     1      -4.237  14.143  21.060  0.00  0.00    +0.000 N 
ATOM      5  C   UNL     1      -3.421  13.335  20.318  0.00  0.00    +0.000 A 
ATOM      6  N   UNL     1      -2.113  13.387  20.370  0.00  0.00    +0.000 NA
ATOM      7  C   UNL     1      -1.682  12.343  19.592  0.00  0.00    +0.000 A 
ATOM      8  C   UNL     1      -0.384  11.852  19.401  0.00  0.00    +0.000 A 
ATOM      9  C   UNL     1      -0.188  10.771  18.528  0.00  0.00    +0.000 A 
ATOM     10  C   UNL     1      -1.274  10.233  17.823  0.00  0.00    +0.000 A 
ATOM     11  C   UNL     1      -2.585  10.698  18.018  0.00  0.00    +0.000 A 
ATOM     12  C   UNL     1      -2.750  11.733  18.940  0.00  0.00    +0.000 A 
ATOM     13  N   UNL     1      -3.855  12.372  19.443  0.00  0.00    +0.000 N 
ATOM     14  H   UNL     1      -3.782  14.895  21.557  0.00  0.00    +0.000 HD
ATOM     15  H   UNL     1      -4.823  12.167  19.239  0.00  0.00    +0.000 HD
BRANCH   2  17
ATOM     16  C   UNL     1      -4.805  14.542  23.778  0.00  0.00    +0.000 C 
ATOM     17  O   UNL     1      -5.704  14.481  22.672  0.00  0.00    +0.000 OA
ENDBRANCH   2  17
ENDBRANCH   1   9
BRANCH   1  18
ATOM     18  C   UNL     1       1.536   8.884  19.432  0.00  0.00    +0.000 A 
ATOM     19  N   UNL     1       0.869   8.842  20.564  0.00  0.00    +0.000 NA
ATOM     20  N   UNL     1       1.104   7.619  21.154  0.00  0.00    +0.000 NA
ATOM     21  C   UNL     1       1.901   6.941  20.358  0.00  0.00    +0.000 A 
ATOM     22  C   UNL     1       2.468   5.654  20.460  0.00  0.00    +0.000 A 
ATOM     23  C   UNL     1       3.257   5.206  19.475  0.00  0.00    +0.000 A 
ATOM     24  C   UNL     1       3.470   6.099  18.291  0.00  0.00    +0.000 A 
ATOM     25  N   UNL     1       2.988   7.302  18.178  0.00  0.00    +0.000 NA
ATOM     26  N   UNL     1       2.209   7.691  19.238  0.00  0.00    +0.000 N 
BRANCH  24  27
ATOM     27  C   UNL     1       4.304   5.553  17.177  0.00  0.00    +0.000 A 
ATOM     28  C   UNL     1       4.932   6.387  16.240  0.00  0.00    +0.000 A 
ATOM     29  C   UNL     1       5.735   5.836  15.237  0.00  0.00    +0.000 A 
ATOM     30  C   UNL     1       5.918   4.458  15.183  0.00  0.00    +0.000 A 
ATOM     31  F   UNL     1       6.697   3.936  14.227  0.00  0.00    +0.000 F 
ATOM     32  C   UNL     1       5.313   3.619  16.110  0.00  0.00    +0.000 A 
ATOM     33  C   UNL     1       4.506   4.166  17.110  0.00  0.00    +0.000 A 
ENDBRANCH  24  27
ENDBRANCH   1  18
TORSDOF 4
ENDMDL
MODEL 8
REMARK VINA RESULT:      -8.3      5.045      9.416
REMARK  Name = 
REMARK  5 active torsions:
REMARK  status: ('A' for Active; 'I' for Inactive)
REMARK    1  A    between atoms: C_1  and  O_2
REMARK    2  A    between atoms: O_2  and  C_3
REMARK    3  A    between atoms: C_10  and  S_11
REMARK    4  A    between atoms: S_11  and  C_12
REMARK    5  A    between atoms: C_18  and  C_19
REMARK                            x       y       z     vdW  Elec       q    Type
REMARK                         _______ _______ _______ _____ _____    ______ ____
ROOT
ATOM      1  S   UNL     1       0.118   8.394  21.573  0.00  0.00    +0.000 S 
ENDROOT
BRANCH   1   9
ATOM      2  C   UNL     1       6.566   6.126  16.754  0.00  0.00    +0.000 C 
ATOM      3  O   UNL     1       6.723   7.329  16.589  0.00  0.00    +0.000 OA
ATOM      4  N   UNL     1       5.413   5.503  17.132  0.00  0.00    +0.000 N 
ATOM      5  C   UNL     1       4.382   6.222  17.672  0.00  0.00    +0.000 A 
ATOM      6  N   UNL     1       3.693   5.825  18.713  0.00  0.00    +0.000 NA
ATOM      7  C   UNL     1       2.859   6.873  19.009  0.00  0.00    +0.000 A 
ATOM      8  C   UNL     1       2.000   7.045  20.103  0.00  0.00    +0.000 A 
ATOM      9  C   UNL     1       1.221   8.209  20.179  0.00  0.00    +0.000 A 
ATOM     10  C   UNL     1       1.271   9.155  19.145  0.00  0.00    +0.000 A 
ATOM     11  C   UNL     1       2.142   9.010  18.052  0.00  0.00    +0.000 A 
ATOM     12  C   UNL     1       2.946   7.869  18.042  0.00  0.00    +0.000 A 
ATOM     13  N   UNL     1       3.948   7.438  17.209  0.00  0.00    +0.000 N 
ATOM     14  H   UNL     1       5.533   4.566  17.489  0.00  0.00    +0.000 HD
ATOM     15  H   UNL     1       4.330   7.926  16.412  0.00  0.00    +0.000 HD
BRANCH   2  17
ATOM     16  C   UNL     1       7.807   4.492  17.901  0.00  0.00    +0.000 C 
ATOM     17  O   UNL     1       7.550   5.193  16.685  0.00  0.00    +0.000 OA
ENDBRANCH   2  17
ENDBRANCH   1   9
BRANCH   1  18
ATOM     18  C   UNL     1      -0.097  10.109  21.595  0.00  0.00    +0.000 A 
ATOM     19  N   UNL     1       0.428  10.930  22.477  0.00  0.00    +0.000 NA
ATOM     20  N   UNL     1       0.103  12.218  22.110  0.00  0.00    +0.000 NA
ATOM     21  C   UNL     1      -0.604  12.148  21.003  0.00  0.00    +0.000 A 
ATOM     22  C   UNL     1      -1.200  13.140  20.198  0.00  0.00    +0.000 A 
ATOM     23  C   UNL     1      -1.871  12.775  19.098  0.00  0.00    +0.000 A 
ATOM     24  C   UNL     1      -1.925  11.315  18.766  0.00  0.00    +0.000 A 
ATOM     25  N   UNL     1      -1.413  10.372  19.502  0.00  0.00    +0.000 NA
ATOM     26  N   UNL     1      -0.762  10.829  20.619  0.00  0.00    +0.000 N 
BRANCH  24  27
ATOM     27  C   UNL     1      -2.628  10.937  17.502  0.00  0.00    +0.000 A 
ATOM     28  C   UNL     1      -3.829  11.545  17.109  0.00  0.00    +0.000 A 
ATOM     29  C   UNL     1      -4.432  11.188  15.899  0.00  0.00    +0.000 A 
ATOM     30  C   UNL     1      -3.827  10.238  15.083  0.00  0.00    +0.000 A 
ATOM     31  F   UNL     1      -4.403   9.909  13.920  0.00  0.00    +0.000 F 
ATOM     32  C   UNL     1      -2.632   9.635  15.452  0.00  0.00    +0.000 A 
ATOM     33  C   UNL     1      -2.029   9.985  16.662  0.00  0.00    +0.000 A 
ENDBRANCH  24  27
ENDBRANCH   1  18
TORSDOF 4
ENDMDL
MODEL 9
REMARK VINA RESULT:      -8.3      5.110     10.562
REMARK  Name = 
REMARK  5 active torsions:
REMARK  status: ('A' for Active; 'I' for Inactive)
REMARK    1  A    between atoms: C_1  and  O_2
REMARK    2  A    between atoms: O_2  and  C_3
REMARK    3  A    between atoms: C_10  and  S_11
REMARK    4  A    between atoms: S_11  and  C_12
REMARK    5  A    between atoms: C_18  and  C_19
REMARK                            x       y       z     vdW  Elec       q    Type
REMARK                         _______ _______ _______ _____ _____    ______ ____
ROOT
ATOM      1  S   UNL     1      -0.089  11.666  18.779  0.00  0.00    +0.000 S 
ENDROOT
BRANCH   1   9
ATOM      2  C   UNL     1       3.217   3.984  18.870  0.00  0.00    +0.000 C 
ATOM      3  O   UNL     1       2.338   3.735  19.686  0.00  0.00    +0.000 OA
ATOM      4  N   UNL     1       3.717   5.217  18.567  0.00  0.00    +0.000 N 
ATOM      5  C   UNL     1       3.043   6.348  18.940  0.00  0.00    +0.000 A 
ATOM      6  N   UNL     1       2.884   7.384  18.155  0.00  0.00    +0.000 NA
ATOM      7  C   UNL     1       2.055   8.231  18.846  0.00  0.00    +0.000 A 
ATOM      8  C   UNL     1       1.453   9.425  18.427  0.00  0.00    +0.000 A 
ATOM      9  C   UNL     1       0.652  10.135  19.332  0.00  0.00    +0.000 A 
ATOM     10  C   UNL     1       0.506   9.677  20.650  0.00  0.00    +0.000 A 
ATOM     11  C   UNL     1       1.084   8.472  21.081  0.00  0.00    +0.000 A 
ATOM     12  C   UNL     1       1.823   7.761  20.135  0.00  0.00    +0.000 A 
ATOM     13  N   UNL     1       2.448   6.539  20.160  0.00  0.00    +0.000 N 
ATOM     14  H   UNL     1       4.218   5.269  17.692  0.00  0.00    +0.000 HD
ATOM     15  H   UNL     1       2.455   5.874  20.921  0.00  0.00    +0.000 HD
BRANCH   2  17
ATOM     16  C   UNL     1       3.337   1.734  18.201  0.00  0.00    +0.000 C 
ATOM     17  O   UNL     1       3.791   3.076  18.039  0.00  0.00    +0.000 OA
ENDBRANCH   2  17
ENDBRANCH   1   9
BRANCH   1  18
ATOM     18  C   UNL     1      -1.562  11.084  18.086  0.00  0.00    +0.000 A 
ATOM     19  N   UNL     1      -1.648  10.214  17.104  0.00  0.00    +0.000 NA
ATOM     20  N   UNL     1      -2.982   9.937  16.894  0.00  0.00    +0.000 NA
ATOM     21  C   UNL     1      -3.675  10.639  17.765  0.00  0.00    +0.000 A 
ATOM     22  C   UNL     1      -5.060  10.752  17.999  0.00  0.00    +0.000 A 
ATOM     23  C   UNL     1      -5.495  11.555  18.978  0.00  0.00    +0.000 A 
ATOM     24  C   UNL     1      -4.469  12.273  19.800  0.00  0.00    +0.000 A 
ATOM     25  N   UNL     1      -3.186  12.214  19.592  0.00  0.00    +0.000 NA
ATOM     26  N   UNL     1      -2.826  11.387  18.559  0.00  0.00    +0.000 N 
BRANCH  24  27
ATOM     27  C   UNL     1      -4.976  13.116  20.925  0.00  0.00    +0.000 A 
ATOM     28  C   UNL     1      -5.922  12.638  21.844  0.00  0.00    +0.000 A 
ATOM     29  C   UNL     1      -6.340  13.447  22.905  0.00  0.00    +0.000 A 
ATOM     30  C   UNL     1      -5.802  14.721  23.051  0.00  0.00    +0.000 A 
ATOM     31  F   UNL     1      -6.197  15.487  24.076  0.00  0.00    +0.000 F 
ATOM     32  C   UNL     1      -4.855  15.205  22.157  0.00  0.00    +0.000 A 
ATOM     33  C   UNL     1      -4.440  14.402  21.094  0.00  0.00    +0.000 A 
ENDBRANCH  24  27
ENDBRANCH   1  18
TORSDOF 4
ENDMDL
