MODEL 1
REMARK VINA RESULT:      -7.5      0.000      0.000
REMARK  Name = 
REMARK  13 active torsions:
REMARK  status: ('A' for Active; 'I' for Inactive)
REMARK    1  A    between atoms: C_1  and  C_2
REMARK    2  A    between atoms: C_2  and  C_3
REMARK    3  A    between atoms: C_3  and  C_4
REMARK    4  A    between atoms: C_7  and  C_8
REMARK    5  A    between atoms: C_13  and  N_14
REMARK    6  A    between atoms: N_14  and  C_15
REMARK    7  A    between atoms: C_15  and  C_16
REMARK    8  A    between atoms: C_15  and  C_17
REMARK    9  A    between atoms: C_15  and  C_18
REMARK   10  A    between atoms: C_18  and  C_19
REMARK   11  A    between atoms: C_19  and  C_20
REMARK   12  A    between atoms: C_19  and  C_21
REMARK   13  A    between atoms: C_19  and  C_22
REMARK                            x       y       z     vdW  Elec       q    Type
REMARK                         _______ _______ _______ _____ _____    ______ ____
ROOT
ATOM      1  C   UNL     1       2.273   5.728  19.961  0.00  0.00    +0.000 A 
ATOM      2  N   UNL     1       1.699   6.711  20.733  0.00  0.00    +0.000 NA
ATOM      3  C   UNL     1       1.659   7.787  19.971  0.00  0.00    +0.000 A 
ATOM      4  C   UNL     1       1.163   9.111  20.273  0.00  0.00    +0.000 A 
ATOM      5  C   UNL     1       0.554   9.488  21.582  0.00  0.00    +0.000 C 
ATOM      6  C   UNL     1       1.255  10.076  19.313  0.00  0.00    +0.000 A 
ATOM      7  C   UNL     1       1.801   9.829  18.021  0.00  0.00    +0.000 A 
ATOM      8  C   UNL     1       2.280   8.582  17.739  0.00  0.00    +0.000 A 
ATOM      9  N   UNL     1       2.210   7.557  18.707  0.00  0.00    +0.000 N 
ATOM     10  C   UNL     1       2.587   6.179  18.697  0.00  0.00    +0.000 A 
ENDROOT
BRANCH  10  11
ATOM     11  N   UNL     1       3.113   5.435  17.648  0.00  0.00    +0.000 N 
ATOM     12  H   UNL     1       2.477   4.937  17.024  0.00  0.00    +0.000 HD
BRANCH  11  13
ATOM     13  C   UNL     1       4.541   5.248  17.368  0.00  0.00    +0.000 C 
ATOM     14  C   UNL     1       4.702   3.727  17.135  0.00  0.00    +0.000 C 
ATOM     15  C   UNL     1       4.847   6.293  16.263  0.00  0.00    +0.000 C 
BRANCH  13  16
ATOM     16  C   UNL     1       5.489   5.603  18.594  0.00  0.00    +0.000 C 
BRANCH  16  17
ATOM     17  C   UNL     1       7.061   5.720  18.321  0.00  0.00    +0.000 C 
ATOM     18  C   UNL     1       7.618   4.639  17.379  0.00  0.00    +0.000 C 
ATOM     19  C   UNL     1       7.468   7.076  17.720  0.00  0.00    +0.000 C 
ATOM     20  C   UNL     1       7.833   5.609  19.639  0.00  0.00    +0.000 C 
ENDBRANCH  16  17
ENDBRANCH  13  16
ENDBRANCH  11  13
ENDBRANCH  10  11
BRANCH   1  21
ATOM     21  C   UNL     1       2.454   4.353  20.528  0.00  0.00    +0.000 C 
BRANCH  21  23
ATOM     22  C   UNL     1       1.122   2.627  19.271  0.00  0.00    +0.000 C 
ATOM     23  C   UNL     1       1.165   3.535  20.491  0.00  0.00    +0.000 C 
ENDBRANCH  21  23
ENDBRANCH   1  21
TORSDOF 6
ENDMDL
MODEL 2
REMARK VINA RESULT:      -7.3      0.605      1.132
REMARK  Name = 
REMARK  13 active torsions:
REMARK  status: ('A' for Active; 'I' for Inactive)
REMARK    1  A    between atoms: C_1  and  C_2
REMARK    2  A    between atoms: C_2  and  C_3
REMARK    3  A    between atoms: C_3  and  C_4
REMARK    4  A    between atoms: C_7  and  C_8
REMARK    5  A    between atoms: C_13  and  N_14
REMARK    6  A    between atoms: N_14  and  C_15
REMARK    7  A    between atoms: C_15  and  C_16
REMARK    8  A    between atoms: C_15  and  C_17
REMARK    9  A    between atoms: C_15  and  C_18
REMARK   10  A    between atoms: C_18  and  C_19
REMARK   11  A    between atoms: C_19  and  C_20
REMARK   12  A    between atoms: C_19  and  C_21
REMARK   13  A    between atoms: C_19  and  C_22
REMARK                            x       y       z     vdW  Elec       q    Type
REMARK                         _______ _______ _______ _____ _____    ______ ____
ROOT
ATOM      1  C   UNL     1       2.121   5.650  20.292  0.00  0.00    +0.000 A 
ATOM      2  N   UNL     1       1.546   6.746  20.892  0.00  0.00    +0.000 NA
ATOM      3  C   UNL     1       1.611   7.717  20.002  0.00  0.00    +0.000 A 
ATOM      4  C   UNL     1       1.162   9.088  20.101  0.00  0.00    +0.000 A 
ATOM      5  C   UNL     1       0.484   9.652  21.304  0.00  0.00    +0.000 C 
ATOM      6  C   UNL     1       1.368   9.919  19.039  0.00  0.00    +0.000 A 
ATOM      7  C   UNL     1       1.989   9.489  17.831  0.00  0.00    +0.000 A 
ATOM      8  C   UNL     1       2.425   8.198  17.743  0.00  0.00    +0.000 A 
ATOM      9  N   UNL     1       2.236   7.307  18.822  0.00  0.00    +0.000 N 
ATOM     10  C   UNL     1       2.545   5.925  19.009  0.00  0.00    +0.000 A 
ENDROOT
BRANCH  10  11
ATOM     11  N   UNL     1       3.104   5.033  18.103  0.00  0.00    +0.000 N 
ATOM     12  H   UNL     1       2.488   4.454  17.530  0.00  0.00    +0.000 HD
BRANCH  11  13
ATOM     13  C   UNL     1       4.540   4.798  17.914  0.00  0.00    +0.000 C 
ATOM     14  C   UNL     1       4.895   3.685  18.929  0.00  0.00    +0.000 C 
ATOM     15  C   UNL     1       4.691   4.603  16.383  0.00  0.00    +0.000 C 
BRANCH  13  16
ATOM     16  C   UNL     1       5.452   6.043  18.297  0.00  0.00    +0.000 C 
BRANCH  16  17
ATOM     17  C   UNL     1       7.035   5.897  18.130  0.00  0.00    +0.000 C 
ATOM     18  C   UNL     1       7.798   5.760  19.458  0.00  0.00    +0.000 C 
ATOM     19  C   UNL     1       7.440   4.691  17.265  0.00  0.00    +0.000 C 
ATOM     20  C   UNL     1       7.604   7.124  17.410  0.00  0.00    +0.000 C 
ENDBRANCH  16  17
ENDBRANCH  13  16
ENDBRANCH  11  13
ENDBRANCH  10  11
BRANCH   1  21
ATOM     21  C   UNL     1       2.195   4.352  21.037  0.00  0.00    +0.000 C 
BRANCH  21  23
ATOM     22  C   UNL     1       1.569   2.265  19.776  0.00  0.00    +0.000 C 
ATOM     23  C   UNL     1       1.063   3.400  20.656  0.00  0.00    +0.000 C 
ENDBRANCH  21  23
ENDBRANCH   1  21
TORSDOF 6
ENDMDL
MODEL 3
REMARK VINA RESULT:      -6.8      1.269      1.963
REMARK  Name = 
REMARK  13 active torsions:
REMARK  status: ('A' for Active; 'I' for Inactive)
REMARK    1  A    between atoms: C_1  and  C_2
REMARK    2  A    between atoms: C_2  and  C_3
REMARK    3  A    between atoms: C_3  and  C_4
REMARK    4  A    between atoms: C_7  and  C_8
REMARK    5  A    between atoms: C_13  and  N_14
REMARK    6  A    between atoms: N_14  and  C_15
REMARK    7  A    between atoms: C_15  and  C_16
REMARK    8  A    between atoms: C_15  and  C_17
REMARK    9  A    between atoms: C_15  and  C_18
REMARK   10  A    between atoms: C_18  and  C_19
REMARK   11  A    between atoms: C_19  and  C_20
REMARK   12  A    between atoms: C_19  and  C_21
REMARK   13  A    between atoms: C_19  and  C_22
REMARK                            x       y       z     vdW  Elec       q    Type
REMARK                         _______ _______ _______ _____ _____    ______ ____
ROOT
ATOM      1  C   UNL     1       2.567   5.240  20.505  0.00  0.00    +0.000 A 
ATOM      2  N   UNL     1       1.713   6.218  20.960  0.00  0.00    +0.000 NA
ATOM      3  C   UNL     1       1.787   7.196  20.078  0.00  0.00    +0.000 A 
ATOM      4  C   UNL     1       1.107   8.471  20.059  0.00  0.00    +0.000 A 
ATOM      5  C   UNL     1       0.127   8.902  21.098  0.00  0.00    +0.000 C 
ATOM      6  C   UNL     1       1.372   9.336  19.037  0.00  0.00    +0.000 A 
ATOM      7  C   UNL     1       2.276   9.028  17.980  0.00  0.00    +0.000 A 
ATOM      8  C   UNL     1       2.927   7.828  18.005  0.00  0.00    +0.000 A 
ATOM      9  N   UNL     1       2.686   6.908  19.047  0.00  0.00    +0.000 N 
ATOM     10  C   UNL     1       3.177   5.594  19.321  0.00  0.00    +0.000 A 
ENDROOT
BRANCH  10  11
ATOM     11  N   UNL     1       4.039   4.817  18.557  0.00  0.00    +0.000 N 
ATOM     12  H   UNL     1       5.043   4.999  18.603  0.00  0.00    +0.000 HD
BRANCH  11  13
ATOM     13  C   UNL     1       3.635   3.759  17.626  0.00  0.00    +0.000 C 
ATOM     14  C   UNL     1       3.960   2.438  18.363  0.00  0.00    +0.000 C 
ATOM     15  C   UNL     1       2.189   4.148  17.220  0.00  0.00    +0.000 C 
BRANCH  13  16
ATOM     16  C   UNL     1       4.482   3.727  16.281  0.00  0.00    +0.000 C 
BRANCH  16  17
ATOM     17  C   UNL     1       5.746   4.700  16.164  0.00  0.00    +0.000 C 
ATOM     18  C   UNL     1       6.690   4.654  17.377  0.00  0.00    +0.000 C 
ATOM     19  C   UNL     1       6.611   4.418  14.925  0.00  0.00    +0.000 C 
ATOM     20  C   UNL     1       5.279   6.152  16.015  0.00  0.00    +0.000 C 
ENDBRANCH  16  17
ENDBRANCH  13  16
ENDBRANCH  11  13
ENDBRANCH  10  11
BRANCH   1  21
ATOM     21  C   UNL     1       2.709   3.964  21.278  0.00  0.00    +0.000 C 
BRANCH  21  23
ATOM     22  C   UNL     1       0.768   2.929  20.056  0.00  0.00    +0.000 C 
ATOM     23  C   UNL     1       1.384   3.218  21.417  0.00  0.00    +0.000 C 
ENDBRANCH  21  23
ENDBRANCH   1  21
TORSDOF 6
ENDMDL
MODEL 4
REMARK VINA RESULT:      -6.8      1.295      2.054
REMARK  Name = 
REMARK  13 active torsions:
REMARK  status: ('A' for Active; 'I' for Inactive)
REMARK    1  A    between atoms: C_1  and  C_2
REMARK    2  A    between atoms: C_2  and  C_3
REMARK    3  A    between atoms: C_3  and  C_4
REMARK    4  A    between atoms: C_7  and  C_8
REMARK    5  A    between atoms: C_13  and  N_14
REMARK    6  A    between atoms: N_14  and  C_15
REMARK    7  A    between atoms: C_15  and  C_16
REMARK    8  A    between atoms: C_15  and  C_17
REMARK    9  A    between atoms: C_15  and  C_18
REMARK   10  A    between atoms: C_18  and  C_19
REMARK   11  A    between atoms: C_19  and  C_20
REMARK   12  A    between atoms: C_19  and  C_21
REMARK   13  A    between atoms: C_19  and  C_22
REMARK                            x       y       z     vdW  Elec       q    Type
REMARK                         _______ _______ _______ _____ _____    ______ ____
ROOT
ATOM      1  C   UNL     1       2.363   5.791  20.395  0.00  0.00    +0.000 A 
ATOM      2  N   UNL     1       1.504   6.769  20.839  0.00  0.00    +0.000 NA
ATOM      3  C   UNL     1       1.577   7.740  19.949  0.00  0.00    +0.000 A 
ATOM      4  C   UNL     1       0.892   9.013  19.916  0.00  0.00    +0.000 A 
ATOM      5  C   UNL     1      -0.094   9.449  20.948  0.00  0.00    +0.000 C 
ATOM      6  C   UNL     1       1.158   9.871  18.889  0.00  0.00    +0.000 A 
ATOM      7  C   UNL     1       2.067   9.557  17.838  0.00  0.00    +0.000 A 
ATOM      8  C   UNL     1       2.723   8.360  17.875  0.00  0.00    +0.000 A 
ATOM      9  N   UNL     1       2.481   7.447  18.924  0.00  0.00    +0.000 N 
ATOM     10  C   UNL     1       2.976   6.138  19.210  0.00  0.00    +0.000 A 
ENDROOT
BRANCH  10  11
ATOM     11  N   UNL     1       3.845   5.358  18.457  0.00  0.00    +0.000 N 
ATOM     12  H   UNL     1       4.821   5.646  18.367  0.00  0.00    +0.000 HD
BRANCH  11  13
ATOM     13  C   UNL     1       3.477   4.148  17.713  0.00  0.00    +0.000 C 
ATOM     14  C   UNL     1       4.092   2.983  18.525  0.00  0.00    +0.000 C 
ATOM     15  C   UNL     1       1.949   4.292  17.495  0.00  0.00    +0.000 C 
BRANCH  13  16
ATOM     16  C   UNL     1       4.129   4.061  16.265  0.00  0.00    +0.000 C 
BRANCH  16  17
ATOM     17  C   UNL     1       5.426   4.947  15.968  0.00  0.00    +0.000 C 
ATOM     18  C   UNL     1       5.177   6.464  16.024  0.00  0.00    +0.000 C 
ATOM     19  C   UNL     1       6.587   4.658  16.935  0.00  0.00    +0.000 C 
ATOM     20  C   UNL     1       5.970   4.633  14.571  0.00  0.00    +0.000 C 
ENDBRANCH  16  17
ENDBRANCH  13  16
ENDBRANCH  11  13
ENDBRANCH  10  11
BRANCH   1  21
ATOM     21  C   UNL     1       2.508   4.523  21.180  0.00  0.00    +0.000 C 
BRANCH  21  23
ATOM     22  C   UNL     1       1.551   2.272  20.584  0.00  0.00    +0.000 C 
ATOM     23  C   UNL     1       1.248   3.661  21.127  0.00  0.00    +0.000 C 
ENDBRANCH  21  23
ENDBRANCH   1  21
TORSDOF 6
ENDMDL
MODEL 5
REMARK VINA RESULT:      -6.6      0.736      1.286
REMARK  Name = 
REMARK  13 active torsions:
REMARK  status: ('A' for Active; 'I' for Inactive)
REMARK    1  A    between atoms: C_1  and  C_2
REMARK    2  A    between atoms: C_2  and  C_3
REMARK    3  A    between atoms: C_3  and  C_4
REMARK    4  A    between atoms: C_7  and  C_8
REMARK    5  A    between atoms: C_13  and  N_14
REMARK    6  A    between atoms: N_14  and  C_15
REMARK    7  A    between atoms: C_15  and  C_16
REMARK    8  A    between atoms: C_15  and  C_17
REMARK    9  A    between atoms: C_15  and  C_18
REMARK   10  A    between atoms: C_18  and  C_19
REMARK   11  A    between atoms: C_19  and  C_20
REMARK   12  A    between atoms: C_19  and  C_21
REMARK   13  A    between atoms: C_19  and  C_22
REMARK                            x       y       z     vdW  Elec       q    Type
REMARK                         _______ _______ _______ _____ _____    ______ ____
ROOT
ATOM      1  C   UNL     1       2.050   5.730  20.305  0.00  0.00    +0.000 A 
ATOM      2  N   UNL     1       1.494   6.812  20.944  0.00  0.00    +0.000 NA
ATOM      3  C   UNL     1       1.546   7.806  20.078  0.00  0.00    +0.000 A 
ATOM      4  C   UNL     1       1.107   9.176  20.220  0.00  0.00    +0.000 A 
ATOM      5  C   UNL     1       0.457   9.713  21.451  0.00  0.00    +0.000 C 
ATOM      6  C   UNL     1       1.295  10.033  19.175  0.00  0.00    +0.000 A 
ATOM      7  C   UNL     1       1.887   9.629  17.944  0.00  0.00    +0.000 A 
ATOM      8  C   UNL     1       2.314   8.339  17.814  0.00  0.00    +0.000 A 
ATOM      9  N   UNL     1       2.143   7.422  18.874  0.00  0.00    +0.000 N 
ATOM     10  C   UNL     1       2.448   6.034  19.020  0.00  0.00    +0.000 A 
ENDROOT
BRANCH  10  11
ATOM     11  N   UNL     1       2.983   5.162  18.080  0.00  0.00    +0.000 N 
ATOM     12  H   UNL     1       2.352   4.644  17.467  0.00  0.00    +0.000 HD
BRANCH  11  13
ATOM     13  C   UNL     1       4.409   4.868  17.906  0.00  0.00    +0.000 C 
ATOM     14  C   UNL     1       5.066   5.285  19.243  0.00  0.00    +0.000 C 
ATOM     15  C   UNL     1       4.430   3.404  17.392  0.00  0.00    +0.000 C 
BRANCH  13  16
ATOM     16  C   UNL     1       5.115   5.745  16.782  0.00  0.00    +0.000 C 
BRANCH  16  17
ATOM     17  C   UNL     1       6.707   5.664  16.653  0.00  0.00    +0.000 C 
ATOM     18  C   UNL     1       7.206   5.315  15.241  0.00  0.00    +0.000 C 
ATOM     19  C   UNL     1       7.410   6.970  17.057  0.00  0.00    +0.000 C 
ATOM     20  C   UNL     1       7.258   4.594  17.601  0.00  0.00    +0.000 C 
ENDBRANCH  16  17
ENDBRANCH  13  16
ENDBRANCH  11  13
ENDBRANCH  10  11
BRANCH   1  21
ATOM     21  C   UNL     1       2.132   4.413  21.015  0.00  0.00    +0.000 C 
BRANCH  21  23
ATOM     22  C   UNL     1       1.423   2.451  19.606  0.00  0.00    +0.000 C 
ATOM     23  C   UNL     1       0.983   3.478  20.639  0.00  0.00    +0.000 C 
ENDBRANCH  21  23
ENDBRANCH   1  21
TORSDOF 6
ENDMDL
MODEL 6
REMARK VINA RESULT:      -6.5      2.857      7.027
REMARK  Name = 
REMARK  13 active torsions:
REMARK  status: ('A' for Active; 'I' for Inactive)
REMARK    1  A    between atoms: C_1  and  C_2
REMARK    2  A    between atoms: C_2  and  C_3
REMARK    3  A    between atoms: C_3  and  C_4
REMARK    4  A    between atoms: C_7  and  C_8
REMARK    5  A    between atoms: C_13  and  N_14
REMARK    6  A    between atoms: N_14  and  C_15
REMARK    7  A    between atoms: C_15  and  C_16
REMARK    8  A    between atoms: C_15  and  C_17
REMARK    9  A    between atoms: C_15  and  C_18
REMARK   10  A    between atoms: C_18  and  C_19
REMARK   11  A    between atoms: C_19  and  C_20
REMARK   12  A    between atoms: C_19  and  C_21
REMARK   13  A    between atoms: C_19  and  C_22
REMARK                            x       y       z     vdW  Elec       q    Type
REMARK                         _______ _______ _______ _____ _____    ______ ____
ROOT
ATOM      1  C   UNL     1       6.986   4.836  16.733  0.00  0.00    +0.000 A 
ATOM      2  N   UNL     1       7.678   5.353  15.663  0.00  0.00    +0.000 NA
ATOM      3  C   UNL     1       7.124   4.824  14.589  0.00  0.00    +0.000 A 
ATOM      4  C   UNL     1       7.457   5.011  13.195  0.00  0.00    +0.000 A 
ATOM      5  C   UNL     1       8.542   5.917  12.717  0.00  0.00    +0.000 C 
ATOM      6  C   UNL     1       6.744   4.323  12.256  0.00  0.00    +0.000 A 
ATOM      7  C   UNL     1       5.675   3.444  12.592  0.00  0.00    +0.000 A 
ATOM      8  C   UNL     1       5.369   3.258  13.909  0.00  0.00    +0.000 A 
ATOM      9  N   UNL     1       6.086   3.946  14.911  0.00  0.00    +0.000 N 
ATOM     10  C   UNL     1       5.979   3.982  16.336  0.00  0.00    +0.000 A 
ENDROOT
BRANCH  10  11
ATOM     11  N   UNL     1       5.052   3.344  17.150  0.00  0.00    +0.000 N 
ATOM     12  H   UNL     1       5.189   2.359  17.383  0.00  0.00    +0.000 HD
BRANCH  11  13
ATOM     13  C   UNL     1       3.828   3.950  17.686  0.00  0.00    +0.000 C 
ATOM     14  C   UNL     1       3.869   5.419  17.201  0.00  0.00    +0.000 C 
ATOM     15  C   UNL     1       2.705   2.968  17.262  0.00  0.00    +0.000 C 
BRANCH  13  16
ATOM     16  C   UNL     1       3.786   4.018  19.274  0.00  0.00    +0.000 C 
BRANCH  16  17
ATOM     17  C   UNL     1       2.376   4.285  19.979  0.00  0.00    +0.000 C 
ATOM     18  C   UNL     1       1.164   3.801  19.166  0.00  0.00    +0.000 C 
ATOM     19  C   UNL     1       2.263   3.630  21.366  0.00  0.00    +0.000 C 
ATOM     20  C   UNL     1       2.185   5.786  20.220  0.00  0.00    +0.000 C 
ENDBRANCH  16  17
ENDBRANCH  13  16
ENDBRANCH  11  13
ENDBRANCH  10  11
BRANCH   1  21
ATOM     21  C   UNL     1       7.355   5.252  18.124  0.00  0.00    +0.000 C 
BRANCH  21  23
ATOM     22  C   UNL     1       6.845   7.640  17.511  0.00  0.00    +0.000 C 
ATOM     23  C   UNL     1       7.834   6.702  18.189  0.00  0.00    +0.000 C 
ENDBRANCH  21  23
ENDBRANCH   1  21
TORSDOF 6
ENDMDL
MODEL 7
REMARK VINA RESULT:      -6.5      3.140      6.205
REMARK  Name = 
REMARK  13 active torsions:
REMARK  status: ('A' for Active; 'I' for Inactive)
REMARK    1  A    between atoms: C_1  and  C_2
REMARK    2  A    between atoms: C_2  and  C_3
REMARK    3  A    between atoms: C_3  and  C_4
REMARK    4  A    between atoms: C_7  and  C_8
REMARK    5  A    between atoms: C_13  and  N_14
REMARK    6  A    between atoms: N_14  and  C_15
REMARK    7  A    between atoms: C_15  and  C_16
REMARK    8  A    between atoms: C_15  and  C_17
REMARK    9  A    between atoms: C_15  and  C_18
REMARK   10  A    between atoms: C_18  and  C_19
REMARK   11  A    between atoms: C_19  and  C_20
REMARK   12  A    between atoms: C_19  and  C_21
REMARK   13  A    between atoms: C_19  and  C_22
REMARK                            x       y       z     vdW  Elec       q    Type
REMARK                         _______ _______ _______ _____ _____    ______ ____
ROOT
ATOM      1  C   UNL     1       5.611   4.954  15.824  0.00  0.00    +0.000 A 
ATOM      2  N   UNL     1       6.397   6.078  15.928  0.00  0.00    +0.000 NA
ATOM      3  C   UNL     1       6.839   6.093  17.171  0.00  0.00    +0.000 A 
ATOM      4  C   UNL     1       7.699   7.049  17.831  0.00  0.00    +0.000 A 
ATOM      5  C   UNL     1       8.282   8.244  17.153  0.00  0.00    +0.000 C 
ATOM      6  C   UNL     1       7.997   6.857  19.148  0.00  0.00    +0.000 A 
ATOM      7  C   UNL     1       7.514   5.744  19.894  0.00  0.00    +0.000 A 
ATOM      8  C   UNL     1       6.691   4.847  19.274  0.00  0.00    +0.000 A 
ATOM      9  N   UNL     1       6.353   5.014  17.914  0.00  0.00    +0.000 N 
ATOM     10  C   UNL     1       5.563   4.245  17.005  0.00  0.00    +0.000 A 
ENDROOT
BRANCH  10  11
ATOM     11  N   UNL     1       4.921   3.033  17.229  0.00  0.00    +0.000 N 
ATOM     12  H   UNL     1       5.334   2.176  16.860  0.00  0.00    +0.000 HD
BRANCH  11  13
ATOM     13  C   UNL     1       3.640   2.863  17.925  0.00  0.00    +0.000 C 
ATOM     14  C   UNL     1       2.601   3.560  17.015  0.00  0.00    +0.000 C 
ATOM     15  C   UNL     1       3.583   1.346  18.240  0.00  0.00    +0.000 C 
BRANCH  13  16
ATOM     16  C   UNL     1       3.565   3.613  19.325  0.00  0.00    +0.000 C 
BRANCH  16  17
ATOM     17  C   UNL     1       2.203   3.516  20.158  0.00  0.00    +0.000 C 
ATOM     18  C   UNL     1       1.075   2.763  19.434  0.00  0.00    +0.000 C 
ATOM     19  C   UNL     1       2.381   2.831  21.524  0.00  0.00    +0.000 C 
ATOM     20  C   UNL     1       1.676   4.920  20.472  0.00  0.00    +0.000 C 
ENDBRANCH  16  17
ENDBRANCH  13  16
ENDBRANCH  11  13
ENDBRANCH  10  11
BRANCH   1  21
ATOM     21  C   UNL     1       4.958   4.626  14.516  0.00  0.00    +0.000 C 
BRANCH  21  23
ATOM     22  C   UNL     1       5.177   3.457  12.298  0.00  0.00    +0.000 C 
ATOM     23  C   UNL     1       5.896   3.878  13.571  0.00  0.00    +0.000 C 
ENDBRANCH  21  23
ENDBRANCH   1  21
TORSDOF 6
ENDMDL
MODEL 8
REMARK VINA RESULT:      -6.5      2.693      6.913
REMARK  Name = 
REMARK  13 active torsions:
REMARK  status: ('A' for Active; 'I' for Inactive)
REMARK    1  A    between atoms: C_1  and  C_2
REMARK    2  A    between atoms: C_2  and  C_3
REMARK    3  A    between atoms: C_3  and  C_4
REMARK    4  A    between atoms: C_7  and  C_8
REMARK    5  A    between atoms: C_13  and  N_14
REMARK    6  A    between atoms: N_14  and  C_15
REMARK    7  A    between atoms: C_15  and  C_16
REMARK    8  A    between atoms: C_15  and  C_17
REMARK    9  A    between atoms: C_15  and  C_18
REMARK   10  A    between atoms: C_18  and  C_19
REMARK   11  A    between atoms: C_19  and  C_20
REMARK   12  A    between atoms: C_19  and  C_21
REMARK   13  A    between atoms: C_19  and  C_22
REMARK                            x       y       z     vdW  Elec       q    Type
REMARK                         _______ _______ _______ _____ _____    ______ ____
ROOT
ATOM      1  C   UNL     1       7.064   6.108  17.123  0.00  0.00    +0.000 A 
ATOM      2  N   UNL     1       7.651   6.124  15.880  0.00  0.00    +0.000 NA
ATOM      3  C   UNL     1       6.958   5.275  15.145  0.00  0.00    +0.000 A 
ATOM      4  C   UNL     1       7.138   4.894  13.763  0.00  0.00    +0.000 A 
ATOM      5  C   UNL     1       8.198   5.461  12.879  0.00  0.00    +0.000 C 
ATOM      6  C   UNL     1       6.297   3.962  13.228  0.00  0.00    +0.000 A 
ATOM      7  C   UNL     1       5.238   3.364  13.969  0.00  0.00    +0.000 A 
ATOM      8  C   UNL     1       5.075   3.714  15.279  0.00  0.00    +0.000 A 
ATOM      9  N   UNL     1       5.929   4.670  15.871  0.00  0.00    +0.000 N 
ATOM     10  C   UNL     1       5.985   5.251  17.176  0.00  0.00    +0.000 A 
ENDROOT
BRANCH  10  11
ATOM     11  N   UNL     1       5.130   5.044  18.252  0.00  0.00    +0.000 N 
ATOM     12  H   UNL     1       5.444   4.463  19.031  0.00  0.00    +0.000 HD
BRANCH  11  13
ATOM     13  C   UNL     1       3.760   5.555  18.362  0.00  0.00    +0.000 C 
ATOM     14  C   UNL     1       3.511   5.696  19.882  0.00  0.00    +0.000 C 
ATOM     15  C   UNL     1       3.734   6.771  17.400  0.00  0.00    +0.000 C 
BRANCH  13  16
ATOM     16  C   UNL     1       2.652   4.544  17.832  0.00  0.00    +0.000 C 
BRANCH  16  17
ATOM     17  C   UNL     1       2.482   3.148  18.593  0.00  0.00    +0.000 C 
ATOM     18  C   UNL     1       3.016   3.148  20.035  0.00  0.00    +0.000 C 
ATOM     19  C   UNL     1       1.020   2.677  18.667  0.00  0.00    +0.000 C 
ATOM     20  C   UNL     1       3.229   2.043  17.839  0.00  0.00    +0.000 C 
ENDBRANCH  16  17
ENDBRANCH  13  16
ENDBRANCH  11  13
ENDBRANCH  10  11
BRANCH   1  21
ATOM     21  C   UNL     1       7.605   6.988  18.209  0.00  0.00    +0.000 C 
BRANCH  21  23
ATOM     22  C   UNL     1       8.729   9.187  18.691  0.00  0.00    +0.000 C 
ATOM     23  C   UNL     1       7.822   8.424  17.737  0.00  0.00    +0.000 C 
ENDBRANCH  21  23
ENDBRANCH   1  21
TORSDOF 6
ENDMDL
MODEL 9
REMARK VINA RESULT:      -6.5      1.042      2.119
REMARK  Name = 
REMARK  13 active torsions:
REMARK  status: ('A' for Active; 'I' for Inactive)
REMARK    1  A    between atoms: C_1  and  C_2
REMARK    2  A    between atoms: C_2  and  C_3
REMARK    3  A    between atoms: C_3  and  C_4
REMARK    4  A    between atoms: C_7  and  C_8
REMARK    5  A    between atoms: C_13  and  N_14
REMARK    6  A    between atoms: N_14  and  C_15
REMARK    7  A    between atoms: C_15  and  C_16
REMARK    8  A    between atoms: C_15  and  C_17
REMARK    9  A    between atoms: C_15  and  C_18
REMARK   10  A    between atoms: C_18  and  C_19
REMARK   11  A    between atoms: C_19  and  C_20
REMARK   12  A    between atoms: C_19  and  C_21
REMARK   13  A    between atoms: C_19  and  C_22
REMARK                            x       y       z     vdW  Elec       q    Type
REMARK                         _______ _______ _______ _____ _____    ______ ____
ROOT
ATOM      1  C   UNL     1       2.261   5.441  20.257  0.00  0.00    +0.000 A 
ATOM      2  N   UNL     1       1.667   6.517  20.874  0.00  0.00    +0.000 NA
ATOM      3  C   UNL     1       1.716   7.503  19.999  0.00  0.00    +0.000 A 
ATOM      4  C   UNL     1       1.245   8.864  20.119  0.00  0.00    +0.000 A 
ATOM      5  C   UNL     1       0.557   9.399  21.330  0.00  0.00    +0.000 C 
ATOM      6  C   UNL     1       1.438   9.716  19.070  0.00  0.00    +0.000 A 
ATOM      7  C   UNL     1       2.066   9.314  17.856  0.00  0.00    +0.000 A 
ATOM      8  C   UNL     1       2.523   8.032  17.748  0.00  0.00    +0.000 A 
ATOM      9  N   UNL     1       2.349   7.122  18.813  0.00  0.00    +0.000 N 
ATOM     10  C   UNL     1       2.680   5.742  18.979  0.00  0.00    +0.000 A 
ENDROOT
BRANCH  10  11
ATOM     11  N   UNL     1       3.254   4.874  18.059  0.00  0.00    +0.000 N 
ATOM     12  H   UNL     1       2.688   4.524  17.285  0.00  0.00    +0.000 HD
BRANCH  11  13
ATOM     13  C   UNL     1       4.625   4.355  18.117  0.00  0.00    +0.000 C 
ATOM     14  C   UNL     1       5.495   5.578  18.495  0.00  0.00    +0.000 C 
ATOM     15  C   UNL     1       4.515   3.103  19.027  0.00  0.00    +0.000 C 
BRANCH  13  16
ATOM     16  C   UNL     1       5.179   3.842  16.718  0.00  0.00    +0.000 C 
BRANCH  16  17
ATOM     17  C   UNL     1       5.749   4.928  15.691  0.00  0.00    +0.000 C 
ATOM     18  C   UNL     1       5.078   6.307  15.797  0.00  0.00    +0.000 C 
ATOM     19  C   UNL     1       7.261   5.163  15.841  0.00  0.00    +0.000 C 
ATOM     20  C   UNL     1       5.552   4.443  14.250  0.00  0.00    +0.000 C 
ENDBRANCH  16  17
ENDBRANCH  13  16
ENDBRANCH  11  13
ENDBRANCH  10  11
BRANCH   1  21
ATOM     21  C   UNL     1       2.355   4.133  20.982  0.00  0.00    +0.000 C 
BRANCH  21  23
ATOM     22  C   UNL     1       0.862   2.714  19.535  0.00  0.00    +0.000 C 
ATOM     23  C   UNL     1       1.055   3.335  20.911  0.00  0.00    +0.000 C 
ENDBRANCH  21  23
ENDBRANCH   1  21
TORSDOF 6
ENDMDL
