MODEL 1
REMARK VINA RESULT:      -8.1      0.000      0.000
REMARK  Name = 
REMARK  6 active torsions:
REMARK  status: ('A' for Active; 'I' for Inactive)
REMARK    1  A    between atoms: C_1  and  C_2
REMARK    2  A    between atoms: C_2  and  C_4
REMARK    3  A    between atoms: C_7  and  N_8
REMARK    4  A    between atoms: N_11  and  N_12
REMARK    5  A    between atoms: N_12  and  S_13
REMARK    6  A    between atoms: S_13  and  C_16
REMARK                            x       y       z     vdW  Elec       q    Type
REMARK                         _______ _______ _______ _____ _____    ______ ____
ROOT
ATOM      1  N   UNL     1       9.237   9.209  19.213  0.00  0.00    +0.000 N 
ATOM      2  C   UNL     1       8.293   8.741  18.320  0.00  0.00    +0.000 C 
ATOM      3  O   UNL     1       7.619   9.417  17.548  0.00  0.00    +0.000 OA
ATOM      4  N   UNL     1       8.168   7.364  18.333  0.00  0.00    +0.000 N 
ATOM      5  H   UNL     1       9.884   8.530  19.585  0.00  0.00    +0.000 HD
ATOM      6  H   UNL     1       8.621   6.753  19.003  0.00  0.00    +0.000 HD
ENDROOT
BRANCH   1  10
ATOM      7  C   UNL     1      10.113  13.297  19.890  0.00  0.00    +0.000 A 
ATOM      8  C   UNL     1       9.542  12.530  20.908  0.00  0.00    +0.000 A 
ATOM      9  C   UNL     1       9.252  11.180  20.696  0.00  0.00    +0.000 A 
ATOM     10  C   UNL     1       9.523  10.568  19.470  0.00  0.00    +0.000 A 
ATOM     11  C   UNL     1      10.119  11.329  18.457  0.00  0.00    +0.000 A 
ATOM     12  C   UNL     1      10.403  12.688  18.664  0.00  0.00    +0.000 A 
BRANCH   7  14
ATOM     13  C   UNL     1      10.593  15.267  21.491  0.00  0.00    +0.000 C 
ATOM     14  C   UNL     1      10.426  14.744  20.086  0.00  0.00    +0.000 C 
ATOM     15  O   UNL     1      10.550  15.480  19.108  0.00  0.00    +0.000 OA
ENDBRANCH   7  14
ENDBRANCH   1  10
BRANCH   4  16
ATOM     16  N   UNL     1       7.237   6.781  17.387  0.00  0.00    +0.000 NA
ATOM     17  H   UNL     1       6.726   7.415  16.761  0.00  0.00    +0.000 HD
BRANCH  16  18
ATOM     18  S   UNL     1       7.070   5.116  17.265  0.00  0.00    +0.000 S 
ATOM     19  O   UNL     1       7.472   4.733  15.929  0.00  0.00    +0.000 OA
ATOM     20  O   UNL     1       7.687   4.520  18.431  0.00  0.00    +0.000 OA
BRANCH  18  21
ATOM     21  C   UNL     1       5.309   4.934  17.404  0.00  0.00    +0.000 A 
ATOM     22  C   UNL     1       4.537   5.999  17.884  0.00  0.00    +0.000 A 
ATOM     23  C   UNL     1       3.158   5.836  18.025  0.00  0.00    +0.000 A 
ATOM     24  C   UNL     1       2.568   4.624  17.676  0.00  0.00    +0.000 A 
ATOM     25  F   UNL     1       1.248   4.466  17.831  0.00  0.00    +0.000 F 
ATOM     26  C   UNL     1       3.328   3.572  17.172  0.00  0.00    +0.000 A 
ATOM     27  C   UNL     1       4.709   3.727  17.027  0.00  0.00    +0.000 A 
ENDBRANCH  18  21
ENDBRANCH  16  18
ENDBRANCH   4  16
TORSDOF 5
ENDMDL
MODEL 2
REMARK VINA RESULT:      -8.1      0.493      1.127
REMARK  Name = 
REMARK  6 active torsions:
REMARK  status: ('A' for Active; 'I' for Inactive)
REMARK    1  A    between atoms: C_1  and  C_2
REMARK    2  A    between atoms: C_2  and  C_4
REMARK    3  A    between atoms: C_7  and  N_8
REMARK    4  A    between atoms: N_11  and  N_12
REMARK    5  A    between atoms: N_12  and  S_13
REMARK    6  A    between atoms: S_13  and  C_16
REMARK                            x       y       z     vdW  Elec       q    Type
REMARK                         _______ _______ _______ _____ _____    ______ ____
ROOT
ATOM      1  N   UNL     1       9.102   9.129  19.154  0.00  0.00    +0.000 N 
ATOM      2  C   UNL     1       8.244   8.633  18.191  0.00  0.00    +0.000 C 
ATOM      3  O   UNL     1       7.719   9.270  17.282  0.00  0.00    +0.000 OA
ATOM      4  N   UNL     1       8.022   7.274  18.310  0.00  0.00    +0.000 N 
ATOM      5  H   UNL     1       9.649   8.453  19.665  0.00  0.00    +0.000 HD
ATOM      6  H   UNL     1       8.346   6.704  19.084  0.00  0.00    +0.000 HD
ENDROOT
BRANCH   1  10
ATOM      7  C   UNL     1      10.143  13.190  19.758  0.00  0.00    +0.000 A 
ATOM      8  C   UNL     1      10.145  12.656  18.467  0.00  0.00    +0.000 A 
ATOM      9  C   UNL     1       9.800  11.318  18.257  0.00  0.00    +0.000 A 
ATOM     10  C   UNL     1       9.448  10.488  19.324  0.00  0.00    +0.000 A 
ATOM     11  C   UNL     1       9.421  11.030  20.615  0.00  0.00    +0.000 A 
ATOM     12  C   UNL     1       9.776  12.370  20.830  0.00  0.00    +0.000 A 
BRANCH   7  14
ATOM     13  C   UNL     1      11.956  15.028  19.846  0.00  0.00    +0.000 C 
ATOM     14  C   UNL     1      10.516  14.614  20.012  0.00  0.00    +0.000 C 
ATOM     15  O   UNL     1       9.649  15.422  20.343  0.00  0.00    +0.000 OA
ENDBRANCH   7  14
ENDBRANCH   1  10
BRANCH   4  16
ATOM     16  N   UNL     1       7.176   6.657  17.307  0.00  0.00    +0.000 NA
ATOM     17  H   UNL     1       6.731   7.268  16.611  0.00  0.00    +0.000 HD
BRANCH  16  18
ATOM     18  S   UNL     1       7.005   4.990  17.239  0.00  0.00    +0.000 S 
ATOM     19  O   UNL     1       7.399   4.563  15.914  0.00  0.00    +0.000 OA
ATOM     20  O   UNL     1       7.625   4.429  18.420  0.00  0.00    +0.000 OA
BRANCH  18  21
ATOM     21  C   UNL     1       5.244   4.817  17.391  0.00  0.00    +0.000 A 
ATOM     22  C   UNL     1       4.479   5.892  17.859  0.00  0.00    +0.000 A 
ATOM     23  C   UNL     1       3.100   5.737  18.010  0.00  0.00    +0.000 A 
ATOM     24  C   UNL     1       2.504   4.522  17.686  0.00  0.00    +0.000 A 
ATOM     25  F   UNL     1       1.183   4.371  17.851  0.00  0.00    +0.000 F 
ATOM     26  C   UNL     1       3.257   3.459  17.194  0.00  0.00    +0.000 A 
ATOM     27  C   UNL     1       4.637   3.605  17.039  0.00  0.00    +0.000 A 
ENDBRANCH  18  21
ENDBRANCH  16  18
ENDBRANCH   4  16
TORSDOF 5
ENDMDL
MODEL 3
REMARK VINA RESULT:      -8.1      0.526      1.205
REMARK  Name = 
REMARK  6 active torsions:
REMARK  status: ('A' for Active; 'I' for Inactive)
REMARK    1  A    between atoms: C_1  and  C_2
REMARK    2  A    between atoms: C_2  and  C_4
REMARK    3  A    between atoms: C_7  and  N_8
REMARK    4  A    between atoms: N_11  and  N_12
REMARK    5  A    between atoms: N_12  and  S_13
REMARK    6  A    between atoms: S_13  and  C_16
REMARK                            x       y       z     vdW  Elec       q    Type
REMARK                         _______ _______ _______ _____ _____    ______ ____
ROOT
ATOM      1  N   UNL     1       9.273   9.236  19.208  0.00  0.00    +0.000 N 
ATOM      2  C   UNL     1       8.315   8.757  18.336  0.00  0.00    +0.000 C 
ATOM      3  O   UNL     1       7.625   9.425  17.570  0.00  0.00    +0.000 OA
ATOM      4  N   UNL     1       8.195   7.380  18.363  0.00  0.00    +0.000 N 
ATOM      5  H   UNL     1       9.929   8.562  19.575  0.00  0.00    +0.000 HD
ATOM      6  H   UNL     1       8.662   6.776  19.030  0.00  0.00    +0.000 HD
ENDROOT
BRANCH   1  10
ATOM      7  C   UNL     1      10.148  13.333  19.835  0.00  0.00    +0.000 A 
ATOM      8  C   UNL     1       9.577  12.579  20.862  0.00  0.00    +0.000 A 
ATOM      9  C   UNL     1       9.286  11.226  20.666  0.00  0.00    +0.000 A 
ATOM     10  C   UNL     1       9.558  10.599  19.448  0.00  0.00    +0.000 A 
ATOM     11  C   UNL     1      10.155  11.347  18.427  0.00  0.00    +0.000 A 
ATOM     12  C   UNL     1      10.438  12.708  18.617  0.00  0.00    +0.000 A 
BRANCH   7  14
ATOM     13  C   UNL     1      10.056  15.751  18.929  0.00  0.00    +0.000 C 
ATOM     14  C   UNL     1      10.460  14.782  20.013  0.00  0.00    +0.000 C 
ATOM     15  O   UNL     1      11.028  15.164  21.035  0.00  0.00    +0.000 OA
ENDBRANCH   7  14
ENDBRANCH   1  10
BRANCH   4  16
ATOM     16  N   UNL     1       7.250   6.786  17.439  0.00  0.00    +0.000 NA
ATOM     17  H   UNL     1       6.716   7.414  16.825  0.00  0.00    +0.000 HD
BRANCH  16  18
ATOM     18  S   UNL     1       7.102   5.119  17.319  0.00  0.00    +0.000 S 
ATOM     19  O   UNL     1       7.492   4.740  15.978  0.00  0.00    +0.000 OA
ATOM     20  O   UNL     1       7.741   4.531  18.476  0.00  0.00    +0.000 OA
BRANCH  18  21
ATOM     21  C   UNL     1       5.345   4.915  17.480  0.00  0.00    +0.000 A 
ATOM     22  C   UNL     1       4.745   3.718  17.072  0.00  0.00    +0.000 A 
ATOM     23  C   UNL     1       3.359   3.579  17.168  0.00  0.00    +0.000 A 
ATOM     24  C   UNL     1       2.596   4.626  17.677  0.00  0.00    +0.000 A 
ATOM     25  F   UNL     1       1.265   4.496  17.749  0.00  0.00    +0.000 F 
ATOM     26  C   UNL     1       3.191   5.807  18.109  0.00  0.00    +0.000 A 
ATOM     27  C   UNL     1       4.577   5.955  18.018  0.00  0.00    +0.000 A 
ENDBRANCH  18  21
ENDBRANCH  16  18
ENDBRANCH   4  16
TORSDOF 5
ENDMDL
MODEL 4
REMARK VINA RESULT:      -7.9      1.169      1.904
REMARK  Name = 
REMARK  6 active torsions:
REMARK  status: ('A' for Active; 'I' for Inactive)
REMARK    1  A    between atoms: C_1  and  C_2
REMARK    2  A    between atoms: C_2  and  C_4
REMARK    3  A    between atoms: C_7  and  N_8
REMARK    4  A    between atoms: N_11  and  N_12
REMARK    5  A    between atoms: N_12  and  S_13
REMARK    6  A    between atoms: S_13  and  C_16
REMARK                            x       y       z     vdW  Elec       q    Type
REMARK                         _______ _______ _______ _____ _____    ______ ____
ROOT
ATOM      1  N   UNL     1       9.463   9.802  19.215  0.00  0.00    +0.000 N 
ATOM      2  C   UNL     1       8.584   9.034  18.476  0.00  0.00    +0.000 C 
ATOM      3  O   UNL     1       7.945   9.398  17.492  0.00  0.00    +0.000 OA
ATOM      4  N   UNL     1       8.484   7.733  18.931  0.00  0.00    +0.000 N 
ATOM      5  H   UNL     1      10.100   9.306  19.820  0.00  0.00    +0.000 HD
ATOM      6  H   UNL     1       8.908   7.390  19.786  0.00  0.00    +0.000 HD
ENDROOT
BRANCH   1  10
ATOM      7  C   UNL     1      10.174  13.952  18.746  0.00  0.00    +0.000 A 
ATOM      8  C   UNL     1      10.509  13.068  17.718  0.00  0.00    +0.000 A 
ATOM      9  C   UNL     1      10.276  11.698  17.862  0.00  0.00    +0.000 A 
ATOM     10  C   UNL     1       9.707  11.181  19.028  0.00  0.00    +0.000 A 
ATOM     11  C   UNL     1       9.346  12.069  20.048  0.00  0.00    +0.000 A 
ATOM     12  C   UNL     1       9.588  13.444  19.911  0.00  0.00    +0.000 A 
BRANCH   7  14
ATOM     13  C   UNL     1      11.079  15.943  17.372  0.00  0.00    +0.000 C 
ATOM     14  C   UNL     1      10.419  15.420  18.623  0.00  0.00    +0.000 C 
ATOM     15  O   UNL     1      10.076  16.175  19.532  0.00  0.00    +0.000 OA
ENDBRANCH   7  14
ENDBRANCH   1  10
BRANCH   4  16
ATOM     16  N   UNL     1       7.624   6.840  18.181  0.00  0.00    +0.000 NA
ATOM     17  H   UNL     1       7.252   7.171  17.282  0.00  0.00    +0.000 HD
BRANCH  16  18
ATOM     18  S   UNL     1       7.321   5.282  18.728  0.00  0.00    +0.000 S 
ATOM     19  O   UNL     1       8.031   4.368  17.860  0.00  0.00    +0.000 OA
ATOM     20  O   UNL     1       7.527   5.265  20.160  0.00  0.00    +0.000 OA
BRANCH  18  21
ATOM     21  C   UNL     1       5.581   5.136  18.407  0.00  0.00    +0.000 A 
ATOM     22  C   UNL     1       4.909   3.956  18.747  0.00  0.00    +0.000 A 
ATOM     23  C   UNL     1       3.549   3.834  18.458  0.00  0.00    +0.000 A 
ATOM     24  C   UNL     1       2.877   4.889  17.847  0.00  0.00    +0.000 A 
ATOM     25  F   UNL     1       1.577   4.761  17.555  0.00  0.00    +0.000 F 
ATOM     26  C   UNL     1       3.535   6.075  17.533  0.00  0.00    +0.000 A 
ATOM     27  C   UNL     1       4.895   6.206  17.819  0.00  0.00    +0.000 A 
ENDBRANCH  18  21
ENDBRANCH  16  18
ENDBRANCH   4  16
TORSDOF 5
ENDMDL
MODEL 5
REMARK VINA RESULT:      -7.9      0.737      1.526
REMARK  Name = 
REMARK  6 active torsions:
REMARK  status: ('A' for Active; 'I' for Inactive)
REMARK    1  A    between atoms: C_1  and  C_2
REMARK    2  A    between atoms: C_2  and  C_4
REMARK    3  A    between atoms: C_7  and  N_8
REMARK    4  A    between atoms: N_11  and  N_12
REMARK    5  A    between atoms: N_12  and  S_13
REMARK    6  A    between atoms: S_13  and  C_16
REMARK                            x       y       z     vdW  Elec       q    Type
REMARK                         _______ _______ _______ _____ _____    ______ ____
ROOT
ATOM      1  N   UNL     1       9.293   9.303  19.279  0.00  0.00    +0.000 N 
ATOM      2  C   UNL     1       8.358   8.760  18.420  0.00  0.00    +0.000 C 
ATOM      3  O   UNL     1       7.707   9.364  17.571  0.00  0.00    +0.000 OA
ATOM      4  N   UNL     1       8.213   7.393  18.568  0.00  0.00    +0.000 N 
ATOM      5  H   UNL     1       9.924   8.657  19.729  0.00  0.00    +0.000 HD
ATOM      6  H   UNL     1       8.646   6.846  19.304  0.00  0.00    +0.000 HD
ENDROOT
BRANCH   1  10
ATOM      7  C   UNL     1      10.186  13.417  19.746  0.00  0.00    +0.000 A 
ATOM      8  C   UNL     1      10.349  12.807  18.501  0.00  0.00    +0.000 A 
ATOM      9  C   UNL     1      10.055  11.451  18.336  0.00  0.00    +0.000 A 
ATOM     10  C   UNL     1       9.594  10.678  19.403  0.00  0.00    +0.000 A 
ATOM     11  C   UNL     1       9.404  11.295  20.646  0.00  0.00    +0.000 A 
ATOM     12  C   UNL     1       9.709  12.653  20.817  0.00  0.00    +0.000 A 
BRANCH   7  14
ATOM     13  C   UNL     1       9.390  15.873  19.825  0.00  0.00    +0.000 C 
ATOM     14  C   UNL     1      10.501  14.862  19.954  0.00  0.00    +0.000 C 
ATOM     15  O   UNL     1      11.650  15.203  20.233  0.00  0.00    +0.000 OA
ENDBRANCH   7  14
ENDBRANCH   1  10
BRANCH   4  16
ATOM     16  N   UNL     1       7.291   6.730  17.668  0.00  0.00    +0.000 NA
ATOM     17  H   UNL     1       6.704   7.315  17.061  0.00  0.00    +0.000 HD
BRANCH  16  18
ATOM     18  S   UNL     1       7.250   5.055  17.564  0.00  0.00    +0.000 S 
ATOM     19  O   UNL     1       7.529   4.696  16.190  0.00  0.00    +0.000 OA
ATOM     20  O   UNL     1       8.043   4.522  18.651  0.00  0.00    +0.000 OA
BRANCH  18  21
ATOM     21  C   UNL     1       5.538   4.729  17.902  0.00  0.00    +0.000 A 
ATOM     22  C   UNL     1       4.770   4.018  16.972  0.00  0.00    +0.000 A 
ATOM     23  C   UNL     1       3.416   3.797  17.227  0.00  0.00    +0.000 A 
ATOM     24  C   UNL     1       2.850   4.276  18.406  0.00  0.00    +0.000 A 
ATOM     25  F   UNL     1       1.546   4.078  18.638  0.00  0.00    +0.000 F 
ATOM     26  C   UNL     1       3.616   4.959  19.346  0.00  0.00    +0.000 A 
ATOM     27  C   UNL     1       4.972   5.184  19.099  0.00  0.00    +0.000 A 
ENDBRANCH  18  21
ENDBRANCH  16  18
ENDBRANCH   4  16
TORSDOF 5
ENDMDL
MODEL 6
REMARK VINA RESULT:      -7.9      1.282      1.478
REMARK  Name = 
REMARK  6 active torsions:
REMARK  status: ('A' for Active; 'I' for Inactive)
REMARK    1  A    between atoms: C_1  and  C_2
REMARK    2  A    between atoms: C_2  and  C_4
REMARK    3  A    between atoms: C_7  and  N_8
REMARK    4  A    between atoms: N_11  and  N_12
REMARK    5  A    between atoms: N_12  and  S_13
REMARK    6  A    between atoms: S_13  and  C_16
REMARK                            x       y       z     vdW  Elec       q    Type
REMARK                         _______ _______ _______ _____ _____    ______ ____
ROOT
ATOM      1  N   UNL     1       9.492   9.945  19.254  0.00  0.00    +0.000 N 
ATOM      2  C   UNL     1       8.610   9.151  18.549  0.00  0.00    +0.000 C 
ATOM      3  O   UNL     1       7.885   9.507  17.623  0.00  0.00    +0.000 OA
ATOM      4  N   UNL     1       8.617   7.832  18.961  0.00  0.00    +0.000 N 
ATOM      5  H   UNL     1      10.197   9.468  19.797  0.00  0.00    +0.000 HD
ATOM      6  H   UNL     1       9.118   7.486  19.773  0.00  0.00    +0.000 HD
ENDROOT
BRANCH   1  10
ATOM      7  C   UNL     1       9.978  14.118  18.710  0.00  0.00    +0.000 A 
ATOM      8  C   UNL     1       9.299  13.637  19.832  0.00  0.00    +0.000 A 
ATOM      9  C   UNL     1       9.136  12.262  20.022  0.00  0.00    +0.000 A 
ATOM     10  C   UNL     1       9.643  11.342  19.102  0.00  0.00    +0.000 A 
ATOM     11  C   UNL     1      10.346  11.822  17.990  0.00  0.00    +0.000 A 
ATOM     12  C   UNL     1      10.503  13.202  17.792  0.00  0.00    +0.000 A 
BRANCH   7  14
ATOM     13  C   UNL     1       8.995  16.507  18.731  0.00  0.00    +0.000 C 
ATOM     14  C   UNL     1      10.159  15.582  18.477  0.00  0.00    +0.000 C 
ATOM     15  O   UNL     1      11.247  16.009  18.093  0.00  0.00    +0.000 OA
ENDBRANCH   7  14
ENDBRANCH   1  10
BRANCH   4  16
ATOM     16  N   UNL     1       7.760   6.913  18.238  0.00  0.00    +0.000 NA
ATOM     17  H   UNL     1       7.427   7.196  17.308  0.00  0.00    +0.000 HD
BRANCH  16  18
ATOM     18  S   UNL     1       7.398   5.402  18.870  0.00  0.00    +0.000 S 
ATOM     19  O   UNL     1       8.086   4.415  18.066  0.00  0.00    +0.000 OA
ATOM     20  O   UNL     1       7.587   5.461  20.303  0.00  0.00    +0.000 OA
BRANCH  18  21
ATOM     21  C   UNL     1       5.657   5.295  18.535  0.00  0.00    +0.000 A 
ATOM     22  C   UNL     1       5.059   6.218  17.668  0.00  0.00    +0.000 A 
ATOM     23  C   UNL     1       3.684   6.150  17.438  0.00  0.00    +0.000 A 
ATOM     24  C   UNL     1       2.929   5.162  18.063  0.00  0.00    +0.000 A 
ATOM     25  F   UNL     1       1.607   5.113  17.855  0.00  0.00    +0.000 F 
ATOM     26  C   UNL     1       3.524   4.225  18.904  0.00  0.00    +0.000 A 
ATOM     27  C   UNL     1       4.899   4.285  19.139  0.00  0.00    +0.000 A 
ENDBRANCH  18  21
ENDBRANCH  16  18
ENDBRANCH   4  16
TORSDOF 5
ENDMDL
MODEL 7
REMARK VINA RESULT:      -7.7      0.783      1.104
REMARK  Name = 
REMARK  6 active torsions:
REMARK  status: ('A' for Active; 'I' for Inactive)
REMARK    1  A    between atoms: C_1  and  C_2
REMARK    2  A    between atoms: C_2  and  C_4
REMARK    3  A    between atoms: C_7  and  N_8
REMARK    4  A    between atoms: N_11  and  N_12
REMARK    5  A    between atoms: N_12  and  S_13
REMARK    6  A    between atoms: S_13  and  C_16
REMARK                            x       y       z     vdW  Elec       q    Type
REMARK                         _______ _______ _______ _____ _____    ______ ____
ROOT
ATOM      1  N   UNL     1       9.061   9.051  19.228  0.00  0.00    +0.000 N 
ATOM      2  C   UNL     1       8.293   8.547  18.197  0.00  0.00    +0.000 C 
ATOM      3  O   UNL     1       7.881   9.170  17.221  0.00  0.00    +0.000 OA
ATOM      4  N   UNL     1       8.023   7.198  18.328  0.00  0.00    +0.000 N 
ATOM      5  H   UNL     1       9.535   8.377  19.811  0.00  0.00    +0.000 HD
ATOM      6  H   UNL     1       8.250   6.644  19.147  0.00  0.00    +0.000 HD
ENDROOT
BRANCH   1  10
ATOM      7  C   UNL     1      10.153  13.123  19.637  0.00  0.00    +0.000 A 
ATOM      8  C   UNL     1       9.799  12.381  20.766  0.00  0.00    +0.000 A 
ATOM      9  C   UNL     1       9.439  11.036  20.642  0.00  0.00    +0.000 A 
ATOM     10  C   UNL     1       9.425  10.405  19.396  0.00  0.00    +0.000 A 
ATOM     11  C   UNL     1       9.806  11.141  18.267  0.00  0.00    +0.000 A 
ATOM     12  C   UNL     1      10.157  12.494  18.387  0.00  0.00    +0.000 A 
BRANCH   7  14
ATOM     13  C   UNL     1      10.431  15.249  21.078  0.00  0.00    +0.000 C 
ATOM     14  C   UNL     1      10.532  14.564  19.738  0.00  0.00    +0.000 C 
ATOM     15  O   UNL     1      10.927  15.164  18.739  0.00  0.00    +0.000 OA
ENDBRANCH   7  14
ENDBRANCH   1  10
BRANCH   4  16
ATOM     16  N   UNL     1       7.267   6.573  17.262  0.00  0.00    +0.000 NA
ATOM     17  H   UNL     1       6.965   7.162  16.476  0.00  0.00    +0.000 HD
BRANCH  16  18
ATOM     18  S   UNL     1       6.974   4.921  17.273  0.00  0.00    +0.000 S 
ATOM     19  O   UNL     1       6.935   4.474  15.898  0.00  0.00    +0.000 OA
ATOM     20  O   UNL     1       7.875   4.315  18.230  0.00  0.00    +0.000 OA
BRANCH  18  21
ATOM     21  C   UNL     1       5.327   4.866  17.936  0.00  0.00    +0.000 A 
ATOM     22  C   UNL     1       4.968   3.840  18.818  0.00  0.00    +0.000 A 
ATOM     23  C   UNL     1       3.661   3.783  19.306  0.00  0.00    +0.000 A 
ATOM     24  C   UNL     1       2.738   4.751  18.920  0.00  0.00    +0.000 A 
ATOM     25  F   UNL     1       1.481   4.682  19.376  0.00  0.00    +0.000 F 
ATOM     26  C   UNL     1       3.100   5.790  18.066  0.00  0.00    +0.000 A 
ATOM     27  C   UNL     1       4.405   5.855  17.573  0.00  0.00    +0.000 A 
ENDBRANCH  18  21
ENDBRANCH  16  18
ENDBRANCH   4  16
TORSDOF 5
ENDMDL
MODEL 8
REMARK VINA RESULT:      -7.6      6.401      7.522
REMARK  Name = 
REMARK  6 active torsions:
REMARK  status: ('A' for Active; 'I' for Inactive)
REMARK    1  A    between atoms: C_1  and  C_2
REMARK    2  A    between atoms: C_2  and  C_4
REMARK    3  A    between atoms: C_7  and  N_8
REMARK    4  A    between atoms: N_11  and  N_12
REMARK    5  A    between atoms: N_12  and  S_13
REMARK    6  A    between atoms: S_13  and  C_16
REMARK                            x       y       z     vdW  Elec       q    Type
REMARK                         _______ _______ _______ _____ _____    ______ ____
ROOT
ATOM      1  N   UNL     1       2.434   6.868  20.517  0.00  0.00    +0.000 N 
ATOM      2  C   UNL     1       2.204   5.555  20.156  0.00  0.00    +0.000 C 
ATOM      3  O   UNL     1       1.386   5.157  19.331  0.00  0.00    +0.000 OA
ATOM      4  N   UNL     1       3.031   4.659  20.807  0.00  0.00    +0.000 N 
ATOM      5  H   UNL     1       3.299   7.060  21.001  0.00  0.00    +0.000 HD
ATOM      6  H   UNL     1       3.662   4.905  21.562  0.00  0.00    +0.000 HD
ENDROOT
BRANCH   1  10
ATOM      7  C   UNL     1       0.243  10.202  19.093  0.00  0.00    +0.000 A 
ATOM      8  C   UNL     1       0.031   9.733  20.391  0.00  0.00    +0.000 A 
ATOM      9  C   UNL     1       0.750   8.635  20.871  0.00  0.00    +0.000 A 
ATOM     10  C   UNL     1       1.692   7.985  20.071  0.00  0.00    +0.000 A 
ATOM     11  C   UNL     1       1.925   8.471  18.779  0.00  0.00    +0.000 A 
ATOM     12  C   UNL     1       1.197   9.566  18.291  0.00  0.00    +0.000 A 
BRANCH   7  14
ATOM     13  C   UNL     1      -1.904  11.137  18.002  0.00  0.00    +0.000 C 
ATOM     14  C   UNL     1      -0.518  11.367  18.551  0.00  0.00    +0.000 C 
ATOM     15  O   UNL     1      -0.012  12.489  18.568  0.00  0.00    +0.000 OA
ENDBRANCH   7  14
ENDBRANCH   1  10
BRANCH   4  16
ATOM     16  N   UNL     1       2.896   3.262  20.449  0.00  0.00    +0.000 NA
ATOM     17  H   UNL     1       2.045   2.768  20.745  0.00  0.00    +0.000 HD
BRANCH  16  18
ATOM     18  S   UNL     1       4.057   2.503  19.504  0.00  0.00    +0.000 S 
ATOM     19  O   UNL     1       5.079   1.994  20.393  0.00  0.00    +0.000 OA
ATOM     20  O   UNL     1       3.374   1.631  18.574  0.00  0.00    +0.000 OA
BRANCH  18  21
ATOM     21  C   UNL     1       4.723   3.880  18.602  0.00  0.00    +0.000 A 
ATOM     22  C   UNL     1       5.796   4.605  19.133  0.00  0.00    +0.000 A 
ATOM     23  C   UNL     1       6.290   5.708  18.435  0.00  0.00    +0.000 A 
ATOM     24  C   UNL     1       5.717   6.066  17.218  0.00  0.00    +0.000 A 
ATOM     25  F   UNL     1       6.182   7.137  16.561  0.00  0.00    +0.000 F 
ATOM     26  C   UNL     1       4.668   5.331  16.673  0.00  0.00    +0.000 A 
ATOM     27  C   UNL     1       4.168   4.226  17.364  0.00  0.00    +0.000 A 
ENDBRANCH  18  21
ENDBRANCH  16  18
ENDBRANCH   4  16
TORSDOF 5
ENDMDL
MODEL 9
REMARK VINA RESULT:      -7.6      6.432      7.606
REMARK  Name = 
REMARK  6 active torsions:
REMARK  status: ('A' for Active; 'I' for Inactive)
REMARK    1  A    between atoms: C_1  and  C_2
REMARK    2  A    between atoms: C_2  and  C_4
REMARK    3  A    between atoms: C_7  and  N_8
REMARK    4  A    between atoms: N_11  and  N_12
REMARK    5  A    between atoms: N_12  and  S_13
REMARK    6  A    between atoms: S_13  and  C_16
REMARK                            x       y       z     vdW  Elec       q    Type
REMARK                         _______ _______ _______ _____ _____    ______ ____
ROOT
ATOM      1  N   UNL     1       2.448   6.845  20.433  0.00  0.00    +0.000 N 
ATOM      2  C   UNL     1       2.212   5.533  20.073  0.00  0.00    +0.000 C 
ATOM      3  O   UNL     1       1.394   5.137  19.246  0.00  0.00    +0.000 OA
ATOM      4  N   UNL     1       3.032   4.633  20.727  0.00  0.00    +0.000 N 
ATOM      5  H   UNL     1       3.313   7.033  20.919  0.00  0.00    +0.000 HD
ATOM      6  H   UNL     1       3.663   4.876  21.483  0.00  0.00    +0.000 HD
ENDROOT
BRANCH   1  10
ATOM      7  C   UNL     1       0.216  10.219  19.178  0.00  0.00    +0.000 A 
ATOM      8  C   UNL     1       1.097   9.598  18.290  0.00  0.00    +0.000 A 
ATOM      9  C   UNL     1       1.836   8.483  18.694  0.00  0.00    +0.000 A 
ATOM     10  C   UNL     1       1.713   7.965  19.985  0.00  0.00    +0.000 A 
ATOM     11  C   UNL     1       0.811   8.570  20.867  0.00  0.00    +0.000 A 
ATOM     12  C   UNL     1       0.075   9.696  20.469  0.00  0.00    +0.000 A 
BRANCH   7  14
ATOM     13  C   UNL     1      -1.731  11.238  17.820  0.00  0.00    +0.000 C 
ATOM     14  C   UNL     1      -0.580  11.417  18.777  0.00  0.00    +0.000 C 
ATOM     15  O   UNL     1      -0.293  12.523  19.236  0.00  0.00    +0.000 OA
ENDBRANCH   7  14
ENDBRANCH   1  10
BRANCH   4  16
ATOM     16  N   UNL     1       2.891   3.236  20.370  0.00  0.00    +0.000 NA
ATOM     17  H   UNL     1       2.024   2.755  20.639  0.00  0.00    +0.000 HD
BRANCH  16  18
ATOM     18  S   UNL     1       4.074   2.457  19.469  0.00  0.00    +0.000 S 
ATOM     19  O   UNL     1       5.047   1.922  20.396  0.00  0.00    +0.000 OA
ATOM     20  O   UNL     1       3.411   1.605  18.506  0.00  0.00    +0.000 OA
BRANCH  18  21
ATOM     21  C   UNL     1       4.805   3.825  18.604  0.00  0.00    +0.000 A 
ATOM     22  C   UNL     1       5.900   4.494  19.162  0.00  0.00    +0.000 A 
ATOM     23  C   UNL     1       6.447   5.591  18.493  0.00  0.00    +0.000 A 
ATOM     24  C   UNL     1       5.904   5.997  17.278  0.00  0.00    +0.000 A 
ATOM     25  F   UNL     1       6.418   7.061  16.649  0.00  0.00    +0.000 F 
ATOM     26  C   UNL     1       4.833   5.316  16.705  0.00  0.00    +0.000 A 
ATOM     27  C   UNL     1       4.280   4.218  17.367  0.00  0.00    +0.000 A 
ENDBRANCH  18  21
ENDBRANCH  16  18
ENDBRANCH   4  16
TORSDOF 5
ENDMDL
