MODEL 1
REMARK VINA RESULT:      -7.0      0.000      0.000
REMARK  Name = 
REMARK  10 active torsions:
REMARK  status: ('A' for Active; 'I' for Inactive)
REMARK    1  A    between atoms: C_1  and  O_2
REMARK    2  A    between atoms: O_2  and  C_3
REMARK    3  A    between atoms: C_3  and  C_4
REMARK    4  A    between atoms: C_4  and  C_5
REMARK    5  A    between atoms: C_4  and  N_6
REMARK    6  A    between atoms: C_7  and  C_9
REMARK    7  A    between atoms: C_11  and  N_12
REMARK    8  A    between atoms: C_13  and  C_15
REMARK    9  A    between atoms: C_21  and  C_22
REMARK   10  A    between atoms: C_25  and  C_26
REMARK                            x       y       z     vdW  Elec       q    Type
REMARK                         _______ _______ _______ _____ _____    ______ ____
ROOT
ATOM      1  C   UNL     1       0.975  13.073  18.473  0.00  0.00    +0.000 A 
ATOM      2  C   UNL     1      -0.417  13.194  18.423  0.00  0.00    +0.000 A 
ATOM      3  C   UNL     1      -1.236  12.064  18.442  0.00  0.00    +0.000 A 
ATOM      4  C   UNL     1      -0.643  10.804  18.562  0.00  0.00    +0.000 A 
ATOM      5  C   UNL     1       0.759  10.643  18.653  0.00  0.00    +0.000 A 
ATOM      6  C   UNL     1       1.553  11.804  18.589  0.00  0.00    +0.000 A 
ENDROOT
BRANCH   5   7
ATOM      7  C   UNL     1       1.362   9.306  18.871  0.00  0.00    +0.000 A 
ATOM      8  C   UNL     1       1.294   8.660  20.117  0.00  0.00    +0.000 A 
ATOM      9  C   UNL     1       1.948   7.444  20.349  0.00  0.00    +0.000 A 
ATOM     10  C   UNL     1       2.668   6.824  19.328  0.00  0.00    +0.000 A 
ATOM     11  C   UNL     1       3.382   5.527  19.562  0.00  0.00    +0.000 C 
ATOM     12  C   UNL     1       2.717   7.430  18.072  0.00  0.00    +0.000 A 
ATOM     13  C   UNL     1       2.077   8.654  17.850  0.00  0.00    +0.000 A 
ENDBRANCH   5   7
BRANCH   1  15
ATOM     14  N   UNL     1       1.287  15.462  18.875  0.00  0.00    +0.000 N 
ATOM     15  C   UNL     1       1.863  14.275  18.471  0.00  0.00    +0.000 C 
ATOM     16  O   UNL     1       3.029  14.177  18.111  0.00  0.00    +0.000 OA
ATOM     17  H   UNL     1       0.283  15.514  18.990  0.00  0.00    +0.000 HD
BRANCH  14  18
ATOM     18  C   UNL     1       2.031  16.720  18.917  0.00  0.00    +0.000 C 
ATOM     19  C   UNL     1       2.665  16.886  20.300  0.00  0.00    +0.000 C 
BRANCH  18  20
ATOM     20  C   UNL     1       1.138  17.925  18.568  0.00  0.00    +0.000 C 
BRANCH  20  22
ATOM     21  C   UNL     1       0.732  18.508  16.313  0.00  0.00    +0.000 C 
ATOM     22  O   UNL     1       1.643  18.579  17.400  0.00  0.00    +0.000 OA
ENDBRANCH  20  22
ENDBRANCH  18  20
ENDBRANCH  14  18
ENDBRANCH   1  15
BRANCH   3  23
ATOM     23  N   UNL     1      -2.648  12.145  18.391  0.00  0.00    +0.000 N 
ATOM     24  C   UNL     1      -3.484  12.297  19.487  0.00  0.00    +0.000 C 
ATOM     25  O   UNL     1      -3.113  12.498  20.638  0.00  0.00    +0.000 OA
ATOM     26  H   UNL     1      -3.108  12.135  17.485  0.00  0.00    +0.000 HD
BRANCH  24  27
ATOM     27  C   UNL     1      -4.917  12.224  19.174  0.00  0.00    +0.000 A 
ATOM     28  C   UNL     1      -5.882  12.207  20.167  0.00  0.00    +0.000 A 
ATOM     29  S   UNL     1      -7.443  12.082  19.490  0.00  0.00    +0.000 S 
ATOM     30  C   UNL     1      -6.736  12.060  17.927  0.00  0.00    +0.000 A 
ATOM     31  N   UNL     1      -5.421  12.153  17.871  0.00  0.00    +0.000 NA
ENDBRANCH  24  27
ENDBRANCH   3  23
TORSDOF 7
ENDMDL
MODEL 2
REMARK VINA RESULT:      -7.0      4.022      7.134
REMARK  Name = 
REMARK  10 active torsions:
REMARK  status: ('A' for Active; 'I' for Inactive)
REMARK    1  A    between atoms: C_1  and  O_2
REMARK    2  A    between atoms: O_2  and  C_3
REMARK    3  A    between atoms: C_3  and  C_4
REMARK    4  A    between atoms: C_4  and  C_5
REMARK    5  A    between atoms: C_4  and  N_6
REMARK    6  A    between atoms: C_7  and  C_9
REMARK    7  A    between atoms: C_11  and  N_12
REMARK    8  A    between atoms: C_13  and  C_15
REMARK    9  A    between atoms: C_21  and  C_22
REMARK   10  A    between atoms: C_25  and  C_26
REMARK                            x       y       z     vdW  Elec       q    Type
REMARK                         _______ _______ _______ _____ _____    ______ ____
ROOT
ATOM      1  C   UNL     1       1.424  12.270  18.685  0.00  0.00    +0.000 A 
ATOM      2  C   UNL     1       2.071  11.074  18.358  0.00  0.00    +0.000 A 
ATOM      3  C   UNL     1       1.343   9.910  18.110  0.00  0.00    +0.000 A 
ATOM      4  C   UNL     1      -0.053   9.968  18.145  0.00  0.00    +0.000 A 
ATOM      5  C   UNL     1      -0.745  11.166  18.435  0.00  0.00    +0.000 A 
ATOM      6  C   UNL     1       0.025  12.310  18.720  0.00  0.00    +0.000 A 
ENDROOT
BRANCH   5   7
ATOM      7  C   UNL     1      -2.225  11.226  18.377  0.00  0.00    +0.000 A 
ATOM      8  C   UNL     1      -2.953  10.555  17.379  0.00  0.00    +0.000 A 
ATOM      9  C   UNL     1      -4.341  10.693  17.266  0.00  0.00    +0.000 A 
ATOM     10  C   UNL     1      -5.048  11.488  18.169  0.00  0.00    +0.000 A 
ATOM     11  C   UNL     1      -6.533  11.654  18.058  0.00  0.00    +0.000 C 
ATOM     12  C   UNL     1      -4.349  12.133  19.191  0.00  0.00    +0.000 A 
ATOM     13  C   UNL     1      -2.959  12.006  19.289  0.00  0.00    +0.000 A 
ENDBRANCH   5   7
BRANCH   1  15
ATOM     14  N   UNL     1       3.234  13.792  18.073  0.00  0.00    +0.000 N 
ATOM     15  C   UNL     1       2.189  13.528  18.935  0.00  0.00    +0.000 C 
ATOM     16  O   UNL     1       1.888  14.255  19.873  0.00  0.00    +0.000 OA
ATOM     17  H   UNL     1       3.543  13.072  17.432  0.00  0.00    +0.000 HD
BRANCH  14  18
ATOM     18  C   UNL     1       4.075  14.981  18.199  0.00  0.00    +0.000 C 
ATOM     19  C   UNL     1       3.486  16.109  17.351  0.00  0.00    +0.000 C 
BRANCH  18  20
ATOM     20  C   UNL     1       5.536  14.694  17.805  0.00  0.00    +0.000 C 
BRANCH  20  22
ATOM     21  C   UNL     1       7.455  15.961  18.351  0.00  0.00    +0.000 C 
ATOM     22  O   UNL     1       6.413  15.133  18.845  0.00  0.00    +0.000 OA
ENDBRANCH  20  22
ENDBRANCH  18  20
ENDBRANCH  14  18
ENDBRANCH   1  15
BRANCH   3  23
ATOM     23  N   UNL     1       1.962   8.681  17.779  0.00  0.00    +0.000 N 
ATOM     24  C   UNL     1       2.305   7.685  18.680  0.00  0.00    +0.000 C 
ATOM     25  O   UNL     1       2.019   7.679  19.872  0.00  0.00    +0.000 OA
ATOM     26  H   UNL     1       2.142   8.470  16.801  0.00  0.00    +0.000 HD
BRANCH  24  27
ATOM     27  C   UNL     1       3.053   6.565  18.094  0.00  0.00    +0.000 A 
ATOM     28  C   UNL     1       4.244   6.756  17.414  0.00  0.00    +0.000 A 
ATOM     29  S   UNL     1       4.847   5.274  16.824  0.00  0.00    +0.000 S 
ATOM     30  C   UNL     1       3.491   4.477  17.508  0.00  0.00    +0.000 A 
ATOM     31  N   UNL     1       2.626   5.233  18.157  0.00  0.00    +0.000 NA
ENDBRANCH  24  27
ENDBRANCH   3  23
TORSDOF 7
ENDMDL
MODEL 3
REMARK VINA RESULT:      -6.9      9.619     10.994
REMARK  Name = 
REMARK  10 active torsions:
REMARK  status: ('A' for Active; 'I' for Inactive)
REMARK    1  A    between atoms: C_1  and  O_2
REMARK    2  A    between atoms: O_2  and  C_3
REMARK    3  A    between atoms: C_3  and  C_4
REMARK    4  A    between atoms: C_4  and  C_5
REMARK    5  A    between atoms: C_4  and  N_6
REMARK    6  A    between atoms: C_7  and  C_9
REMARK    7  A    between atoms: C_11  and  N_12
REMARK    8  A    between atoms: C_13  and  C_15
REMARK    9  A    between atoms: C_21  and  C_22
REMARK   10  A    between atoms: C_25  and  C_26
REMARK                            x       y       z     vdW  Elec       q    Type
REMARK                         _______ _______ _______ _____ _____    ______ ____
ROOT
ATOM      1  C   UNL     1      10.432  12.573  19.070  0.00  0.00    +0.000 A 
ATOM      2  C   UNL     1      10.081  11.311  18.581  0.00  0.00    +0.000 A 
ATOM      3  C   UNL     1       9.409  10.391  19.387  0.00  0.00    +0.000 A 
ATOM      4  C   UNL     1       9.046  10.770  20.683  0.00  0.00    +0.000 A 
ATOM      5  C   UNL     1       9.350  12.050  21.201  0.00  0.00    +0.000 A 
ATOM      6  C   UNL     1      10.065  12.934  20.372  0.00  0.00    +0.000 A 
ENDROOT
BRANCH   5   7
ATOM      7  C   UNL     1       8.877  12.462  22.545  0.00  0.00    +0.000 A 
ATOM      8  C   UNL     1       8.923  13.802  22.965  0.00  0.00    +0.000 A 
ATOM      9  C   UNL     1       8.570  14.175  24.266  0.00  0.00    +0.000 A 
ATOM     10  C   UNL     1       8.133  13.217  25.182  0.00  0.00    +0.000 A 
ATOM     11  C   UNL     1       7.760  13.597  26.582  0.00  0.00    +0.000 C 
ATOM     12  C   UNL     1       8.045  11.884  24.773  0.00  0.00    +0.000 A 
ATOM     13  C   UNL     1       8.415  11.515  23.477  0.00  0.00    +0.000 A 
ENDBRANCH   5   7
BRANCH   1  15
ATOM     14  N   UNL     1      11.110  14.882  18.651  0.00  0.00    +0.000 N 
ATOM     15  C   UNL     1      11.136  13.574  18.213  0.00  0.00    +0.000 C 
ATOM     16  O   UNL     1      11.683  13.219  17.177  0.00  0.00    +0.000 OA
ATOM     17  H   UNL     1      10.498  15.138  19.415  0.00  0.00    +0.000 HD
BRANCH  14  18
ATOM     18  C   UNL     1      11.750  15.970  17.912  0.00  0.00    +0.000 C 
ATOM     19  C   UNL     1      12.333  16.979  18.903  0.00  0.00    +0.000 C 
BRANCH  18  20
ATOM     20  C   UNL     1      10.772  16.650  16.936  0.00  0.00    +0.000 C 
BRANCH  20  22
ATOM     21  C   UNL     1       8.922  17.624  18.039  0.00  0.00    +0.000 C 
ATOM     22  O   UNL     1      10.233  17.831  17.536  0.00  0.00    +0.000 OA
ENDBRANCH  20  22
ENDBRANCH  18  20
ENDBRANCH  14  18
ENDBRANCH   1  15
BRANCH   3  23
ATOM     23  N   UNL     1       9.038   9.104  18.929  0.00  0.00    +0.000 N 
ATOM     24  C   UNL     1       8.044   8.838  18.001  0.00  0.00    +0.000 C 
ATOM     25  O   UNL     1       7.426   9.683  17.362  0.00  0.00    +0.000 OA
ATOM     26  H   UNL     1       9.556   8.296  19.263  0.00  0.00    +0.000 HD
BRANCH  24  27
ATOM     27  C   UNL     1       7.770   7.410  17.794  0.00  0.00    +0.000 A 
ATOM     28  C   UNL     1       7.915   6.483  18.813  0.00  0.00    +0.000 A 
ATOM     29  S   UNL     1       7.560   4.911  18.254  0.00  0.00    +0.000 S 
ATOM     30  C   UNL     1       7.236   5.563  16.700  0.00  0.00    +0.000 A 
ATOM     31  N   UNL     1       7.361   6.870  16.570  0.00  0.00    +0.000 NA
ENDBRANCH  24  27
ENDBRANCH   3  23
TORSDOF 7
ENDMDL
MODEL 4
REMARK VINA RESULT:      -6.8      3.392      6.534
REMARK  Name = 
REMARK  10 active torsions:
REMARK  status: ('A' for Active; 'I' for Inactive)
REMARK    1  A    between atoms: C_1  and  O_2
REMARK    2  A    between atoms: O_2  and  C_3
REMARK    3  A    between atoms: C_3  and  C_4
REMARK    4  A    between atoms: C_4  and  C_5
REMARK    5  A    between atoms: C_4  and  N_6
REMARK    6  A    between atoms: C_7  and  C_9
REMARK    7  A    between atoms: C_11  and  N_12
REMARK    8  A    between atoms: C_13  and  C_15
REMARK    9  A    between atoms: C_21  and  C_22
REMARK   10  A    between atoms: C_25  and  C_26
REMARK                            x       y       z     vdW  Elec       q    Type
REMARK                         _______ _______ _______ _____ _____    ______ ____
ROOT
ATOM      1  C   UNL     1       1.169  12.652  18.597  0.00  0.00    +0.000 A 
ATOM      2  C   UNL     1       1.782  11.397  18.515  0.00  0.00    +0.000 A 
ATOM      3  C   UNL     1       1.019  10.231  18.443  0.00  0.00    +0.000 A 
ATOM      4  C   UNL     1      -0.374  10.337  18.405  0.00  0.00    +0.000 A 
ATOM      5  C   UNL     1      -1.030  11.589  18.448  0.00  0.00    +0.000 A 
ATOM      6  C   UNL     1      -0.228  12.740  18.562  0.00  0.00    +0.000 A 
ENDROOT
BRANCH   5   7
ATOM      7  C   UNL     1      -2.503  11.684  18.314  0.00  0.00    +0.000 A 
ATOM      8  C   UNL     1      -3.311  12.157  19.363  0.00  0.00    +0.000 A 
ATOM      9  C   UNL     1      -4.707  12.153  19.273  0.00  0.00    +0.000 A 
ATOM     10  C   UNL     1      -5.339  11.697  18.115  0.00  0.00    +0.000 A 
ATOM     11  C   UNL     1      -6.833  11.676  18.005  0.00  0.00    +0.000 C 
ATOM     12  C   UNL     1      -4.554  11.256  17.047  0.00  0.00    +0.000 A 
ATOM     13  C   UNL     1      -3.159  11.247  17.149  0.00  0.00    +0.000 A 
ENDBRANCH   5   7
BRANCH   1  15
ATOM     14  N   UNL     1       1.270  15.074  18.896  0.00  0.00    +0.000 N 
ATOM     15  C   UNL     1       1.972  13.910  18.657  0.00  0.00    +0.000 C 
ATOM     16  O   UNL     1       3.183  13.875  18.484  0.00  0.00    +0.000 OA
ATOM     17  H   UNL     1       0.260  15.062  18.854  0.00  0.00    +0.000 HD
BRANCH  14  18
ATOM     18  C   UNL     1       1.922  16.381  18.974  0.00  0.00    +0.000 C 
ATOM     19  C   UNL     1       2.396  16.624  20.408  0.00  0.00    +0.000 C 
BRANCH  18  20
ATOM     20  C   UNL     1       0.994  17.513  18.496  0.00  0.00    +0.000 C 
BRANCH  20  22
ATOM     21  C   UNL     1       0.809  18.513  16.362  0.00  0.00    +0.000 C 
ATOM     22  O   UNL     1       1.649  18.280  17.482  0.00  0.00    +0.000 OA
ENDBRANCH  20  22
ENDBRANCH  18  20
ENDBRANCH  14  18
ENDBRANCH   1  15
BRANCH   3  23
ATOM     23  N   UNL     1       1.602   8.943  18.361  0.00  0.00    +0.000 N 
ATOM     24  C   UNL     1       1.870   8.112  19.437  0.00  0.00    +0.000 C 
ATOM     25  O   UNL     1       1.534   8.325  20.597  0.00  0.00    +0.000 OA
ATOM     26  H   UNL     1       1.814   8.558  17.444  0.00  0.00    +0.000 HD
BRANCH  24  27
ATOM     27  C   UNL     1       2.596   6.883  19.092  0.00  0.00    +0.000 A 
ATOM     28  C   UNL     1       2.555   5.758  19.898  0.00  0.00    +0.000 A 
ATOM     29  S   UNL     1       3.524   4.514  19.249  0.00  0.00    +0.000 S 
ATOM     30  C   UNL     1       3.933   5.548  17.942  0.00  0.00    +0.000 A 
ATOM     31  N   UNL     1       3.389   6.749  17.947  0.00  0.00    +0.000 NA
ENDBRANCH  24  27
ENDBRANCH   3  23
TORSDOF 7
ENDMDL
MODEL 5
REMARK VINA RESULT:      -6.7      1.592      2.571
REMARK  Name = 
REMARK  10 active torsions:
REMARK  status: ('A' for Active; 'I' for Inactive)
REMARK    1  A    between atoms: C_1  and  O_2
REMARK    2  A    between atoms: O_2  and  C_3
REMARK    3  A    between atoms: C_3  and  C_4
REMARK    4  A    between atoms: C_4  and  C_5
REMARK    5  A    between atoms: C_4  and  N_6
REMARK    6  A    between atoms: C_7  and  C_9
REMARK    7  A    between atoms: C_11  and  N_12
REMARK    8  A    between atoms: C_13  and  C_15
REMARK    9  A    between atoms: C_21  and  C_22
REMARK   10  A    between atoms: C_25  and  C_26
REMARK                            x       y       z     vdW  Elec       q    Type
REMARK                         _______ _______ _______ _____ _____    ______ ____
ROOT
ATOM      1  C   UNL     1       1.007  13.092  18.582  0.00  0.00    +0.000 A 
ATOM      2  C   UNL     1      -0.384  13.205  18.495  0.00  0.00    +0.000 A 
ATOM      3  C   UNL     1      -1.196  12.070  18.497  0.00  0.00    +0.000 A 
ATOM      4  C   UNL     1      -0.599  10.814  18.637  0.00  0.00    +0.000 A 
ATOM      5  C   UNL     1       0.801  10.661  18.765  0.00  0.00    +0.000 A 
ATOM      6  C   UNL     1       1.589  11.826  18.717  0.00  0.00    +0.000 A 
ENDROOT
BRANCH   5   7
ATOM      7  C   UNL     1       1.405   9.328  19.004  0.00  0.00    +0.000 A 
ATOM      8  C   UNL     1       2.057   8.619  17.980  0.00  0.00    +0.000 A 
ATOM      9  C   UNL     1       2.538   7.321  18.179  0.00  0.00    +0.000 A 
ATOM     10  C   UNL     1       2.404   6.701  19.422  0.00  0.00    +0.000 A 
ATOM     11  C   UNL     1       2.906   5.307  19.650  0.00  0.00    +0.000 C 
ATOM     12  C   UNL     1       1.793   7.402  20.463  0.00  0.00    +0.000 A 
ATOM     13  C   UNL     1       1.298   8.693  20.254  0.00  0.00    +0.000 A 
ENDBRANCH   5   7
BRANCH   1  15
ATOM     14  N   UNL     1       3.239  14.069  18.761  0.00  0.00    +0.000 N 
ATOM     15  C   UNL     1       1.888  14.299  18.599  0.00  0.00    +0.000 C 
ATOM     16  O   UNL     1       1.401  15.416  18.487  0.00  0.00    +0.000 OA
ATOM     17  H   UNL     1       3.558  13.146  19.023  0.00  0.00    +0.000 HD
BRANCH  14  18
ATOM     18  C   UNL     1       4.219  15.153  18.803  0.00  0.00    +0.000 C 
ATOM     19  C   UNL     1       5.395  14.808  17.889  0.00  0.00    +0.000 C 
BRANCH  18  20
ATOM     20  C   UNL     1       4.697  15.436  20.240  0.00  0.00    +0.000 C 
BRANCH  20  22
ATOM     21  C   UNL     1       5.098  14.161  22.190  0.00  0.00    +0.000 C 
ATOM     22  O   UNL     1       4.200  14.427  21.123  0.00  0.00    +0.000 OA
ENDBRANCH  20  22
ENDBRANCH  18  20
ENDBRANCH  14  18
ENDBRANCH   1  15
BRANCH   3  23
ATOM     23  N   UNL     1      -2.607  12.142  18.409  0.00  0.00    +0.000 N 
ATOM     24  C   UNL     1      -3.473  12.287  19.483  0.00  0.00    +0.000 C 
ATOM     25  O   UNL     1      -3.134  12.487  20.644  0.00  0.00    +0.000 OA
ATOM     26  H   UNL     1      -3.043  12.131  17.491  0.00  0.00    +0.000 HD
BRANCH  24  27
ATOM     27  C   UNL     1      -4.897  12.206  19.132  0.00  0.00    +0.000 A 
ATOM     28  C   UNL     1      -5.874  12.817  19.899  0.00  0.00    +0.000 A 
ATOM     29  S   UNL     1      -7.424  12.512  19.255  0.00  0.00    +0.000 S 
ATOM     30  C   UNL     1      -6.697  11.592  18.003  0.00  0.00    +0.000 A 
ATOM     31  N   UNL     1      -5.381  11.506  18.021  0.00  0.00    +0.000 NA
ENDBRANCH  24  27
ENDBRANCH   3  23
TORSDOF 7
ENDMDL
MODEL 6
REMARK VINA RESULT:      -6.7      3.741      6.931
REMARK  Name = 
REMARK  10 active torsions:
REMARK  status: ('A' for Active; 'I' for Inactive)
REMARK    1  A    between atoms: C_1  and  O_2
REMARK    2  A    between atoms: O_2  and  C_3
REMARK    3  A    between atoms: C_3  and  C_4
REMARK    4  A    between atoms: C_4  and  C_5
REMARK    5  A    between atoms: C_4  and  N_6
REMARK    6  A    between atoms: C_7  and  C_9
REMARK    7  A    between atoms: C_11  and  N_12
REMARK    8  A    between atoms: C_13  and  C_15
REMARK    9  A    between atoms: C_21  and  C_22
REMARK   10  A    between atoms: C_25  and  C_26
REMARK                            x       y       z     vdW  Elec       q    Type
REMARK                         _______ _______ _______ _____ _____    ______ ____
ROOT
ATOM      1  C   UNL     1       1.163  12.602  18.719  0.00  0.00    +0.000 A 
ATOM      2  C   UNL     1       1.789  11.359  18.577  0.00  0.00    +0.000 A 
ATOM      3  C   UNL     1       1.039  10.192  18.425  0.00  0.00    +0.000 A 
ATOM      4  C   UNL     1      -0.354  10.289  18.366  0.00  0.00    +0.000 A 
ATOM      5  C   UNL     1      -1.023  11.531  18.468  0.00  0.00    +0.000 A 
ATOM      6  C   UNL     1      -0.233  12.680  18.662  0.00  0.00    +0.000 A 
ENDROOT
BRANCH   5   7
ATOM      7  C   UNL     1      -2.494  11.621  18.313  0.00  0.00    +0.000 A 
ATOM      8  C   UNL     1      -3.315  12.125  19.336  0.00  0.00    +0.000 A 
ATOM      9  C   UNL     1      -4.710  12.117  19.229  0.00  0.00    +0.000 A 
ATOM     10  C   UNL     1      -5.327  11.626  18.077  0.00  0.00    +0.000 A 
ATOM     11  C   UNL     1      -6.819  11.601  17.948  0.00  0.00    +0.000 C 
ATOM     12  C   UNL     1      -4.529  11.155  17.033  0.00  0.00    +0.000 A 
ATOM     13  C   UNL     1      -3.135  11.149  17.153  0.00  0.00    +0.000 A 
ENDBRANCH   5   7
BRANCH   1  15
ATOM     14  N   UNL     1       3.023  14.015  18.008  0.00  0.00    +0.000 N 
ATOM     15  C   UNL     1       1.953  13.861  18.865  0.00  0.00    +0.000 C 
ATOM     16  O   UNL     1       1.647  14.683  19.719  0.00  0.00    +0.000 OA
ATOM     17  H   UNL     1       3.330  13.229  17.449  0.00  0.00    +0.000 HD
BRANCH  14  18
ATOM     18  C   UNL     1       3.890  15.192  18.040  0.00  0.00    +0.000 C 
ATOM     19  C   UNL     1       3.398  16.211  17.010  0.00  0.00    +0.000 C 
BRANCH  18  20
ATOM     20  C   UNL     1       5.366  14.823  17.795  0.00  0.00    +0.000 C 
BRANCH  20  22
ATOM     21  C   UNL     1       6.860  15.964  19.228  0.00  0.00    +0.000 C 
ATOM     22  O   UNL     1       6.071  14.799  19.038  0.00  0.00    +0.000 OA
ENDBRANCH  20  22
ENDBRANCH  18  20
ENDBRANCH  14  18
ENDBRANCH   1  15
BRANCH   3  23
ATOM     23  N   UNL     1       1.635   8.916  18.280  0.00  0.00    +0.000 N 
ATOM     24  C   UNL     1       1.950   8.054  19.318  0.00  0.00    +0.000 C 
ATOM     25  O   UNL     1       1.652   8.224  20.495  0.00  0.00    +0.000 OA
ATOM     26  H   UNL     1       1.820   8.565  17.344  0.00  0.00    +0.000 HD
BRANCH  24  27
ATOM     27  C   UNL     1       2.679   6.847  18.908  0.00  0.00    +0.000 A 
ATOM     28  C   UNL     1       2.661   5.688  19.665  0.00  0.00    +0.000 A 
ATOM     29  S   UNL     1       3.628   4.482  18.947  0.00  0.00    +0.000 S 
ATOM     30  C   UNL     1       4.007   5.574  17.679  0.00  0.00    +0.000 A 
ATOM     31  N   UNL     1       3.454   6.770  17.745  0.00  0.00    +0.000 NA
ENDBRANCH  24  27
ENDBRANCH   3  23
TORSDOF 7
ENDMDL
MODEL 7
REMARK VINA RESULT:      -6.7      3.790      6.776
REMARK  Name = 
REMARK  10 active torsions:
REMARK  status: ('A' for Active; 'I' for Inactive)
REMARK    1  A    between atoms: C_1  and  O_2
REMARK    2  A    between atoms: O_2  and  C_3
REMARK    3  A    between atoms: C_3  and  C_4
REMARK    4  A    between atoms: C_4  and  C_5
REMARK    5  A    between atoms: C_4  and  N_6
REMARK    6  A    between atoms: C_7  and  C_9
REMARK    7  A    between atoms: C_11  and  N_12
REMARK    8  A    between atoms: C_13  and  C_15
REMARK    9  A    between atoms: C_21  and  C_22
REMARK   10  A    between atoms: C_25  and  C_26
REMARK                            x       y       z     vdW  Elec       q    Type
REMARK                         _______ _______ _______ _____ _____    ______ ____
ROOT
ATOM      1  C   UNL     1       1.402  12.132  18.685  0.00  0.00    +0.000 A 
ATOM      2  C   UNL     1       2.040  10.930  18.362  0.00  0.00    +0.000 A 
ATOM      3  C   UNL     1       1.302   9.775  18.098  0.00  0.00    +0.000 A 
ATOM      4  C   UNL     1      -0.094   9.850  18.111  0.00  0.00    +0.000 A 
ATOM      5  C   UNL     1      -0.776  11.056  18.395  0.00  0.00    +0.000 A 
ATOM      6  C   UNL     1       0.003  12.188  18.697  0.00  0.00    +0.000 A 
ENDROOT
BRANCH   5   7
ATOM      7  C   UNL     1      -2.254  11.133  18.314  0.00  0.00    +0.000 A 
ATOM      8  C   UNL     1      -2.993  12.013  19.124  0.00  0.00    +0.000 A 
ATOM      9  C   UNL     1      -4.392  12.015  19.119  0.00  0.00    +0.000 A 
ATOM     10  C   UNL     1      -5.096  11.151  18.280  0.00  0.00    +0.000 A 
ATOM     11  C   UNL     1      -6.595  11.133  18.268  0.00  0.00    +0.000 C 
ATOM     12  C   UNL     1      -4.382  10.295  17.440  0.00  0.00    +0.000 A 
ATOM     13  C   UNL     1      -2.983  10.285  17.461  0.00  0.00    +0.000 A 
ENDBRANCH   5   7
BRANCH   1  15
ATOM     14  N   UNL     1       1.600  14.288  19.816  0.00  0.00    +0.000 N 
ATOM     15  C   UNL     1       2.178  13.380  18.953  0.00  0.00    +0.000 C 
ATOM     16  O   UNL     1       3.260  13.559  18.408  0.00  0.00    +0.000 OA
ATOM     17  H   UNL     1       0.634  14.165  20.092  0.00  0.00    +0.000 HD
BRANCH  14  18
ATOM     18  C   UNL     1       2.240  15.555  20.166  0.00  0.00    +0.000 C 
ATOM     19  C   UNL     1       1.984  15.859  21.643  0.00  0.00    +0.000 C 
BRANCH  18  20
ATOM     20  C   UNL     1       1.754  16.709  19.269  0.00  0.00    +0.000 C 
BRANCH  20  22
ATOM     21  C   UNL     1       2.948  16.882  17.236  0.00  0.00    +0.000 C 
ATOM     22  O   UNL     1       2.867  17.297  18.592  0.00  0.00    +0.000 OA
ENDBRANCH  20  22
ENDBRANCH  18  20
ENDBRANCH  14  18
ENDBRANCH   1  15
BRANCH   3  23
ATOM     23  N   UNL     1       1.911   8.540  17.770  0.00  0.00    +0.000 N 
ATOM     24  C   UNL     1       2.348   7.593  18.683  0.00  0.00    +0.000 C 
ATOM     25  O   UNL     1       2.166   7.640  19.894  0.00  0.00    +0.000 OA
ATOM     26  H   UNL     1       2.009   8.286  16.791  0.00  0.00    +0.000 HD
BRANCH  24  27
ATOM     27  C   UNL     1       3.062   6.456  18.086  0.00  0.00    +0.000 A 
ATOM     28  C   UNL     1       4.271   6.614  17.431  0.00  0.00    +0.000 A 
ATOM     29  S   UNL     1       4.827   5.122  16.819  0.00  0.00    +0.000 S 
ATOM     30  C   UNL     1       3.428   4.365  17.464  0.00  0.00    +0.000 A 
ATOM     31  N   UNL     1       2.583   5.142  18.114  0.00  0.00    +0.000 NA
ENDBRANCH  24  27
ENDBRANCH   3  23
TORSDOF 7
ENDMDL
MODEL 8
REMARK VINA RESULT:      -6.7      0.665      1.112
REMARK  Name = 
REMARK  10 active torsions:
REMARK  status: ('A' for Active; 'I' for Inactive)
REMARK    1  A    between atoms: C_1  and  O_2
REMARK    2  A    between atoms: O_2  and  C_3
REMARK    3  A    between atoms: C_3  and  C_4
REMARK    4  A    between atoms: C_4  and  C_5
REMARK    5  A    between atoms: C_4  and  N_6
REMARK    6  A    between atoms: C_7  and  C_9
REMARK    7  A    between atoms: C_11  and  N_12
REMARK    8  A    between atoms: C_13  and  C_15
REMARK    9  A    between atoms: C_21  and  C_22
REMARK   10  A    between atoms: C_25  and  C_26
REMARK                            x       y       z     vdW  Elec       q    Type
REMARK                         _______ _______ _______ _____ _____    ______ ____
ROOT
ATOM      1  C   UNL     1       0.979  13.103  18.489  0.00  0.00    +0.000 A 
ATOM      2  C   UNL     1      -0.414  13.200  18.405  0.00  0.00    +0.000 A 
ATOM      3  C   UNL     1      -1.214  12.057  18.430  0.00  0.00    +0.000 A 
ATOM      4  C   UNL     1      -0.604  10.810  18.591  0.00  0.00    +0.000 A 
ATOM      5  C   UNL     1       0.798  10.674  18.718  0.00  0.00    +0.000 A 
ATOM      6  C   UNL     1       1.574  11.847  18.646  0.00  0.00    +0.000 A 
ENDROOT
BRANCH   5   7
ATOM      7  C   UNL     1       1.417   9.352  18.978  0.00  0.00    +0.000 A 
ATOM      8  C   UNL     1       2.095   8.643  17.972  0.00  0.00    +0.000 A 
ATOM      9  C   UNL     1       2.591   7.353  18.191  0.00  0.00    +0.000 A 
ATOM     10  C   UNL     1       2.446   6.743  19.438  0.00  0.00    +0.000 A 
ATOM     11  C   UNL     1       2.963   5.359  19.688  0.00  0.00    +0.000 C 
ATOM     12  C   UNL     1       1.809   7.445  20.463  0.00  0.00    +0.000 A 
ATOM     13  C   UNL     1       1.300   8.727  20.233  0.00  0.00    +0.000 A 
ENDBRANCH   5   7
BRANCH   1  15
ATOM     14  N   UNL     1       1.223  15.519  18.759  0.00  0.00    +0.000 N 
ATOM     15  C   UNL     1       1.847  14.319  18.481  0.00  0.00    +0.000 C 
ATOM     16  O   UNL     1       3.039  14.222  18.224  0.00  0.00    +0.000 OA
ATOM     17  H   UNL     1       0.213  15.558  18.788  0.00  0.00    +0.000 HD
BRANCH  14  18
ATOM     18  C   UNL     1       1.944  16.791  18.780  0.00  0.00    +0.000 C 
ATOM     19  C   UNL     1       2.545  17.008  20.169  0.00  0.00    +0.000 C 
BRANCH  18  20
ATOM     20  C   UNL     1       1.037  17.969  18.376  0.00  0.00    +0.000 C 
BRANCH  20  22
ATOM     21  C   UNL     1      -1.065  18.508  17.439  0.00  0.00    +0.000 C 
ATOM     22  O   UNL     1      -0.238  17.476  17.956  0.00  0.00    +0.000 OA
ENDBRANCH  20  22
ENDBRANCH  18  20
ENDBRANCH  14  18
ENDBRANCH   1  15
BRANCH   3  23
ATOM     23  N   UNL     1      -2.626  12.113  18.345  0.00  0.00    +0.000 N 
ATOM     24  C   UNL     1      -3.487  12.324  19.411  0.00  0.00    +0.000 C 
ATOM     25  O   UNL     1      -3.144  12.605  20.554  0.00  0.00    +0.000 OA
ATOM     26  H   UNL     1      -3.067  12.036  17.432  0.00  0.00    +0.000 HD
BRANCH  24  27
ATOM     27  C   UNL     1      -4.912  12.209  19.074  0.00  0.00    +0.000 A 
ATOM     28  C   UNL     1      -5.870  13.016  19.664  0.00  0.00    +0.000 A 
ATOM     29  S   UNL     1      -7.428  12.619  19.095  0.00  0.00    +0.000 S 
ATOM     30  C   UNL     1      -6.730  11.404  18.105  0.00  0.00    +0.000 A 
ATOM     31  N   UNL     1      -5.417  11.282  18.156  0.00  0.00    +0.000 NA
ENDBRANCH  24  27
ENDBRANCH   3  23
TORSDOF 7
ENDMDL
MODEL 9
REMARK VINA RESULT:      -6.7      1.999      2.481
REMARK  Name = 
REMARK  10 active torsions:
REMARK  status: ('A' for Active; 'I' for Inactive)
REMARK    1  A    between atoms: C_1  and  O_2
REMARK    2  A    between atoms: O_2  and  C_3
REMARK    3  A    between atoms: C_3  and  C_4
REMARK    4  A    between atoms: C_4  and  C_5
REMARK    5  A    between atoms: C_4  and  N_6
REMARK    6  A    between atoms: C_7  and  C_9
REMARK    7  A    between atoms: C_11  and  N_12
REMARK    8  A    between atoms: C_13  and  C_15
REMARK    9  A    between atoms: C_21  and  C_22
REMARK   10  A    between atoms: C_25  and  C_26
REMARK                            x       y       z     vdW  Elec       q    Type
REMARK                         _______ _______ _______ _____ _____    ______ ____
ROOT
ATOM      1  C   UNL     1       0.896  12.761  18.675  0.00  0.00    +0.000 A 
ATOM      2  C   UNL     1      -0.503  12.763  18.669  0.00  0.00    +0.000 A 
ATOM      3  C   UNL     1      -1.220  11.566  18.649  0.00  0.00    +0.000 A 
ATOM      4  C   UNL     1      -0.518  10.358  18.686  0.00  0.00    +0.000 A 
ATOM      5  C   UNL     1       0.894  10.316  18.731  0.00  0.00    +0.000 A 
ATOM      6  C   UNL     1       1.584  11.543  18.707  0.00  0.00    +0.000 A 
ENDROOT
BRANCH   5   7
ATOM      7  C   UNL     1       1.615   9.026  18.861  0.00  0.00    +0.000 A 
ATOM      8  C   UNL     1       2.384   8.501  17.808  0.00  0.00    +0.000 A 
ATOM      9  C   UNL     1       2.981   7.238  17.895  0.00  0.00    +0.000 A 
ATOM     10  C   UNL     1       2.849   6.473  19.054  0.00  0.00    +0.000 A 
ATOM     11  C   UNL     1       3.475   5.116  19.161  0.00  0.00    +0.000 C 
ATOM     12  C   UNL     1       2.121   6.993  20.126  0.00  0.00    +0.000 A 
ATOM     13  C   UNL     1       1.511   8.247  20.027  0.00  0.00    +0.000 A 
ENDBRANCH   5   7
BRANCH   1  15
ATOM     14  N   UNL     1       3.046  13.909  18.833  0.00  0.00    +0.000 N 
ATOM     15  C   UNL     1       1.677  14.034  18.714  0.00  0.00    +0.000 C 
ATOM     16  O   UNL     1       1.099  15.112  18.656  0.00  0.00    +0.000 OA
ATOM     17  H   UNL     1       3.445  13.006  19.053  0.00  0.00    +0.000 HD
BRANCH  14  18
ATOM     18  C   UNL     1       3.937  15.067  18.891  0.00  0.00    +0.000 C 
ATOM     19  C   UNL     1       5.018  14.927  17.818  0.00  0.00    +0.000 C 
BRANCH  18  20
ATOM     20  C   UNL     1       4.561  15.240  20.289  0.00  0.00    +0.000 C 
BRANCH  20  22
ATOM     21  C   UNL     1       4.095  17.545  20.532  0.00  0.00    +0.000 C 
ATOM     22  O   UNL     1       5.107  16.556  20.416  0.00  0.00    +0.000 OA
ENDBRANCH  20  22
ENDBRANCH  18  20
ENDBRANCH  14  18
ENDBRANCH   1  15
BRANCH   3  23
ATOM     23  N   UNL     1      -2.636  11.526  18.640  0.00  0.00    +0.000 N 
ATOM     24  C   UNL     1      -3.428  11.375  17.513  0.00  0.00    +0.000 C 
ATOM     25  O   UNL     1      -3.015  11.140  16.383  0.00  0.00    +0.000 OA
ATOM     26  H   UNL     1      -3.133  11.569  19.525  0.00  0.00    +0.000 HD
BRANCH  24  27
ATOM     27  C   UNL     1      -4.871  11.496  17.762  0.00  0.00    +0.000 A 
ATOM     28  C   UNL     1      -5.591  12.610  17.364  0.00  0.00    +0.000 A 
ATOM     29  S   UNL     1      -7.226  12.468  17.827  0.00  0.00    +0.000 S 
ATOM     30  C   UNL     1      -6.872  10.941  18.523  0.00  0.00    +0.000 A 
ATOM     31  N   UNL     1      -5.625  10.521  18.424  0.00  0.00    +0.000 NA
ENDBRANCH  24  27
ENDBRANCH   3  23
TORSDOF 7
ENDMDL
