MODEL 1
REMARK VINA RESULT:      -7.9      0.000      0.000
REMARK  Name = 
REMARK  8 active torsions:
REMARK  status: ('A' for Active; 'I' for Inactive)
REMARK    1  A    between atoms: C_1  and  O_2
REMARK    2  A    between atoms: O_2  and  C_3
REMARK    3  A    between atoms: C_6  and  N_7
REMARK    4  A    between atoms: C_8  and  C_10
REMARK    5  A    between atoms: C_11  and  O_12
REMARK    6  A    between atoms: N_16  and  C_17
REMARK    7  A    between atoms: C_28  and  O_29
REMARK    8  A    between atoms: O_29  and  C_30
REMARK                            x       y       z     vdW  Elec       q    Type
REMARK                         _______ _______ _______ _____ _____    ______ ____
ROOT
ATOM      1  C   UNL     1       0.207   9.940  20.552  0.00  0.00    +0.000 A 
ATOM      2  C   UNL     1       0.682   9.974  19.282  0.00  0.00    +0.000 A 
ATOM      3  C   UNL     1       1.566   8.976  18.812  0.00  0.00    +0.000 A 
ATOM      4  C   UNL     1       2.325   8.813  17.652  0.00  0.00    +0.000 A 
ATOM      5  N   UNL     1       3.098   7.722  17.716  0.00  0.00    +0.000 NA
ATOM      6  N   UNL     1       2.745   7.115  18.890  0.00  0.00    +0.000 N 
ATOM      7  C   UNL     1       1.889   7.923  19.617  0.00  0.00    +0.000 A 
ATOM      8  N   UNL     1       1.450   7.810  20.922  0.00  0.00    +0.000 N 
ATOM      9  C   UNL     1       0.646   8.804  21.451  0.00  0.00    +0.000 A 
ATOM     10  O   UNL     1       0.288   8.749  22.627  0.00  0.00    +0.000 OA
ATOM     11  H   UNL     1       1.773   7.082  21.545  0.00  0.00    +0.000 HD
ENDROOT
BRANCH   6  12
ATOM     12  C   UNL     1       3.240   5.821  19.195  0.00  0.00    +0.000 A 
ATOM     13  C   UNL     1       4.570   5.505  18.865  0.00  0.00    +0.000 A 
ATOM     14  C   UNL     1       5.083   4.241  19.164  0.00  0.00    +0.000 A 
ATOM     15  C   UNL     1       4.258   3.289  19.751  0.00  0.00    +0.000 A 
ATOM     16  F   UNL     1       4.746   2.073  20.026  0.00  0.00    +0.000 F 
ATOM     17  C   UNL     1       2.929   3.577  20.047  0.00  0.00    +0.000 A 
ATOM     18  C   UNL     1       2.414   4.847  19.776  0.00  0.00    +0.000 A 
ENDBRANCH   6  12
BRANCH   1  20
ATOM     19  N   UNL     1      -0.620  11.415  22.314  0.00  0.00    +0.000 N 
ATOM     20  C   UNL     1      -0.690  11.046  20.994  0.00  0.00    +0.000 C 
ATOM     21  O   UNL     1      -1.476  11.537  20.179  0.00  0.00    +0.000 OA
ATOM     22  H   UNL     1      -0.152  10.789  22.974  0.00  0.00    +0.000 HD
BRANCH  19  26
ATOM     23  C   UNL     1      -2.894  14.518  24.039  0.00  0.00    +0.000 A 
ATOM     24  C   UNL     1      -3.442  13.242  23.917  0.00  0.00    +0.000 A 
ATOM     25  C   UNL     1      -2.694  12.203  23.366  0.00  0.00    +0.000 A 
ATOM     26  C   UNL     1      -1.401  12.442  22.895  0.00  0.00    +0.000 A 
ATOM     27  C   UNL     1      -0.859  13.737  22.969  0.00  0.00    +0.000 A 
ATOM     28  C   UNL     1      -1.604  14.767  23.560  0.00  0.00    +0.000 A 
BRANCH  23  30
ATOM     29  C   UNL     1      -3.102  16.626  25.101  0.00  0.00    +0.000 C 
ATOM     30  O   UNL     1      -3.723  15.444  24.611  0.00  0.00    +0.000 OA
ENDBRANCH  23  30
BRANCH  27  31
ATOM     31  O   UNL     1       0.427  13.862  22.501  0.00  0.00    +0.000 OA
ATOM     32  C   UNL     1       0.632  14.726  21.392  0.00  0.00    +0.000 C 
ENDBRANCH  27  31
ENDBRANCH  19  26
ENDBRANCH   1  20
BRANCH   2  33
ATOM     33  O   UNL     1       0.376  10.929  18.334  0.00  0.00    +0.000 OA
ATOM     34  H   UNL     1      -0.412  11.432  18.649  0.00  0.00    +0.000 HD
ENDBRANCH   2  33
TORSDOF 6
ENDMDL
MODEL 2
REMARK VINA RESULT:      -7.9      2.229      3.333
REMARK  Name = 
REMARK  8 active torsions:
REMARK  status: ('A' for Active; 'I' for Inactive)
REMARK    1  A    between atoms: C_1  and  O_2
REMARK    2  A    between atoms: O_2  and  C_3
REMARK    3  A    between atoms: C_6  and  N_7
REMARK    4  A    between atoms: C_8  and  C_10
REMARK    5  A    between atoms: C_11  and  O_12
REMARK    6  A    between atoms: N_16  and  C_17
REMARK    7  A    between atoms: C_28  and  O_29
REMARK    8  A    between atoms: O_29  and  C_30
REMARK                            x       y       z     vdW  Elec       q    Type
REMARK                         _______ _______ _______ _____ _____    ______ ____
ROOT
ATOM      1  C   UNL     1       1.350   8.863  19.441  0.00  0.00    +0.000 A 
ATOM      2  C   UNL     1       1.554   7.742  20.178  0.00  0.00    +0.000 A 
ATOM      3  C   UNL     1       2.399   6.710  19.709  0.00  0.00    +0.000 A 
ATOM      4  C   UNL     1       2.687   5.415  20.139  0.00  0.00    +0.000 A 
ATOM      5  N   UNL     1       3.499   4.779  19.285  0.00  0.00    +0.000 NA
ATOM      6  N   UNL     1       3.826   5.722  18.349  0.00  0.00    +0.000 N 
ATOM      7  C   UNL     1       3.080   6.873  18.537  0.00  0.00    +0.000 A 
ATOM      8  N   UNL     1       2.931   7.980  17.726  0.00  0.00    +0.000 N 
ATOM      9  C   UNL     1       2.054   8.980  18.106  0.00  0.00    +0.000 A 
ATOM     10  O   UNL     1       1.867   9.951  17.373  0.00  0.00    +0.000 OA
ATOM     11  H   UNL     1       3.359   8.050  16.813  0.00  0.00    +0.000 HD
ENDROOT
BRANCH   6  12
ATOM     12  C   UNL     1       4.827   5.444  17.384  0.00  0.00    +0.000 A 
ATOM     13  C   UNL     1       4.613   4.406  16.460  0.00  0.00    +0.000 A 
ATOM     14  C   UNL     1       5.579   4.120  15.494  0.00  0.00    +0.000 A 
ATOM     15  C   UNL     1       6.768   4.842  15.480  0.00  0.00    +0.000 A 
ATOM     16  F   UNL     1       7.700   4.559  14.561  0.00  0.00    +0.000 F 
ATOM     17  C   UNL     1       7.008   5.845  16.413  0.00  0.00    +0.000 A 
ATOM     18  C   UNL     1       6.035   6.156  17.367  0.00  0.00    +0.000 A 
ENDBRANCH   6  12
BRANCH   1  20
ATOM     19  N   UNL     1       0.764  10.492  21.162  0.00  0.00    +0.000 N 
ATOM     20  C   UNL     1       0.415   9.893  19.977  0.00  0.00    +0.000 C 
ATOM     21  O   UNL     1      -0.634  10.121  19.369  0.00  0.00    +0.000 OA
ATOM     22  H   UNL     1       1.495  10.061  21.733  0.00  0.00    +0.000 HD
BRANCH  19  26
ATOM     23  C   UNL     1      -1.499  13.503  23.058  0.00  0.00    +0.000 A 
ATOM     24  C   UNL     1      -1.802  12.161  23.285  0.00  0.00    +0.000 A 
ATOM     25  C   UNL     1      -1.050  11.156  22.680  0.00  0.00    +0.000 A 
ATOM     26  C   UNL     1      -0.009  11.486  21.808  0.00  0.00    +0.000 A 
ATOM     27  C   UNL     1       0.271  12.836  21.534  0.00  0.00    +0.000 A 
ATOM     28  C   UNL     1      -0.465  13.841  22.179  0.00  0.00    +0.000 A 
BRANCH  23  30
ATOM     29  C   UNL     1      -3.644  13.979  23.946  0.00  0.00    +0.000 C 
ATOM     30  O   UNL     1      -2.300  14.390  23.724  0.00  0.00    +0.000 OA
ENDBRANCH  23  30
BRANCH  27  31
ATOM     31  O   UNL     1       1.328  13.055  20.684  0.00  0.00    +0.000 OA
ATOM     32  C   UNL     1       1.033  13.631  19.419  0.00  0.00    +0.000 C 
ENDBRANCH  27  31
ENDBRANCH  19  26
ENDBRANCH   1  20
BRANCH   2  33
ATOM     33  O   UNL     1       0.999   7.481  21.414  0.00  0.00    +0.000 OA
ATOM     34  H   UNL     1       0.295   6.801  21.296  0.00  0.00    +0.000 HD
ENDBRANCH   2  33
TORSDOF 6
ENDMDL
MODEL 3
REMARK VINA RESULT:      -7.8      3.925     10.141
REMARK  Name = 
REMARK  8 active torsions:
REMARK  status: ('A' for Active; 'I' for Inactive)
REMARK    1  A    between atoms: C_1  and  O_2
REMARK    2  A    between atoms: O_2  and  C_3
REMARK    3  A    between atoms: C_6  and  N_7
REMARK    4  A    between atoms: C_8  and  C_10
REMARK    5  A    between atoms: C_11  and  O_12
REMARK    6  A    between atoms: N_16  and  C_17
REMARK    7  A    between atoms: C_28  and  O_29
REMARK    8  A    between atoms: O_29  and  C_30
REMARK                            x       y       z     vdW  Elec       q    Type
REMARK                         _______ _______ _______ _____ _____    ______ ____
ROOT
ATOM      1  C   UNL     1       1.505   9.080  19.419  0.00  0.00    +0.000 A 
ATOM      2  C   UNL     1       1.255   8.531  20.634  0.00  0.00    +0.000 A 
ATOM      3  C   UNL     1       0.613   9.279  21.648  0.00  0.00    +0.000 A 
ATOM      4  C   UNL     1       0.357   9.066  23.003  0.00  0.00    +0.000 A 
ATOM      5  N   UNL     1      -0.209  10.135  23.574  0.00  0.00    +0.000 NA
ATOM      6  N   UNL     1      -0.423  11.008  22.543  0.00  0.00    +0.000 N 
ATOM      7  C   UNL     1       0.169  10.542  21.381  0.00  0.00    +0.000 A 
ATOM      8  N   UNL     1       0.380  11.175  20.173  0.00  0.00    +0.000 N 
ATOM      9  C   UNL     1       1.074  10.511  19.177  0.00  0.00    +0.000 A 
ATOM     10  O   UNL     1       1.319  11.076  18.111  0.00  0.00    +0.000 OA
ATOM     11  H   UNL     1       0.140  12.144  20.014  0.00  0.00    +0.000 HD
ENDROOT
BRANCH   6  12
ATOM     12  C   UNL     1      -1.182  12.187  22.757  0.00  0.00    +0.000 A 
ATOM     13  C   UNL     1      -2.536  12.069  23.118  0.00  0.00    +0.000 A 
ATOM     14  C   UNL     1      -3.301  13.214  23.344  0.00  0.00    +0.000 A 
ATOM     15  C   UNL     1      -2.725  14.467  23.168  0.00  0.00    +0.000 A 
ATOM     16  F   UNL     1      -3.463  15.566  23.372  0.00  0.00    +0.000 F 
ATOM     17  C   UNL     1      -1.398  14.597  22.773  0.00  0.00    +0.000 A 
ATOM     18  C   UNL     1      -0.617  13.457  22.571  0.00  0.00    +0.000 A 
ENDBRANCH   6  12
BRANCH   1  20
ATOM     19  N   UNL     1       2.898   7.149  18.876  0.00  0.00    +0.000 N 
ATOM     20  C   UNL     1       2.220   8.248  18.410  0.00  0.00    +0.000 C 
ATOM     21  O   UNL     1       2.212   8.606  17.229  0.00  0.00    +0.000 OA
ATOM     22  H   UNL     1       3.082   7.076  19.880  0.00  0.00    +0.000 HD
BRANCH  19  26
ATOM     23  C   UNL     1       5.026   4.441  16.445  0.00  0.00    +0.000 A 
ATOM     24  C   UNL     1       5.492   5.746  16.601  0.00  0.00    +0.000 A 
ATOM     25  C   UNL     1       4.808   6.646  17.417  0.00  0.00    +0.000 A 
ATOM     26  C   UNL     1       3.627   6.257  18.055  0.00  0.00    +0.000 A 
ATOM     27  C   UNL     1       3.124   4.958  17.863  0.00  0.00    +0.000 A 
ATOM     28  C   UNL     1       3.840   4.048  17.072  0.00  0.00    +0.000 A 
BRANCH  23  30
ATOM     29  C   UNL     1       6.349   4.286  14.485  0.00  0.00    +0.000 C 
ATOM     30  O   UNL     1       5.796   3.654  15.633  0.00  0.00    +0.000 OA
ENDBRANCH  23  30
BRANCH  27  31
ATOM     31  O   UNL     1       1.972   4.668  18.552  0.00  0.00    +0.000 OA
ATOM     32  C   UNL     1       1.388   3.392  18.331  0.00  0.00    +0.000 C 
ENDBRANCH  27  31
ENDBRANCH  19  26
ENDBRANCH   1  20
BRANCH   2  33
ATOM     33  O   UNL     1       1.571   7.244  21.016  0.00  0.00    +0.000 OA
ATOM     34  H   UNL     1       2.552   7.177  21.084  0.00  0.00    +0.000 HD
ENDBRANCH   2  33
TORSDOF 6
ENDMDL
MODEL 4
REMARK VINA RESULT:      -7.7      3.724      9.817
REMARK  Name = 
REMARK  8 active torsions:
REMARK  status: ('A' for Active; 'I' for Inactive)
REMARK    1  A    between atoms: C_1  and  O_2
REMARK    2  A    between atoms: O_2  and  C_3
REMARK    3  A    between atoms: C_6  and  N_7
REMARK    4  A    between atoms: C_8  and  C_10
REMARK    5  A    between atoms: C_11  and  O_12
REMARK    6  A    between atoms: N_16  and  C_17
REMARK    7  A    between atoms: C_28  and  O_29
REMARK    8  A    between atoms: O_29  and  C_30
REMARK                            x       y       z     vdW  Elec       q    Type
REMARK                         _______ _______ _______ _____ _____    ______ ____
ROOT
ATOM      1  C   UNL     1       0.666   9.779  19.375  0.00  0.00    +0.000 A 
ATOM      2  C   UNL     1      -0.323  10.428  18.711  0.00  0.00    +0.000 A 
ATOM      3  C   UNL     1      -1.241  11.252  19.402  0.00  0.00    +0.000 A 
ATOM      4  C   UNL     1      -2.419  11.910  19.048  0.00  0.00    +0.000 A 
ATOM      5  N   UNL     1      -2.993  12.500  20.103  0.00  0.00    +0.000 NA
ATOM      6  N   UNL     1      -2.109  12.311  21.130  0.00  0.00    +0.000 N 
ATOM      7  C   UNL     1      -1.087  11.462  20.742  0.00  0.00    +0.000 A 
ATOM      8  N   UNL     1      -0.108  10.843  21.494  0.00  0.00    +0.000 N 
ATOM      9  C   UNL     1       0.764   9.966  20.874  0.00  0.00    +0.000 A 
ATOM     10  O   UNL     1       1.610   9.364  21.535  0.00  0.00    +0.000 OA
ATOM     11  H   UNL     1      -0.061  10.923  22.501  0.00  0.00    +0.000 HD
ENDROOT
BRANCH   6  12
ATOM     12  C   UNL     1      -2.311  12.970  22.370  0.00  0.00    +0.000 A 
ATOM     13  C   UNL     1      -3.495  12.723  23.088  0.00  0.00    +0.000 A 
ATOM     14  C   UNL     1      -3.712  13.351  24.315  0.00  0.00    +0.000 A 
ATOM     15  C   UNL     1      -2.770  14.252  24.799  0.00  0.00    +0.000 A 
ATOM     16  F   UNL     1      -2.985  14.865  25.969  0.00  0.00    +0.000 F 
ATOM     17  C   UNL     1      -1.614  14.535  24.080  0.00  0.00    +0.000 A 
ATOM     18  C   UNL     1      -1.374  13.890  22.863  0.00  0.00    +0.000 A 
ENDBRANCH   6  12
BRANCH   1  20
ATOM     19  N   UNL     1       1.995   7.738  19.197  0.00  0.00    +0.000 N 
ATOM     20  C   UNL     1       1.573   8.895  18.590  0.00  0.00    +0.000 C 
ATOM     21  O   UNL     1       1.938   9.260  17.468  0.00  0.00    +0.000 OA
ATOM     22  H   UNL     1       1.873   7.643  20.208  0.00  0.00    +0.000 HD
BRANCH  19  26
ATOM     23  C   UNL     1       4.535   4.870  17.439  0.00  0.00    +0.000 A 
ATOM     24  C   UNL     1       4.642   6.209  17.068  0.00  0.00    +0.000 A 
ATOM     25  C   UNL     1       3.821   7.171  17.656  0.00  0.00    +0.000 A 
ATOM     26  C   UNL     1       2.856   6.793  18.593  0.00  0.00    +0.000 A 
ATOM     27  C   UNL     1       2.710   5.437  18.936  0.00  0.00    +0.000 A 
ATOM     28  C   UNL     1       3.566   4.482  18.369  0.00  0.00    +0.000 A 
BRANCH  23  30
ATOM     29  C   UNL     1       6.722   4.533  16.590  0.00  0.00    +0.000 C 
ATOM     30  O   UNL     1       5.409   4.031  16.802  0.00  0.00    +0.000 OA
ENDBRANCH  23  30
BRANCH  27  31
ATOM     31  O   UNL     1       1.751   5.172  19.884  0.00  0.00    +0.000 OA
ATOM     32  C   UNL     1       1.169   3.876  19.873  0.00  0.00    +0.000 C 
ENDBRANCH  27  31
ENDBRANCH  19  26
ENDBRANCH   1  20
BRANCH   2  33
ATOM     33  O   UNL     1      -0.547  10.375  17.351  0.00  0.00    +0.000 OA
ATOM     34  H   UNL     1      -0.899   9.480  17.133  0.00  0.00    +0.000 HD
ENDBRANCH   2  33
TORSDOF 6
ENDMDL
MODEL 5
REMARK VINA RESULT:      -7.7      2.967      4.597
REMARK  Name = 
REMARK  8 active torsions:
REMARK  status: ('A' for Active; 'I' for Inactive)
REMARK    1  A    between atoms: C_1  and  O_2
REMARK    2  A    between atoms: O_2  and  C_3
REMARK    3  A    between atoms: C_6  and  N_7
REMARK    4  A    between atoms: C_8  and  C_10
REMARK    5  A    between atoms: C_11  and  O_12
REMARK    6  A    between atoms: N_16  and  C_17
REMARK    7  A    between atoms: C_28  and  O_29
REMARK    8  A    between atoms: O_29  and  C_30
REMARK                            x       y       z     vdW  Elec       q    Type
REMARK                         _______ _______ _______ _____ _____    ______ ____
ROOT
ATOM      1  C   UNL     1       2.198   7.621  19.486  0.00  0.00    +0.000 A 
ATOM      2  C   UNL     1       2.484   6.366  19.914  0.00  0.00    +0.000 A 
ATOM      3  C   UNL     1       3.225   5.474  19.103  0.00  0.00    +0.000 A 
ATOM      4  C   UNL     1       3.543   4.119  19.184  0.00  0.00    +0.000 A 
ATOM      5  N   UNL     1       4.201   3.699  18.097  0.00  0.00    +0.000 NA
ATOM      6  N   UNL     1       4.407   4.831  17.357  0.00  0.00    +0.000 N 
ATOM      7  C   UNL     1       3.725   5.903  17.908  0.00  0.00    +0.000 A 
ATOM      8  N   UNL     1       3.483   7.163  17.397  0.00  0.00    +0.000 N 
ATOM      9  C   UNL     1       2.697   8.042  18.120  0.00  0.00    +0.000 A 
ATOM     10  O   UNL     1       2.425   9.151  17.659  0.00  0.00    +0.000 OA
ATOM     11  H   UNL     1       3.770   7.440  16.468  0.00  0.00    +0.000 HD
ENDROOT
BRANCH   6  12
ATOM     12  C   UNL     1       5.244   4.788  16.213  0.00  0.00    +0.000 A 
ATOM     13  C   UNL     1       6.503   5.412  16.265  0.00  0.00    +0.000 A 
ATOM     14  C   UNL     1       7.349   5.374  15.156  0.00  0.00    +0.000 A 
ATOM     15  C   UNL     1       6.919   4.753  13.989  0.00  0.00    +0.000 A 
ATOM     16  F   UNL     1       7.725   4.728  12.920  0.00  0.00    +0.000 F 
ATOM     17  C   UNL     1       5.660   4.166  13.911  0.00  0.00    +0.000 A 
ATOM     18  C   UNL     1       4.818   4.175  15.025  0.00  0.00    +0.000 A 
ENDBRANCH   6  12
BRANCH   1  20
ATOM     19  N   UNL     1       0.607   9.452  19.767  0.00  0.00    +0.000 N 
ATOM     20  C   UNL     1       1.380   8.494  20.375  0.00  0.00    +0.000 C 
ATOM     21  O   UNL     1       1.471   8.351  21.597  0.00  0.00    +0.000 OA
ATOM     22  H   UNL     1       0.793   9.683  18.788  0.00  0.00    +0.000 HD
BRANCH  19  26
ATOM     23  C   UNL     1      -1.890  12.189  21.778  0.00  0.00    +0.000 A 
ATOM     24  C   UNL     1      -1.118  11.288  22.510  0.00  0.00    +0.000 A 
ATOM     25  C   UNL     1      -0.274  10.390  21.858  0.00  0.00    +0.000 A 
ATOM     26  C   UNL     1      -0.224  10.361  20.462  0.00  0.00    +0.000 A 
ATOM     27  C   UNL     1      -1.036  11.233  19.715  0.00  0.00    +0.000 A 
ATOM     28  C   UNL     1      -1.853  12.159  20.380  0.00  0.00    +0.000 A 
BRANCH  23  30
ATOM     29  C   UNL     1      -3.374  12.425  23.610  0.00  0.00    +0.000 C 
ATOM     30  O   UNL     1      -2.662  13.027  22.536  0.00  0.00    +0.000 OA
ENDBRANCH  23  30
BRANCH  27  31
ATOM     31  O   UNL     1      -0.896  11.141  18.351  0.00  0.00    +0.000 OA
ATOM     32  C   UNL     1      -1.969  10.557  17.627  0.00  0.00    +0.000 C 
ENDBRANCH  27  31
ENDBRANCH  19  26
ENDBRANCH   1  20
BRANCH   2  33
ATOM     33  O   UNL     1       2.116   5.827  21.129  0.00  0.00    +0.000 OA
ATOM     34  H   UNL     1       1.516   5.064  20.957  0.00  0.00    +0.000 HD
ENDBRANCH   2  33
TORSDOF 6
ENDMDL
MODEL 6
REMARK VINA RESULT:      -7.7      3.066      4.633
REMARK  Name = 
REMARK  8 active torsions:
REMARK  status: ('A' for Active; 'I' for Inactive)
REMARK    1  A    between atoms: C_1  and  O_2
REMARK    2  A    between atoms: O_2  and  C_3
REMARK    3  A    between atoms: C_6  and  N_7
REMARK    4  A    between atoms: C_8  and  C_10
REMARK    5  A    between atoms: C_11  and  O_12
REMARK    6  A    between atoms: N_16  and  C_17
REMARK    7  A    between atoms: C_28  and  O_29
REMARK    8  A    between atoms: O_29  and  C_30
REMARK                            x       y       z     vdW  Elec       q    Type
REMARK                         _______ _______ _______ _____ _____    ______ ____
ROOT
ATOM      1  C   UNL     1       2.273   7.097  19.592  0.00  0.00    +0.000 A 
ATOM      2  C   UNL     1       2.723   5.887  20.008  0.00  0.00    +0.000 A 
ATOM      3  C   UNL     1       3.536   5.089  19.170  0.00  0.00    +0.000 A 
ATOM      4  C   UNL     1       4.018   3.782  19.237  0.00  0.00    +0.000 A 
ATOM      5  N   UNL     1       4.684   3.443  18.126  0.00  0.00    +0.000 NA
ATOM      6  N   UNL     1       4.725   4.589  17.382  0.00  0.00    +0.000 N 
ATOM      7  C   UNL     1       3.939   5.572  17.958  0.00  0.00    +0.000 A 
ATOM      8  N   UNL     1       3.529   6.792  17.459  0.00  0.00    +0.000 N 
ATOM      9  C   UNL     1       2.669   7.573  18.210  0.00  0.00    +0.000 A 
ATOM     10  O   UNL     1       2.250   8.640  17.762  0.00  0.00    +0.000 OA
ATOM     11  H   UNL     1       3.748   7.100  16.521  0.00  0.00    +0.000 HD
ENDROOT
BRANCH   6  12
ATOM     12  C   UNL     1       5.521   4.645  16.209  0.00  0.00    +0.000 A 
ATOM     13  C   UNL     1       6.714   5.388  16.229  0.00  0.00    +0.000 A 
ATOM     14  C   UNL     1       7.519   5.449  15.090  0.00  0.00    +0.000 A 
ATOM     15  C   UNL     1       7.110   4.805  13.928  0.00  0.00    +0.000 A 
ATOM     16  F   UNL     1       7.875   4.874  12.831  0.00  0.00    +0.000 F 
ATOM     17  C   UNL     1       5.913   4.098  13.883  0.00  0.00    +0.000 A 
ATOM     18  C   UNL     1       5.114   4.009  15.026  0.00  0.00    +0.000 A 
ENDBRANCH   6  12
BRANCH   1  20
ATOM     19  N   UNL     1       1.376   9.233  20.365  0.00  0.00    +0.000 N 
ATOM     20  C   UNL     1       1.388   7.868  20.511  0.00  0.00    +0.000 C 
ATOM     21  O   UNL     1       0.755   7.260  21.378  0.00  0.00    +0.000 OA
ATOM     22  H   UNL     1       2.119   9.674  19.819  0.00  0.00    +0.000 HD
BRANCH  19  26
ATOM     23  C   UNL     1      -0.931  11.899  22.676  0.00  0.00    +0.000 A 
ATOM     24  C   UNL     1      -0.868  10.552  23.030  0.00  0.00    +0.000 A 
ATOM     25  C   UNL     1      -0.094   9.663  22.285  0.00  0.00    +0.000 A 
ATOM     26  C   UNL     1       0.595  10.110  21.154  0.00  0.00    +0.000 A 
ATOM     27  C   UNL     1       0.496  11.457  20.762  0.00  0.00    +0.000 A 
ATOM     28  C   UNL     1      -0.253  12.351  21.540  0.00  0.00    +0.000 A 
BRANCH  23  30
ATOM     29  C   UNL     1      -3.106  12.393  23.478  0.00  0.00    +0.000 C 
ATOM     30  O   UNL     1      -1.710  12.669  23.497  0.00  0.00    +0.000 OA
ENDBRANCH  23  30
BRANCH  27  31
ATOM     31  O   UNL     1       1.229  11.800  19.652  0.00  0.00    +0.000 OA
ATOM     32  C   UNL     1       0.648  12.736  18.756  0.00  0.00    +0.000 C 
ENDBRANCH  27  31
ENDBRANCH  19  26
ENDBRANCH   1  20
BRANCH   2  33
ATOM     33  O   UNL     1       2.465   5.311  21.235  0.00  0.00    +0.000 OA
ATOM     34  H   UNL     1       3.136   5.643  21.876  0.00  0.00    +0.000 HD
ENDBRANCH   2  33
TORSDOF 6
ENDMDL
MODEL 7
REMARK VINA RESULT:      -7.6      1.278      1.827
REMARK  Name = 
REMARK  8 active torsions:
REMARK  status: ('A' for Active; 'I' for Inactive)
REMARK    1  A    between atoms: C_1  and  O_2
REMARK    2  A    between atoms: O_2  and  C_3
REMARK    3  A    between atoms: C_6  and  N_7
REMARK    4  A    between atoms: C_8  and  C_10
REMARK    5  A    between atoms: C_11  and  O_12
REMARK    6  A    between atoms: N_16  and  C_17
REMARK    7  A    between atoms: C_28  and  O_29
REMARK    8  A    between atoms: O_29  and  C_30
REMARK                            x       y       z     vdW  Elec       q    Type
REMARK                         _______ _______ _______ _____ _____    ______ ____
ROOT
ATOM      1  C   UNL     1       0.423  10.683  21.110  0.00  0.00    +0.000 A 
ATOM      2  C   UNL     1       0.647  10.538  19.780  0.00  0.00    +0.000 A 
ATOM      3  C   UNL     1       1.288   9.383  19.275  0.00  0.00    +0.000 A 
ATOM      4  C   UNL     1       1.784   9.011  18.025  0.00  0.00    +0.000 A 
ATOM      5  N   UNL     1       2.406   7.827  18.072  0.00  0.00    +0.000 NA
ATOM      6  N   UNL     1       2.207   7.380  19.350  0.00  0.00    +0.000 N 
ATOM      7  C   UNL     1       1.617   8.366  20.123  0.00  0.00    +0.000 A 
ATOM      8  N   UNL     1       1.424   8.431  21.489  0.00  0.00    +0.000 N 
ATOM      9  C   UNL     1       0.873   9.574  22.038  0.00  0.00    +0.000 A 
ATOM     10  O   UNL     1       0.740   9.674  23.257  0.00  0.00    +0.000 OA
ATOM     11  H   UNL     1       1.762   7.719  22.122  0.00  0.00    +0.000 HD
ENDROOT
BRANCH   6  12
ATOM     12  C   UNL     1       2.578   6.058  19.704  0.00  0.00    +0.000 A 
ATOM     13  C   UNL     1       3.747   5.506  19.151  0.00  0.00    +0.000 A 
ATOM     14  C   UNL     1       4.138   4.211  19.492  0.00  0.00    +0.000 A 
ATOM     15  C   UNL     1       3.342   3.459  20.348  0.00  0.00    +0.000 A 
ATOM     16  F   UNL     1       3.710   2.211  20.665  0.00  0.00    +0.000 F 
ATOM     17  C   UNL     1       2.163   3.979  20.872  0.00  0.00    +0.000 A 
ATOM     18  C   UNL     1       1.777   5.285  20.558  0.00  0.00    +0.000 A 
ENDBRANCH   6  12
BRANCH   1  20
ATOM     19  N   UNL     1      -1.419  11.821  22.240  0.00  0.00    +0.000 N 
ATOM     20  C   UNL     1      -0.222  11.943  21.578  0.00  0.00    +0.000 C 
ATOM     21  O   UNL     1       0.314  13.022  21.311  0.00  0.00    +0.000 OA
ATOM     22  H   UNL     1      -1.923  10.933  22.181  0.00  0.00    +0.000 HD
BRANCH  19  26
ATOM     23  C   UNL     1      -3.671  15.075  23.694  0.00  0.00    +0.000 A 
ATOM     24  C   UNL     1      -2.564  14.624  24.410  0.00  0.00    +0.000 A 
ATOM     25  C   UNL     1      -1.800  13.561  23.931  0.00  0.00    +0.000 A 
ATOM     26  C   UNL     1      -2.161  12.914  22.746  0.00  0.00    +0.000 A 
ATOM     27  C   UNL     1      -3.305  13.331  22.044  0.00  0.00    +0.000 A 
ATOM     28  C   UNL     1      -4.045  14.426  22.513  0.00  0.00    +0.000 A 
BRANCH  23  30
ATOM     29  C   UNL     1      -3.537  17.000  25.070  0.00  0.00    +0.000 C 
ATOM     30  O   UNL     1      -4.326  16.134  24.262  0.00  0.00    +0.000 OA
ENDBRANCH  23  30
BRANCH  27  31
ATOM     31  O   UNL     1      -3.561  12.646  20.880  0.00  0.00    +0.000 OA
ATOM     32  C   UNL     1      -4.896  12.672  20.393  0.00  0.00    +0.000 C 
ENDBRANCH  27  31
ENDBRANCH  19  26
ENDBRANCH   1  20
BRANCH   2  33
ATOM     33  O   UNL     1       0.293  11.444  18.802  0.00  0.00    +0.000 OA
ATOM     34  H   UNL     1       1.106  11.930  18.527  0.00  0.00    +0.000 HD
ENDBRANCH   2  33
TORSDOF 6
ENDMDL
MODEL 8
REMARK VINA RESULT:      -7.6      2.594      3.733
REMARK  Name = 
REMARK  8 active torsions:
REMARK  status: ('A' for Active; 'I' for Inactive)
REMARK    1  A    between atoms: C_1  and  O_2
REMARK    2  A    between atoms: O_2  and  C_3
REMARK    3  A    between atoms: C_6  and  N_7
REMARK    4  A    between atoms: C_8  and  C_10
REMARK    5  A    between atoms: C_11  and  O_12
REMARK    6  A    between atoms: N_16  and  C_17
REMARK    7  A    between atoms: C_28  and  O_29
REMARK    8  A    between atoms: O_29  and  C_30
REMARK                            x       y       z     vdW  Elec       q    Type
REMARK                         _______ _______ _______ _____ _____    ______ ____
ROOT
ATOM      1  C   UNL     1       1.565   8.637  19.440  0.00  0.00    +0.000 A 
ATOM      2  C   UNL     1       1.845   7.520  20.158  0.00  0.00    +0.000 A 
ATOM      3  C   UNL     1       2.680   6.509  19.628  0.00  0.00    +0.000 A 
ATOM      4  C   UNL     1       3.027   5.220  20.033  0.00  0.00    +0.000 A 
ATOM      5  N   UNL     1       3.792   4.605  19.124  0.00  0.00    +0.000 NA
ATOM      6  N   UNL     1       4.033   5.557  18.171  0.00  0.00    +0.000 N 
ATOM      7  C   UNL     1       3.275   6.690  18.413  0.00  0.00    +0.000 A 
ATOM      8  N   UNL     1       3.045   7.795  17.619  0.00  0.00    +0.000 N 
ATOM      9  C   UNL     1       2.174   8.774  18.061  0.00  0.00    +0.000 A 
ATOM     10  O   UNL     1       1.914   9.741  17.346  0.00  0.00    +0.000 OA
ATOM     11  H   UNL     1       3.408   7.876  16.678  0.00  0.00    +0.000 HD
ENDROOT
BRANCH   6  12
ATOM     12  C   UNL     1       4.971   5.304  17.138  0.00  0.00    +0.000 A 
ATOM     13  C   UNL     1       6.170   6.039  17.111  0.00  0.00    +0.000 A 
ATOM     14  C   UNL     1       7.113   5.801  16.110  0.00  0.00    +0.000 A 
ATOM     15  C   UNL     1       6.839   4.864  15.120  0.00  0.00    +0.000 A 
ATOM     16  F   UNL     1       7.738   4.645  14.152  0.00  0.00    +0.000 F 
ATOM     17  C   UNL     1       5.640   4.159  15.113  0.00  0.00    +0.000 A 
ATOM     18  C   UNL     1       4.701   4.371  16.127  0.00  0.00    +0.000 A 
ENDBRANCH   6  12
BRANCH   1  20
ATOM     19  N   UNL     1       0.818  10.952  19.661  0.00  0.00    +0.000 N 
ATOM     20  C   UNL     1       0.646   9.644  20.044  0.00  0.00    +0.000 C 
ATOM     21  O   UNL     1      -0.180   9.271  20.881  0.00  0.00    +0.000 OA
ATOM     22  H   UNL     1       1.684  11.212  19.183  0.00  0.00    +0.000 HD
BRANCH  19  26
ATOM     23  C   UNL     1      -1.464  14.182  21.120  0.00  0.00    +0.000 A 
ATOM     24  C   UNL     1      -2.053  13.245  20.272  0.00  0.00    +0.000 A 
ATOM     25  C   UNL     1      -1.315  12.162  19.798  0.00  0.00    +0.000 A 
ATOM     26  C   UNL     1       0.034  12.028  20.138  0.00  0.00    +0.000 A 
ATOM     27  C   UNL     1       0.648  12.996  20.952  0.00  0.00    +0.000 A 
ATOM     28  C   UNL     1      -0.112  14.061  21.457  0.00  0.00    +0.000 A 
BRANCH  23  30
ATOM     29  C   UNL     1      -3.683  15.003  21.254  0.00  0.00    +0.000 C 
ATOM     30  O   UNL     1      -2.299  15.187  21.528  0.00  0.00    +0.000 OA
ENDBRANCH  23  30
BRANCH  27  31
ATOM     31  O   UNL     1       1.969  12.761  21.248  0.00  0.00    +0.000 OA
ATOM     32  C   UNL     1       2.907  13.754  20.857  0.00  0.00    +0.000 C 
ENDBRANCH  27  31
ENDBRANCH  19  26
ENDBRANCH   1  20
BRANCH   2  33
ATOM     33  O   UNL     1       1.383   7.243  21.428  0.00  0.00    +0.000 OA
ATOM     34  H   UNL     1       1.189   8.099  21.877  0.00  0.00    +0.000 HD
ENDBRANCH   2  33
TORSDOF 6
ENDMDL
MODEL 9
REMARK VINA RESULT:      -7.6      3.035      4.580
REMARK  Name = 
REMARK  8 active torsions:
REMARK  status: ('A' for Active; 'I' for Inactive)
REMARK    1  A    between atoms: C_1  and  O_2
REMARK    2  A    between atoms: O_2  and  C_3
REMARK    3  A    between atoms: C_6  and  N_7
REMARK    4  A    between atoms: C_8  and  C_10
REMARK    5  A    between atoms: C_11  and  O_12
REMARK    6  A    between atoms: N_16  and  C_17
REMARK    7  A    between atoms: C_28  and  O_29
REMARK    8  A    between atoms: O_29  and  C_30
REMARK                            x       y       z     vdW  Elec       q    Type
REMARK                         _______ _______ _______ _____ _____    ______ ____
ROOT
ATOM      1  C   UNL     1       2.235   7.201  19.592  0.00  0.00    +0.000 A 
ATOM      2  C   UNL     1       2.709   6.008  20.029  0.00  0.00    +0.000 A 
ATOM      3  C   UNL     1       3.543   5.214  19.207  0.00  0.00    +0.000 A 
ATOM      4  C   UNL     1       4.052   3.919  19.298  0.00  0.00    +0.000 A 
ATOM      5  N   UNL     1       4.729   3.575  18.195  0.00  0.00    +0.000 NA
ATOM      6  N   UNL     1       4.748   4.710  17.431  0.00  0.00    +0.000 N 
ATOM      7  C   UNL     1       3.939   5.685  17.989  0.00  0.00    +0.000 A 
ATOM      8  N   UNL     1       3.505   6.888  17.469  0.00  0.00    +0.000 N 
ATOM      9  C   UNL     1       2.625   7.662  18.204  0.00  0.00    +0.000 A 
ATOM     10  O   UNL     1       2.185   8.712  17.737  0.00  0.00    +0.000 OA
ATOM     11  H   UNL     1       3.720   7.184  16.526  0.00  0.00    +0.000 HD
ENDROOT
BRANCH   6  12
ATOM     12  C   UNL     1       5.546   4.763  16.260  0.00  0.00    +0.000 A 
ATOM     13  C   UNL     1       5.131   4.054  15.120  0.00  0.00    +0.000 A 
ATOM     14  C   UNL     1       5.895   4.098  13.952  0.00  0.00    +0.000 A 
ATOM     15  C   UNL     1       7.086   4.815  13.941  0.00  0.00    +0.000 A 
ATOM     16  F   UNL     1       7.826   4.847  12.825  0.00  0.00    +0.000 F 
ATOM     17  C   UNL     1       7.528   5.489  15.074  0.00  0.00    +0.000 A 
ATOM     18  C   UNL     1       6.756   5.472  16.239  0.00  0.00    +0.000 A 
ENDBRANCH   6  12
BRANCH   1  20
ATOM     19  N   UNL     1       1.372   9.337  20.403  0.00  0.00    +0.000 N 
ATOM     20  C   UNL     1       1.330   7.967  20.495  0.00  0.00    +0.000 C 
ATOM     21  O   UNL     1       0.633   7.350  21.305  0.00  0.00    +0.000 OA
ATOM     22  H   UNL     1       2.158   9.771  19.914  0.00  0.00    +0.000 HD
BRANCH  19  26
ATOM     23  C   UNL     1      -0.968  11.992  22.694  0.00  0.00    +0.000 A 
ATOM     24  C   UNL     1      -0.807  10.673  23.113  0.00  0.00    +0.000 A 
ATOM     25  C   UNL     1      -0.020   9.789  22.375  0.00  0.00    +0.000 A 
ATOM     26  C   UNL     1       0.582  10.210  21.186  0.00  0.00    +0.000 A 
ATOM     27  C   UNL     1       0.384  11.526  20.731  0.00  0.00    +0.000 A 
ATOM     28  C   UNL     1      -0.377  12.418  21.500  0.00  0.00    +0.000 A 
BRANCH  23  30
ATOM     29  C   UNL     1      -1.375  14.128  23.638  0.00  0.00    +0.000 C 
ATOM     30  O   UNL     1      -1.748  12.761  23.514  0.00  0.00    +0.000 OA
ENDBRANCH  23  30
BRANCH  27  31
ATOM     31  O   UNL     1       1.037  11.847  19.566  0.00  0.00    +0.000 OA
ATOM     32  C   UNL     1       2.000  12.890  19.630  0.00  0.00    +0.000 C 
ENDBRANCH  27  31
ENDBRANCH  19  26
ENDBRANCH   1  20
BRANCH   2  33
ATOM     33  O   UNL     1       2.460   5.447  21.265  0.00  0.00    +0.000 OA
ATOM     34  H   UNL     1       2.275   4.488  21.134  0.00  0.00    +0.000 HD
ENDBRANCH   2  33
TORSDOF 6
ENDMDL
