MODEL 1
REMARK VINA RESULT:      -7.0      0.000      0.000
REMARK  Name = 
REMARK  6 active torsions:
REMARK  status: ('A' for Active; 'I' for Inactive)
REMARK    1  A    between atoms: C_1  and  C_2
REMARK    2  A    between atoms: C_4  and  C_5
REMARK    3  A    between atoms: N_7  and  C_8
REMARK    4  A    between atoms: C_11  and  O_12
REMARK    5  A    between atoms: O_12  and  C_13
REMARK    6  A    between atoms: C_13  and  C_14
REMARK                            x       y       z     vdW  Elec       q    Type
REMARK                         _______ _______ _______ _____ _____    ______ ____
ROOT
ATOM      1  C   UNL     1       3.385   6.356  18.105  0.00  0.00    +0.000 A 
ATOM      2  C   UNL     1       3.078   5.568  19.216  0.00  0.00    +0.000 A 
ATOM      3  C   UNL     1       2.266   6.065  20.239  0.00  0.00    +0.000 A 
ATOM      4  C   UNL     1       1.761   7.361  20.180  0.00  0.00    +0.000 A 
ATOM      5  C   UNL     1       2.067   8.159  19.078  0.00  0.00    +0.000 A 
ATOM      6  C   UNL     1       2.885   7.663  18.051  0.00  0.00    +0.000 A 
ENDROOT
BRANCH   1   9
ATOM      7  C   UNL     1       5.563   5.908  16.963  0.00  0.00    +0.000 C 
ATOM      8  O   UNL     1       6.304   6.265  17.874  0.00  0.00    +0.000 OA
ATOM      9  N   UNL     1       4.177   5.902  17.028  0.00  0.00    +0.000 N 
ATOM     10  H   UNL     1       3.694   5.459  16.254  0.00  0.00    +0.000 HD
BRANCH   7  14
ATOM     11  C   UNL     1       6.529   3.660  12.541  0.00  0.00    +0.000 C 
ATOM     12  C   UNL     1       6.572   4.444  13.796  0.00  0.00    +0.000 A 
ATOM     13  C   UNL     1       5.570   4.563  14.781  0.00  0.00    +0.000 A 
ATOM     14  C   UNL     1       6.109   5.409  15.723  0.00  0.00    +0.000 A 
ATOM     15  O   UNL     1       7.360   5.769  15.326  0.00  0.00    +0.000 OA
ATOM     16  N   UNL     1       7.655   5.163  14.115  0.00  0.00    +0.000 NA
ENDBRANCH   7  14
ENDBRANCH   1   9
BRANCH   4  17
ATOM     17  O   UNL     1       0.949   7.716  21.221  0.00  0.00    +0.000 OA
BRANCH  17  18
ATOM     18  C   UNL     1       1.244   8.971  21.829  0.00  0.00    +0.000 C 
BRANCH  18  19
ATOM     19  C   UNL     1      -0.032   9.730  22.193  0.00  0.00    +0.000 C 
ATOM     20  N   UNL     1      -0.535   9.503  23.440  0.00  0.00    +0.000 N 
ATOM     21  O   UNL     1      -0.595  10.496  21.416  0.00  0.00    +0.000 OA
ATOM     22  H   UNL     1      -0.079   8.858  24.075  0.00  0.00    +0.000 HD
ATOM     23  H   UNL     1      -1.386   9.972  23.719  0.00  0.00    +0.000 HD
ENDBRANCH  18  19
ENDBRANCH  17  18
ENDBRANCH   4  17
TORSDOF 5
ENDMDL
MODEL 2
REMARK VINA RESULT:      -6.9      0.821      1.351
REMARK  Name = 
REMARK  6 active torsions:
REMARK  status: ('A' for Active; 'I' for Inactive)
REMARK    1  A    between atoms: C_1  and  C_2
REMARK    2  A    between atoms: C_4  and  C_5
REMARK    3  A    between atoms: N_7  and  C_8
REMARK    4  A    between atoms: C_11  and  O_12
REMARK    5  A    between atoms: O_12  and  C_13
REMARK    6  A    between atoms: C_13  and  C_14
REMARK                            x       y       z     vdW  Elec       q    Type
REMARK                         _______ _______ _______ _____ _____    ______ ____
ROOT
ATOM      1  C   UNL     1       3.200   6.512  18.298  0.00  0.00    +0.000 A 
ATOM      2  C   UNL     1       2.694   7.811  18.352  0.00  0.00    +0.000 A 
ATOM      3  C   UNL     1       1.907   8.225  19.430  0.00  0.00    +0.000 A 
ATOM      4  C   UNL     1       1.598   7.345  20.463  0.00  0.00    +0.000 A 
ATOM      5  C   UNL     1       2.094   6.043  20.417  0.00  0.00    +0.000 A 
ATOM      6  C   UNL     1       2.882   5.624  19.333  0.00  0.00    +0.000 A 
ENDROOT
BRANCH   1   9
ATOM      7  C   UNL     1       5.409   5.992  17.249  0.00  0.00    +0.000 C 
ATOM      8  O   UNL     1       6.121   6.302  18.200  0.00  0.00    +0.000 OA
ATOM      9  N   UNL     1       4.022   6.043  17.250  0.00  0.00    +0.000 N 
ATOM     10  H   UNL     1       3.558   5.635  16.446  0.00  0.00    +0.000 HD
BRANCH   7  14
ATOM     11  C   UNL     1       6.500   3.750  12.853  0.00  0.00    +0.000 C 
ATOM     12  C   UNL     1       6.509   4.528  14.112  0.00  0.00    +0.000 A 
ATOM     13  C   UNL     1       5.476   4.655  15.062  0.00  0.00    +0.000 A 
ATOM     14  C   UNL     1       5.991   5.491  16.026  0.00  0.00    +0.000 A 
ATOM     15  O   UNL     1       7.260   5.839  15.674  0.00  0.00    +0.000 OA
ATOM     16  N   UNL     1       7.589   5.234  14.471  0.00  0.00    +0.000 NA
ENDBRANCH   7  14
ENDBRANCH   1   9
BRANCH   4  17
ATOM     17  O   UNL     1       0.855   7.879  21.479  0.00  0.00    +0.000 OA
BRANCH  17  18
ATOM     18  C   UNL     1       0.174   9.093  21.168  0.00  0.00    +0.000 C 
BRANCH  18  19
ATOM     19  C   UNL     1      -0.038   9.950  22.416  0.00  0.00    +0.000 C 
ATOM     20  N   UNL     1      -0.829  11.051  22.266  0.00  0.00    +0.000 N 
ATOM     21  O   UNL     1       0.476   9.687  23.499  0.00  0.00    +0.000 OA
ATOM     22  H   UNL     1      -1.239  11.277  21.368  0.00  0.00    +0.000 HD
ATOM     23  H   UNL     1      -0.986  11.655  23.061  0.00  0.00    +0.000 HD
ENDBRANCH  18  19
ENDBRANCH  17  18
ENDBRANCH   4  17
TORSDOF 5
ENDMDL
MODEL 3
REMARK VINA RESULT:      -6.9      1.778      8.693
REMARK  Name = 
REMARK  6 active torsions:
REMARK  status: ('A' for Active; 'I' for Inactive)
REMARK    1  A    between atoms: C_1  and  C_2
REMARK    2  A    between atoms: C_4  and  C_5
REMARK    3  A    between atoms: N_7  and  C_8
REMARK    4  A    between atoms: C_11  and  O_12
REMARK    5  A    between atoms: O_12  and  C_13
REMARK    6  A    between atoms: C_13  and  C_14
REMARK                            x       y       z     vdW  Elec       q    Type
REMARK                         _______ _______ _______ _____ _____    ______ ____
ROOT
ATOM      1  C   UNL     1       2.820   6.554  19.115  0.00  0.00    +0.000 A 
ATOM      2  C   UNL     1       3.673   7.081  18.144  0.00  0.00    +0.000 A 
ATOM      3  C   UNL     1       4.298   6.246  17.215  0.00  0.00    +0.000 A 
ATOM      4  C   UNL     1       4.097   4.869  17.249  0.00  0.00    +0.000 A 
ATOM      5  C   UNL     1       3.252   4.330  18.217  0.00  0.00    +0.000 A 
ATOM      6  C   UNL     1       2.625   5.167  19.154  0.00  0.00    +0.000 A 
ENDROOT
BRANCH   1   9
ATOM      7  C   UNL     1       1.459   8.531  19.811  0.00  0.00    +0.000 C 
ATOM      8  O   UNL     1       1.308   9.028  18.699  0.00  0.00    +0.000 OA
ATOM      9  N   UNL     1       2.139   7.347  20.062  0.00  0.00    +0.000 N 
ATOM     10  H   UNL     1       2.074   6.986  21.008  0.00  0.00    +0.000 HD
BRANCH   7  14
ATOM     11  C   UNL     1      -1.317  11.046  23.204  0.00  0.00    +0.000 C 
ATOM     12  C   UNL     1      -0.302  10.238  22.490  0.00  0.00    +0.000 A 
ATOM     13  C   UNL     1      -0.247   9.931  21.116  0.00  0.00    +0.000 A 
ATOM     14  C   UNL     1       0.877   9.150  20.979  0.00  0.00    +0.000 A 
ATOM     15  O   UNL     1       1.462   9.003  22.200  0.00  0.00    +0.000 OA
ATOM     16  N   UNL     1       0.723   9.688  23.152  0.00  0.00    +0.000 NA
ENDBRANCH   7  14
ENDBRANCH   1   9
BRANCH   4  17
ATOM     17  O   UNL     1       4.732   4.165  16.264  0.00  0.00    +0.000 OA
BRANCH  17  18
ATOM     18  C   UNL     1       6.157   4.208  16.299  0.00  0.00    +0.000 C 
BRANCH  18  19
ATOM     19  C   UNL     1       6.744   4.445  14.908  0.00  0.00    +0.000 C 
ATOM     20  N   UNL     1       6.310   3.612  13.919  0.00  0.00    +0.000 N 
ATOM     21  O   UNL     1       7.571   5.322  14.675  0.00  0.00    +0.000 OA
ATOM     22  H   UNL     1       5.640   2.878  14.115  0.00  0.00    +0.000 HD
ATOM     23  H   UNL     1       6.682   3.722  12.986  0.00  0.00    +0.000 HD
ENDBRANCH  18  19
ENDBRANCH  17  18
ENDBRANCH   4  17
TORSDOF 5
ENDMDL
MODEL 4
REMARK VINA RESULT:      -6.8      1.777      8.578
REMARK  Name = 
REMARK  6 active torsions:
REMARK  status: ('A' for Active; 'I' for Inactive)
REMARK    1  A    between atoms: C_1  and  C_2
REMARK    2  A    between atoms: C_4  and  C_5
REMARK    3  A    between atoms: N_7  and  C_8
REMARK    4  A    between atoms: C_11  and  O_12
REMARK    5  A    between atoms: O_12  and  C_13
REMARK    6  A    between atoms: C_13  and  C_14
REMARK                            x       y       z     vdW  Elec       q    Type
REMARK                         _______ _______ _______ _____ _____    ______ ____
ROOT
ATOM      1  C   UNL     1       2.825   6.665  19.027  0.00  0.00    +0.000 A 
ATOM      2  C   UNL     1       2.630   5.292  18.875  0.00  0.00    +0.000 A 
ATOM      3  C   UNL     1       3.355   4.570  17.923  0.00  0.00    +0.000 A 
ATOM      4  C   UNL     1       4.276   5.209  17.097  0.00  0.00    +0.000 A 
ATOM      5  C   UNL     1       4.474   6.582  17.237  0.00  0.00    +0.000 A 
ATOM      6  C   UNL     1       3.744   7.309  18.189  0.00  0.00    +0.000 A 
ENDROOT
BRANCH   1   9
ATOM      7  C   UNL     1       1.422   8.604  19.747  0.00  0.00    +0.000 C 
ATOM      8  O   UNL     1       1.231   9.092  18.637  0.00  0.00    +0.000 OA
ATOM      9  N   UNL     1       2.143   7.443  19.987  0.00  0.00    +0.000 N 
ATOM     10  H   UNL     1       2.111   7.084  20.935  0.00  0.00    +0.000 HD
BRANCH   7  14
ATOM     11  C   UNL     1      -1.306  11.117  23.181  0.00  0.00    +0.000 C 
ATOM     12  C   UNL     1      -0.310  10.297  22.454  0.00  0.00    +0.000 A 
ATOM     13  C   UNL     1      -0.253  10.022  21.073  0.00  0.00    +0.000 A 
ATOM     14  C   UNL     1       0.850   9.212  20.926  0.00  0.00    +0.000 A 
ATOM     15  O   UNL     1       1.420   9.018  22.147  0.00  0.00    +0.000 OA
ATOM     16  N   UNL     1       0.694   9.701  23.110  0.00  0.00    +0.000 NA
ENDBRANCH   7  14
ENDBRANCH   1   9
BRANCH   4  17
ATOM     17  O   UNL     1       4.950   4.389  16.235  0.00  0.00    +0.000 OA
BRANCH  17  18
ATOM     18  C   UNL     1       5.516   5.030  15.094  0.00  0.00    +0.000 C 
BRANCH  18  19
ATOM     19  C   UNL     1       7.044   4.981  15.126  0.00  0.00    +0.000 C 
ATOM     20  N   UNL     1       7.607   4.408  16.227  0.00  0.00    +0.000 N 
ATOM     21  O   UNL     1       7.743   5.438  14.226  0.00  0.00    +0.000 OA
ATOM     22  H   UNL     1       7.030   4.046  16.977  0.00  0.00    +0.000 HD
ATOM     23  H   UNL     1       8.614   4.366  16.298  0.00  0.00    +0.000 HD
ENDBRANCH  18  19
ENDBRANCH  17  18
ENDBRANCH   4  17
TORSDOF 5
ENDMDL
MODEL 5
REMARK VINA RESULT:      -6.7      2.063      8.483
REMARK  Name = 
REMARK  6 active torsions:
REMARK  status: ('A' for Active; 'I' for Inactive)
REMARK    1  A    between atoms: C_1  and  C_2
REMARK    2  A    between atoms: C_4  and  C_5
REMARK    3  A    between atoms: N_7  and  C_8
REMARK    4  A    between atoms: C_11  and  O_12
REMARK    5  A    between atoms: O_12  and  C_13
REMARK    6  A    between atoms: C_13  and  C_14
REMARK                            x       y       z     vdW  Elec       q    Type
REMARK                         _______ _______ _______ _____ _____    ______ ____
ROOT
ATOM      1  C   UNL     1       2.938   6.727  18.346  0.00  0.00    +0.000 A 
ATOM      2  C   UNL     1       2.491   5.421  18.138  0.00  0.00    +0.000 A 
ATOM      3  C   UNL     1       3.254   4.517  17.395  0.00  0.00    +0.000 A 
ATOM      4  C   UNL     1       4.467   4.904  16.833  0.00  0.00    +0.000 A 
ATOM      5  C   UNL     1       4.921   6.208  17.030  0.00  0.00    +0.000 A 
ATOM      6  C   UNL     1       4.154   7.119  17.773  0.00  0.00    +0.000 A 
ENDROOT
BRANCH   1   9
ATOM      7  C   UNL     1       1.667   8.858  18.643  0.00  0.00    +0.000 C 
ATOM      8  O   UNL     1       1.669   9.217  17.468  0.00  0.00    +0.000 OA
ATOM      9  N   UNL     1       2.226   7.677  19.109  0.00  0.00    +0.000 N 
ATOM     10  H   UNL     1       2.037   7.445  20.078  0.00  0.00    +0.000 HD
BRANCH   7  14
ATOM     11  C   UNL     1      -0.742  10.714  22.679  0.00  0.00    +0.000 C 
ATOM     12  C   UNL     1      -0.033  10.508  21.396  0.00  0.00    +0.000 A 
ATOM     13  C   UNL     1       0.422   9.295  20.841  0.00  0.00    +0.000 A 
ATOM     14  C   UNL     1       1.018   9.658  19.655  0.00  0.00    +0.000 A 
ATOM     15  O   UNL     1       0.920  11.008  19.508  0.00  0.00    +0.000 OA
ATOM     16  N   UNL     1       0.258  11.545  20.602  0.00  0.00    +0.000 NA
ENDBRANCH   7  14
ENDBRANCH   1   9
BRANCH   4  17
ATOM     17  O   UNL     1       5.139   3.919  16.163  0.00  0.00    +0.000 OA
BRANCH  17  18
ATOM     18  C   UNL     1       6.532   4.150  15.967  0.00  0.00    +0.000 C 
BRANCH  18  19
ATOM     19  C   UNL     1       6.850   4.437  14.499  0.00  0.00    +0.000 C 
ATOM     20  N   UNL     1       6.302   3.587  13.585  0.00  0.00    +0.000 N 
ATOM     21  O   UNL     1       7.567   5.368  14.144  0.00  0.00    +0.000 OA
ATOM     22  H   UNL     1       5.724   2.809  13.880  0.00  0.00    +0.000 HD
ATOM     23  H   UNL     1       6.496   3.730  12.603  0.00  0.00    +0.000 HD
ENDBRANCH  18  19
ENDBRANCH  17  18
ENDBRANCH   4  17
TORSDOF 5
ENDMDL
MODEL 6
REMARK VINA RESULT:      -6.7      2.007      8.560
REMARK  Name = 
REMARK  6 active torsions:
REMARK  status: ('A' for Active; 'I' for Inactive)
REMARK    1  A    between atoms: C_1  and  C_2
REMARK    2  A    between atoms: C_4  and  C_5
REMARK    3  A    between atoms: N_7  and  C_8
REMARK    4  A    between atoms: C_11  and  O_12
REMARK    5  A    between atoms: O_12  and  C_13
REMARK    6  A    between atoms: C_13  and  C_14
REMARK                            x       y       z     vdW  Elec       q    Type
REMARK                         _______ _______ _______ _____ _____    ______ ____
ROOT
ATOM      1  C   UNL     1       3.075   6.628  18.234  0.00  0.00    +0.000 A 
ATOM      2  C   UNL     1       4.256   7.012  17.595  0.00  0.00    +0.000 A 
ATOM      3  C   UNL     1       4.988   6.093  16.838  0.00  0.00    +0.000 A 
ATOM      4  C   UNL     1       4.564   4.773  16.720  0.00  0.00    +0.000 A 
ATOM      5  C   UNL     1       3.390   4.377  17.358  0.00  0.00    +0.000 A 
ATOM      6  C   UNL     1       2.655   5.297  18.122  0.00  0.00    +0.000 A 
ENDROOT
BRANCH   1   9
ATOM      7  C   UNL     1       1.781   8.740  18.568  0.00  0.00    +0.000 C 
ATOM      8  O   UNL     1       1.923   9.201  17.439  0.00  0.00    +0.000 OA
ATOM      9  N   UNL     1       2.279   7.515  18.989  0.00  0.00    +0.000 N 
ATOM     10  H   UNL     1       1.976   7.200  19.905  0.00  0.00    +0.000 HD
BRANCH   7  14
ATOM     11  C   UNL     1      -0.530  10.475  22.714  0.00  0.00    +0.000 C 
ATOM     12  C   UNL     1      -0.012  10.241  21.347  0.00  0.00    +0.000 A 
ATOM     13  C   UNL     1       0.830   9.201  20.903  0.00  0.00    +0.000 A 
ATOM     14  C   UNL     1       1.017   9.454  19.564  0.00  0.00    +0.000 A 
ATOM     15  O   UNL     1       0.324  10.576  19.226  0.00  0.00    +0.000 OA
ATOM     16  N   UNL     1      -0.325  11.074  20.346  0.00  0.00    +0.000 NA
ENDBRANCH   7  14
ENDBRANCH   1   9
BRANCH   4  17
ATOM     17  O   UNL     1       5.343   3.982  15.922  0.00  0.00    +0.000 OA
BRANCH  17  18
ATOM     18  C   UNL     1       6.630   4.508  15.606  0.00  0.00    +0.000 C 
BRANCH  18  19
ATOM     19  C   UNL     1       6.879   4.508  14.097  0.00  0.00    +0.000 C 
ATOM     20  N   UNL     1       6.311   3.489  13.391  0.00  0.00    +0.000 N 
ATOM     21  O   UNL     1       7.561   5.361  13.535  0.00  0.00    +0.000 OA
ATOM     22  H   UNL     1       5.762   2.777  13.857  0.00  0.00    +0.000 HD
ATOM     23  H   UNL     1       6.460   3.441  12.392  0.00  0.00    +0.000 HD
ENDBRANCH  18  19
ENDBRANCH  17  18
ENDBRANCH   4  17
TORSDOF 5
ENDMDL
MODEL 7
REMARK VINA RESULT:      -6.6      2.222      8.612
REMARK  Name = 
REMARK  6 active torsions:
REMARK  status: ('A' for Active; 'I' for Inactive)
REMARK    1  A    between atoms: C_1  and  C_2
REMARK    2  A    between atoms: C_4  and  C_5
REMARK    3  A    between atoms: N_7  and  C_8
REMARK    4  A    between atoms: C_11  and  O_12
REMARK    5  A    between atoms: O_12  and  C_13
REMARK    6  A    between atoms: C_13  and  C_14
REMARK                            x       y       z     vdW  Elec       q    Type
REMARK                         _______ _______ _______ _____ _____    ______ ____
ROOT
ATOM      1  C   UNL     1       3.656   5.931  17.755  0.00  0.00    +0.000 A 
ATOM      2  C   UNL     1       4.644   6.455  16.921  0.00  0.00    +0.000 A 
ATOM      3  C   UNL     1       5.379   5.621  16.074  0.00  0.00    +0.000 A 
ATOM      4  C   UNL     1       5.151   4.248  16.057  0.00  0.00    +0.000 A 
ATOM      5  C   UNL     1       4.171   3.712  16.891  0.00  0.00    +0.000 A 
ATOM      6  C   UNL     1       3.434   4.548  17.745  0.00  0.00    +0.000 A 
ENDROOT
BRANCH   1   9
ATOM      7  C   UNL     1       2.356   7.985  18.333  0.00  0.00    +0.000 C 
ATOM      8  O   UNL     1       2.485   8.570  17.261  0.00  0.00    +0.000 OA
ATOM      9  N   UNL     1       2.863   6.724  18.612  0.00  0.00    +0.000 N 
ATOM     10  H   UNL     1       2.571   6.308  19.489  0.00  0.00    +0.000 HD
BRANCH   7  14
ATOM     11  C   UNL     1       0.115   9.263  22.679  0.00  0.00    +0.000 C 
ATOM     12  C   UNL     1       0.599   9.170  21.283  0.00  0.00    +0.000 A 
ATOM     13  C   UNL     1       1.462   8.205  20.726  0.00  0.00    +0.000 A 
ATOM     14  C   UNL     1       1.599   8.580  19.409  0.00  0.00    +0.000 A 
ATOM     15  O   UNL     1       0.857   9.702  19.192  0.00  0.00    +0.000 OA
ATOM     16  N   UNL     1       0.226  10.074  20.369  0.00  0.00    +0.000 NA
ENDBRANCH   7  14
ENDBRANCH   1   9
BRANCH   4  17
ATOM     17  O   UNL     1       5.906   3.545  15.159  0.00  0.00    +0.000 OA
BRANCH  17  18
ATOM     18  C   UNL     1       6.277   4.256  13.980  0.00  0.00    +0.000 C 
BRANCH  18  19
ATOM     19  C   UNL     1       5.841   3.512  12.718  0.00  0.00    +0.000 C 
ATOM     20  N   UNL     1       6.806   2.796  12.074  0.00  0.00    +0.000 N 
ATOM     21  O   UNL     1       4.693   3.555  12.283  0.00  0.00    +0.000 OA
ATOM     22  H   UNL     1       7.757   2.774  12.424  0.00  0.00    +0.000 HD
ATOM     23  H   UNL     1       6.567   2.299  11.227  0.00  0.00    +0.000 HD
ENDBRANCH  18  19
ENDBRANCH  17  18
ENDBRANCH   4  17
TORSDOF 5
ENDMDL
MODEL 8
REMARK VINA RESULT:      -6.4      3.328      8.936
REMARK  Name = 
REMARK  6 active torsions:
REMARK  status: ('A' for Active; 'I' for Inactive)
REMARK    1  A    between atoms: C_1  and  C_2
REMARK    2  A    between atoms: C_4  and  C_5
REMARK    3  A    between atoms: N_7  and  C_8
REMARK    4  A    between atoms: C_11  and  O_12
REMARK    5  A    between atoms: O_12  and  C_13
REMARK    6  A    between atoms: C_13  and  C_14
REMARK                            x       y       z     vdW  Elec       q    Type
REMARK                         _______ _______ _______ _____ _____    ______ ____
ROOT
ATOM      1  C   UNL     1       1.497   8.390  19.856  0.00  0.00    +0.000 A 
ATOM      2  C   UNL     1       1.800   7.147  20.414  0.00  0.00    +0.000 A 
ATOM      3  C   UNL     1       2.596   6.230  19.722  0.00  0.00    +0.000 A 
ATOM      4  C   UNL     1       3.089   6.531  18.455  0.00  0.00    +0.000 A 
ATOM      5  C   UNL     1       2.787   7.767  17.886  0.00  0.00    +0.000 A 
ATOM      6  C   UNL     1       1.985   8.688  18.578  0.00  0.00    +0.000 A 
ENDROOT
BRANCH   1   9
ATOM      7  C   UNL     1       0.878   9.798  21.826  0.00  0.00    +0.000 C 
ATOM      8  O   UNL     1       1.765   9.420  22.585  0.00  0.00    +0.000 OA
ATOM      9  N   UNL     1       0.722   9.368  20.516  0.00  0.00    +0.000 N 
ATOM     10  H   UNL     1       0.028   9.859  19.963  0.00  0.00    +0.000 HD
BRANCH   7  14
ATOM     11  C   UNL     1      -3.001  12.435  23.710  0.00  0.00    +0.000 C 
ATOM     12  C   UNL     1      -1.754  11.980  23.053  0.00  0.00    +0.000 A 
ATOM     13  C   UNL     1      -1.270  10.662  22.928  0.00  0.00    +0.000 A 
ATOM     14  C   UNL     1      -0.079  10.793  22.250  0.00  0.00    +0.000 A 
ATOM     15  O   UNL     1       0.131  12.111  21.982  0.00  0.00    +0.000 OA
ATOM     16  N   UNL     1      -0.921  12.860  22.484  0.00  0.00    +0.000 NA
ENDBRANCH   7  14
ENDBRANCH   1   9
BRANCH   4  17
ATOM     17  O   UNL     1       3.886   5.570  17.899  0.00  0.00    +0.000 OA
BRANCH  17  18
ATOM     18  C   UNL     1       3.698   4.249  18.402  0.00  0.00    +0.000 C 
BRANCH  18  19
ATOM     19  C   UNL     1       4.979   3.703  19.032  0.00  0.00    +0.000 C 
ATOM     20  N   UNL     1       4.885   2.481  19.629  0.00  0.00    +0.000 N 
ATOM     21  O   UNL     1       6.041   4.321  19.023  0.00  0.00    +0.000 OA
ATOM     22  H   UNL     1       4.006   1.979  19.651  0.00  0.00    +0.000 HD
ATOM     23  H   UNL     1       5.704   2.086  20.071  0.00  0.00    +0.000 HD
ENDBRANCH  18  19
ENDBRANCH  17  18
ENDBRANCH   4  17
TORSDOF 5
ENDMDL
MODEL 9
REMARK VINA RESULT:      -6.4      2.268      8.570
REMARK  Name = 
REMARK  6 active torsions:
REMARK  status: ('A' for Active; 'I' for Inactive)
REMARK    1  A    between atoms: C_1  and  C_2
REMARK    2  A    between atoms: C_4  and  C_5
REMARK    3  A    between atoms: N_7  and  C_8
REMARK    4  A    between atoms: C_11  and  O_12
REMARK    5  A    between atoms: O_12  and  C_13
REMARK    6  A    between atoms: C_13  and  C_14
REMARK                            x       y       z     vdW  Elec       q    Type
REMARK                         _______ _______ _______ _____ _____    ______ ____
ROOT
ATOM      1  C   UNL     1       2.253   6.646  19.955  0.00  0.00    +0.000 A 
ATOM      2  C   UNL     1       2.502   5.329  20.347  0.00  0.00    +0.000 A 
ATOM      3  C   UNL     1       3.222   4.464  19.520  0.00  0.00    +0.000 A 
ATOM      4  C   UNL     1       3.691   4.892  18.281  0.00  0.00    +0.000 A 
ATOM      5  C   UNL     1       3.443   6.202  17.877  0.00  0.00    +0.000 A 
ATOM      6  C   UNL     1       2.717   7.072  18.705  0.00  0.00    +0.000 A 
ENDROOT
BRANCH   1   9
ATOM      7  C   UNL     1       1.153   8.849  20.384  0.00  0.00    +0.000 C 
ATOM      8  O   UNL     1       1.303   9.330  19.264  0.00  0.00    +0.000 OA
ATOM      9  N   UNL     1       1.555   7.575  20.758  0.00  0.00    +0.000 N 
ATOM     10  H   UNL     1       1.252   7.259  21.673  0.00  0.00    +0.000 HD
BRANCH   7  14
ATOM     11  C   UNL     1      -1.725  11.911  23.191  0.00  0.00    +0.000 C 
ATOM     12  C   UNL     1      -0.753  10.918  22.681  0.00  0.00    +0.000 A 
ATOM     13  C   UNL     1      -0.494  10.564  21.342  0.00  0.00    +0.000 A 
ATOM     14  C   UNL     1       0.480   9.595  21.421  0.00  0.00    +0.000 A 
ATOM     15  O   UNL     1       0.788   9.387  22.731  0.00  0.00    +0.000 OA
ATOM     16  N   UNL     1       0.015  10.218  23.526  0.00  0.00    +0.000 NA
ENDBRANCH   7  14
ENDBRANCH   1   9
BRANCH   4  17
ATOM     17  O   UNL     1       4.415   3.965  17.583  0.00  0.00    +0.000 OA
BRANCH  17  18
ATOM     18  C   UNL     1       5.532   4.477  16.859  0.00  0.00    +0.000 C 
BRANCH  18  19
ATOM     19  C   UNL     1       6.798   4.481  17.716  0.00  0.00    +0.000 C 
ATOM     20  N   UNL     1       7.978   4.323  17.050  0.00  0.00    +0.000 N 
ATOM     21  O   UNL     1       6.775   4.604  18.937  0.00  0.00    +0.000 OA
ATOM     22  H   UNL     1       7.995   4.205  16.044  0.00  0.00    +0.000 HD
ATOM     23  H   UNL     1       8.841   4.305  17.577  0.00  0.00    +0.000 HD
ENDBRANCH  18  19
ENDBRANCH  17  18
ENDBRANCH   4  17
TORSDOF 5
ENDMDL
