MODEL 1
REMARK VINA RESULT:      -7.9      0.000      0.000
REMARK  Name = 
REMARK  8 active torsions:
REMARK  status: ('A' for Active; 'I' for Inactive)
REMARK    1  A    between atoms: C_2  and  C_10
REMARK    2  A    between atoms: N_3  and  C_4
REMARK    3  A    between atoms: C_4  and  C_5
REMARK    4  A    between atoms: C_13  and  O_14
REMARK    5  A    between atoms: O_14  and  C_15
REMARK    6  A    between atoms: N_18  and  C_19
REMARK    7  A    between atoms: C_19  and  C_20
REMARK    8  A    between atoms: C_20  and  C_21
REMARK                            x       y       z     vdW  Elec       q    Type
REMARK                         _______ _______ _______ _____ _____    ______ ____
ROOT
ATOM      1  C   UNL     1       0.691   9.543  19.572  0.00  0.00    +0.000 A 
ATOM      2  C   UNL     1       0.572   8.849  20.782  0.00  0.00    +0.000 A 
ATOM      3  C   UNL     1       1.307   7.660  20.988  0.00  0.00    +0.000 A 
ATOM      4  C   UNL     1       2.153   7.144  19.995  0.00  0.00    +0.000 A 
ATOM      5  C   UNL     1       2.302   7.869  18.811  0.00  0.00    +0.000 A 
ATOM      6  C   UNL     1       1.566   9.043  18.598  0.00  0.00    +0.000 A 
ENDROOT
BRANCH   1   8
ATOM      7  O   UNL     1       0.162  11.809  19.934  0.00  0.00    +0.000 OA
ATOM      8  C   UNL     1      -0.011  10.815  19.238  0.00  0.00    +0.000 C 
ATOM      9  N   UNL     1      -0.829  10.845  18.122  0.00  0.00    +0.000 N 
ATOM     10  H   UNL     1      -1.019  10.008  17.584  0.00  0.00    +0.000 HD
BRANCH   9  11
ATOM     11  C   UNL     1      -1.582  12.034  17.789  0.00  0.00    +0.000 C 
BRANCH  11  12
ATOM     12  C   UNL     1      -3.038  11.767  17.964  0.00  0.00    +0.000 A 
ATOM     13  C   UNL     1      -3.959  11.296  16.998  0.00  0.00    +0.000 A 
ATOM     14  C   UNL     1      -5.154  11.259  17.663  0.00  0.00    +0.000 A 
ATOM     15  O   UNL     1      -4.974  11.670  18.943  0.00  0.00    +0.000 OA
ATOM     16  N   UNL     1      -3.641  11.994  19.139  0.00  0.00    +0.000 NA
ENDBRANCH  11  12
ENDBRANCH   9  11
ENDBRANCH   1   8
BRANCH   4  17
ATOM     17  O   UNL     1       2.818   5.970  20.270  0.00  0.00    +0.000 OA
BRANCH  17  18
ATOM     18  C   UNL     1       2.121   4.745  19.953  0.00  0.00    +0.000 C 
ATOM     19  C   UNL     1       3.000   3.536  20.265  0.00  0.00    +0.000 C 
ATOM     20  C   UNL     1       4.118   3.300  19.252  0.00  0.00    +0.000 C 
ATOM     21  N   UNL     1       3.685   3.265  17.848  0.00  0.00    +0.000 NA
ATOM     22  C   UNL     1       2.809   4.400  17.501  0.00  0.00    +0.000 C 
ATOM     23  C   UNL     1       1.676   4.688  18.492  0.00  0.00    +0.000 C 
BRANCH  21  24
ATOM     24  C   UNL     1       4.868   3.276  16.935  0.00  0.00    +0.000 C 
BRANCH  24  25
ATOM     25  C   UNL     1       5.178   4.635  16.270  0.00  0.00    +0.000 C 
BRANCH  25  26
ATOM     26  C   UNL     1       6.177   5.461  17.056  0.00  0.00    +0.000 A 
ATOM     27  C   UNL     1       6.952   4.876  18.070  0.00  0.00    +0.000 A 
ATOM     28  C   UNL     1       7.884   5.636  18.782  0.00  0.00    +0.000 A 
ATOM     29  C   UNL     1       8.051   6.989  18.494  0.00  0.00    +0.000 A 
ATOM     30  C   UNL     1       7.284   7.582  17.494  0.00  0.00    +0.000 A 
ATOM     31  C   UNL     1       6.351   6.824  16.781  0.00  0.00    +0.000 A 
ENDBRANCH  25  26
ENDBRANCH  24  25
ENDBRANCH  21  24
ENDBRANCH  17  18
ENDBRANCH   4  17
TORSDOF 8
ENDMDL
MODEL 2
REMARK VINA RESULT:      -7.7      0.772      1.171
REMARK  Name = 
REMARK  8 active torsions:
REMARK  status: ('A' for Active; 'I' for Inactive)
REMARK    1  A    between atoms: C_2  and  C_10
REMARK    2  A    between atoms: N_3  and  C_4
REMARK    3  A    between atoms: C_4  and  C_5
REMARK    4  A    between atoms: C_13  and  O_14
REMARK    5  A    between atoms: O_14  and  C_15
REMARK    6  A    between atoms: N_18  and  C_19
REMARK    7  A    between atoms: C_19  and  C_20
REMARK    8  A    between atoms: C_20  and  C_21
REMARK                            x       y       z     vdW  Elec       q    Type
REMARK                         _______ _______ _______ _____ _____    ______ ____
ROOT
ATOM      1  C   UNL     1       0.678   9.993  19.198  0.00  0.00    +0.000 A 
ATOM      2  C   UNL     1       1.463   9.457  18.170  0.00  0.00    +0.000 A 
ATOM      3  C   UNL     1       2.184   8.260  18.384  0.00  0.00    +0.000 A 
ATOM      4  C   UNL     1       2.141   7.595  19.618  0.00  0.00    +0.000 A 
ATOM      5  C   UNL     1       1.317   8.111  20.621  0.00  0.00    +0.000 A 
ATOM      6  C   UNL     1       0.609   9.304  20.416  0.00  0.00    +0.000 A 
ENDROOT
BRANCH   1   8
ATOM      7  O   UNL     1       0.316  12.225  18.540  0.00  0.00    +0.000 OA
ATOM      8  C   UNL     1      -0.143  11.233  19.095  0.00  0.00    +0.000 C 
ATOM      9  N   UNL     1      -1.426  11.221  19.613  0.00  0.00    +0.000 N 
ATOM     10  H   UNL     1      -1.781  10.423  20.125  0.00  0.00    +0.000 HD
BRANCH   9  11
ATOM     11  C   UNL     1      -2.242  12.416  19.595  0.00  0.00    +0.000 C 
BRANCH  11  12
ATOM     12  C   UNL     1      -3.578  12.098  19.016  0.00  0.00    +0.000 A 
ATOM     13  C   UNL     1      -3.864  11.451  17.789  0.00  0.00    +0.000 A 
ATOM     14  C   UNL     1      -5.231  11.441  17.725  0.00  0.00    +0.000 A 
ATOM     15  O   UNL     1      -5.742  12.030  18.834  0.00  0.00    +0.000 OA
ATOM     16  N   UNL     1      -4.704  12.448  19.653  0.00  0.00    +0.000 NA
ENDBRANCH  11  12
ENDBRANCH   9  11
ENDBRANCH   1   8
BRANCH   4  17
ATOM     17  O   UNL     1       2.888   6.445  19.749  0.00  0.00    +0.000 OA
BRANCH  17  18
ATOM     18  C   UNL     1       2.156   5.200  19.774  0.00  0.00    +0.000 C 
ATOM     19  C   UNL     1       3.026   4.082  20.343  0.00  0.00    +0.000 C 
ATOM     20  C   UNL     1       4.094   3.571  19.378  0.00  0.00    +0.000 C 
ATOM     21  N   UNL     1       3.600   3.202  18.045  0.00  0.00    +0.000 NA
ATOM     22  C   UNL     1       2.730   4.240  17.460  0.00  0.00    +0.000 C 
ATOM     23  C   UNL     1       1.647   4.795  18.391  0.00  0.00    +0.000 C 
BRANCH  21  24
ATOM     24  C   UNL     1       4.741   2.953  17.113  0.00  0.00    +0.000 C 
BRANCH  24  25
ATOM     25  C   UNL     1       5.154   4.154  16.236  0.00  0.00    +0.000 C 
BRANCH  25  26
ATOM     26  C   UNL     1       6.090   5.110  16.949  0.00  0.00    +0.000 A 
ATOM     27  C   UNL     1       7.021   4.638  17.887  0.00  0.00    +0.000 A 
ATOM     28  C   UNL     1       7.893   5.520  18.531  0.00  0.00    +0.000 A 
ATOM     29  C   UNL     1       7.845   6.883  18.249  0.00  0.00    +0.000 A 
ATOM     30  C   UNL     1       6.922   7.365  17.323  0.00  0.00    +0.000 A 
ATOM     31  C   UNL     1       6.047   6.485  16.679  0.00  0.00    +0.000 A 
ENDBRANCH  25  26
ENDBRANCH  24  25
ENDBRANCH  21  24
ENDBRANCH  17  18
ENDBRANCH   4  17
TORSDOF 8
ENDMDL
MODEL 3
REMARK VINA RESULT:      -7.7      2.062      2.436
REMARK  Name = 
REMARK  8 active torsions:
REMARK  status: ('A' for Active; 'I' for Inactive)
REMARK    1  A    between atoms: C_2  and  C_10
REMARK    2  A    between atoms: N_3  and  C_4
REMARK    3  A    between atoms: C_4  and  C_5
REMARK    4  A    between atoms: C_13  and  O_14
REMARK    5  A    between atoms: O_14  and  C_15
REMARK    6  A    between atoms: N_18  and  C_19
REMARK    7  A    between atoms: C_19  and  C_20
REMARK    8  A    between atoms: C_20  and  C_21
REMARK                            x       y       z     vdW  Elec       q    Type
REMARK                         _______ _______ _______ _____ _____    ______ ____
ROOT
ATOM      1  C   UNL     1       0.523   9.843  19.685  0.00  0.00    +0.000 A 
ATOM      2  C   UNL     1       1.319   9.379  18.631  0.00  0.00    +0.000 A 
ATOM      3  C   UNL     1       2.051   8.179  18.774  0.00  0.00    +0.000 A 
ATOM      4  C   UNL     1       2.009   7.438  19.964  0.00  0.00    +0.000 A 
ATOM      5  C   UNL     1       1.175   7.882  20.992  0.00  0.00    +0.000 A 
ATOM      6  C   UNL     1       0.456   9.078  20.857  0.00  0.00    +0.000 A 
ENDROOT
BRANCH   1   8
ATOM      7  O   UNL     1      -0.708  11.520  18.581  0.00  0.00    +0.000 OA
ATOM      8  C   UNL     1      -0.310  11.078  19.654  0.00  0.00    +0.000 C 
ATOM      9  N   UNL     1      -0.636  11.685  20.853  0.00  0.00    +0.000 N 
ATOM     10  H   UNL     1      -0.256  11.355  21.732  0.00  0.00    +0.000 HD
BRANCH   9  11
ATOM     11  C   UNL     1      -1.390  12.921  20.877  0.00  0.00    +0.000 C 
BRANCH  11  12
ATOM     12  C   UNL     1      -2.385  12.876  21.985  0.00  0.00    +0.000 A 
ATOM     13  C   UNL     1      -2.358  12.069  23.149  0.00  0.00    +0.000 A 
ATOM     14  C   UNL     1      -3.511  12.393  23.809  0.00  0.00    +0.000 A 
ATOM     15  O   UNL     1      -4.188  13.335  23.107  0.00  0.00    +0.000 OA
ATOM     16  N   UNL     1      -3.483  13.644  21.953  0.00  0.00    +0.000 NA
ENDBRANCH  11  12
ENDBRANCH   9  11
ENDBRANCH   1   8
BRANCH   4  17
ATOM     17  O   UNL     1       2.767   6.290  20.028  0.00  0.00    +0.000 OA
BRANCH  17  18
ATOM     18  C   UNL     1       2.075   5.045  19.787  0.00  0.00    +0.000 C 
ATOM     19  C   UNL     1       2.923   3.864  20.253  0.00  0.00    +0.000 C 
ATOM     20  C   UNL     1       4.089   3.531  19.326  0.00  0.00    +0.000 C 
ATOM     21  N   UNL     1       3.730   3.370  17.911  0.00  0.00    +0.000 NA
ATOM     22  C   UNL     1       2.885   4.475  17.416  0.00  0.00    +0.000 C 
ATOM     23  C   UNL     1       1.706   4.858  18.316  0.00  0.00    +0.000 C 
BRANCH  21  24
ATOM     24  C   UNL     1       4.959   3.291  17.063  0.00  0.00    +0.000 C 
BRANCH  24  25
ATOM     25  C   UNL     1       5.332   4.589  16.315  0.00  0.00    +0.000 C 
BRANCH  25  26
ATOM     26  C   UNL     1       6.289   5.466  17.099  0.00  0.00    +0.000 A 
ATOM     27  C   UNL     1       7.066   4.931  18.138  0.00  0.00    +0.000 A 
ATOM     28  C   UNL     1       7.959   5.738  18.848  0.00  0.00    +0.000 A 
ATOM     29  C   UNL     1       8.085   7.089  18.532  0.00  0.00    +0.000 A 
ATOM     30  C   UNL     1       7.316   7.633  17.505  0.00  0.00    +0.000 A 
ATOM     31  C   UNL     1       6.421   6.828  16.795  0.00  0.00    +0.000 A 
ENDBRANCH  25  26
ENDBRANCH  24  25
ENDBRANCH  21  24
ENDBRANCH  17  18
ENDBRANCH   4  17
TORSDOF 8
ENDMDL
MODEL 4
REMARK VINA RESULT:      -7.6      2.314      2.871
REMARK  Name = 
REMARK  8 active torsions:
REMARK  status: ('A' for Active; 'I' for Inactive)
REMARK    1  A    between atoms: C_2  and  C_10
REMARK    2  A    between atoms: N_3  and  C_4
REMARK    3  A    between atoms: C_4  and  C_5
REMARK    4  A    between atoms: C_13  and  O_14
REMARK    5  A    between atoms: O_14  and  C_15
REMARK    6  A    between atoms: N_18  and  C_19
REMARK    7  A    between atoms: C_19  and  C_20
REMARK    8  A    between atoms: C_20  and  C_21
REMARK                            x       y       z     vdW  Elec       q    Type
REMARK                         _______ _______ _______ _____ _____    ______ ____
ROOT
ATOM      1  C   UNL     1       0.538  10.200  20.612  0.00  0.00    +0.000 A 
ATOM      2  C   UNL     1       1.089   9.843  19.375  0.00  0.00    +0.000 A 
ATOM      3  C   UNL     1       1.684   8.572  19.208  0.00  0.00    +0.000 A 
ATOM      4  C   UNL     1       1.749   7.653  20.266  0.00  0.00    +0.000 A 
ATOM      5  C   UNL     1       1.155   8.000  21.482  0.00  0.00    +0.000 A 
ATOM      6  C   UNL     1       0.573   9.264  21.654  0.00  0.00    +0.000 A 
ENDROOT
BRANCH   1   8
ATOM      7  O   UNL     1       0.488  12.391  21.472  0.00  0.00    +0.000 OA
ATOM      8  C   UNL     1      -0.134  11.496  20.911  0.00  0.00    +0.000 C 
ATOM      9  N   UNL     1      -1.450  11.663  20.520  0.00  0.00    +0.000 N 
ATOM     10  H   UNL     1      -1.981  10.903  20.113  0.00  0.00    +0.000 HD
BRANCH   9  11
ATOM     11  C   UNL     1      -2.169  12.878  20.841  0.00  0.00    +0.000 C 
BRANCH  11  12
ATOM     12  C   UNL     1      -3.011  12.653  22.050  0.00  0.00    +0.000 A 
ATOM     13  C   UNL     1      -2.591  12.561  23.400  0.00  0.00    +0.000 A 
ATOM     14  C   UNL     1      -3.744  12.319  24.095  0.00  0.00    +0.000 A 
ATOM     15  O   UNL     1      -4.792  12.275  23.235  0.00  0.00    +0.000 OA
ATOM     16  N   UNL     1      -4.336  12.484  21.943  0.00  0.00    +0.000 NA
ENDBRANCH  11  12
ENDBRANCH   9  11
ENDBRANCH   1   8
BRANCH   4  17
ATOM     17  O   UNL     1       2.364   6.445  20.025  0.00  0.00    +0.000 OA
BRANCH  17  18
ATOM     18  C   UNL     1       1.786   5.287  20.668  0.00  0.00    +0.000 C 
ATOM     19  C   UNL     1       2.883   4.335  21.137  0.00  0.00    +0.000 C 
ATOM     20  C   UNL     1       3.533   3.532  20.012  0.00  0.00    +0.000 C 
ATOM     21  N   UNL     1       2.593   2.829  19.129  0.00  0.00    +0.000 NA
ATOM     22  C   UNL     1       1.495   3.700  18.668  0.00  0.00    +0.000 C 
ATOM     23  C   UNL     1       0.815   4.537  19.756  0.00  0.00    +0.000 C 
BRANCH  21  24
ATOM     24  C   UNL     1       3.305   2.283  17.934  0.00  0.00    +0.000 C 
BRANCH  24  25
ATOM     25  C   UNL     1       3.305   3.196  16.689  0.00  0.00    +0.000 C 
BRANCH  25  26
ATOM     26  C   UNL     1       4.505   4.122  16.639  0.00  0.00    +0.000 A 
ATOM     27  C   UNL     1       5.733   3.680  16.123  0.00  0.00    +0.000 A 
ATOM     28  C   UNL     1       6.832   4.541  16.063  0.00  0.00    +0.000 A 
ATOM     29  C   UNL     1       6.721   5.852  16.521  0.00  0.00    +0.000 A 
ATOM     30  C   UNL     1       5.508   6.301  17.040  0.00  0.00    +0.000 A 
ATOM     31  C   UNL     1       4.408   5.442  17.102  0.00  0.00    +0.000 A 
ENDBRANCH  25  26
ENDBRANCH  24  25
ENDBRANCH  21  24
ENDBRANCH  17  18
ENDBRANCH   4  17
TORSDOF 8
ENDMDL
MODEL 5
REMARK VINA RESULT:      -7.6      3.756     10.378
REMARK  Name = 
REMARK  8 active torsions:
REMARK  status: ('A' for Active; 'I' for Inactive)
REMARK    1  A    between atoms: C_2  and  C_10
REMARK    2  A    between atoms: N_3  and  C_4
REMARK    3  A    between atoms: C_4  and  C_5
REMARK    4  A    between atoms: C_13  and  O_14
REMARK    5  A    between atoms: O_14  and  C_15
REMARK    6  A    between atoms: N_18  and  C_19
REMARK    7  A    between atoms: C_19  and  C_20
REMARK    8  A    between atoms: C_20  and  C_21
REMARK                            x       y       z     vdW  Elec       q    Type
REMARK                         _______ _______ _______ _____ _____    ______ ____
ROOT
ATOM      1  C   UNL     1       2.870   6.547  18.843  0.00  0.00    +0.000 A 
ATOM      2  C   UNL     1       2.245   6.758  20.078  0.00  0.00    +0.000 A 
ATOM      3  C   UNL     1       1.581   7.980  20.332  0.00  0.00    +0.000 A 
ATOM      4  C   UNL     1       1.543   9.002  19.373  0.00  0.00    +0.000 A 
ATOM      5  C   UNL     1       2.128   8.763  18.127  0.00  0.00    +0.000 A 
ATOM      6  C   UNL     1       2.796   7.557  17.875  0.00  0.00    +0.000 A 
ENDROOT
BRANCH   1   8
ATOM      7  O   UNL     1       3.409   4.266  19.079  0.00  0.00    +0.000 OA
ATOM      8  C   UNL     1       3.583   5.300  18.443  0.00  0.00    +0.000 C 
ATOM      9  N   UNL     1       4.412   5.340  17.337  0.00  0.00    +0.000 N 
ATOM     10  H   UNL     1       4.603   6.207  16.851  0.00  0.00    +0.000 HD
BRANCH   9  11
ATOM     11  C   UNL     1       5.176   4.175  16.943  0.00  0.00    +0.000 C 
BRANCH  11  12
ATOM     12  C   UNL     1       6.060   4.525  15.795  0.00  0.00    +0.000 A 
ATOM     13  C   UNL     1       5.904   4.167  14.434  0.00  0.00    +0.000 A 
ATOM     14  C   UNL     1       6.997   4.709  13.816  0.00  0.00    +0.000 A 
ATOM     15  O   UNL     1       7.760   5.358  14.730  0.00  0.00    +0.000 OA
ATOM     16  N   UNL     1       7.176   5.245  15.982  0.00  0.00    +0.000 NA
ENDBRANCH  11  12
ENDBRANCH   9  11
ENDBRANCH   1   8
BRANCH   4  17
ATOM     17  O   UNL     1       0.893  10.168  19.708  0.00  0.00    +0.000 OA
BRANCH  17  18
ATOM     18  C   UNL     1       0.443  10.995  18.612  0.00  0.00    +0.000 C 
ATOM     19  C   UNL     1       0.626  12.472  18.949  0.00  0.00    +0.000 C 
ATOM     20  C   UNL     1      -0.402  13.019  19.936  0.00  0.00    +0.000 C 
ATOM     21  N   UNL     1      -1.803  12.747  19.586  0.00  0.00    +0.000 NA
ATOM     22  C   UNL     1      -2.029  11.335  19.226  0.00  0.00    +0.000 C 
ATOM     23  C   UNL     1      -1.017  10.733  18.245  0.00  0.00    +0.000 C 
BRANCH  21  24
ATOM     24  C   UNL     1      -2.706  13.101  20.724  0.00  0.00    +0.000 C 
BRANCH  24  25
ATOM     25  C   UNL     1      -2.355  12.446  22.077  0.00  0.00    +0.000 C 
BRANCH  25  26
ATOM     26  C   UNL     1      -2.337  13.437  23.224  0.00  0.00    +0.000 A 
ATOM     27  C   UNL     1      -3.479  13.642  24.014  0.00  0.00    +0.000 A 
ATOM     28  C   UNL     1      -3.454  14.544  25.081  0.00  0.00    +0.000 A 
ATOM     29  C   UNL     1      -2.292  15.255  25.371  0.00  0.00    +0.000 A 
ATOM     30  C   UNL     1      -1.154  15.064  24.590  0.00  0.00    +0.000 A 
ATOM     31  C   UNL     1      -1.176  14.163  23.522  0.00  0.00    +0.000 A 
ENDBRANCH  25  26
ENDBRANCH  24  25
ENDBRANCH  21  24
ENDBRANCH  17  18
ENDBRANCH   4  17
TORSDOF 8
ENDMDL
MODEL 6
REMARK VINA RESULT:      -7.6      1.780      2.068
REMARK  Name = 
REMARK  8 active torsions:
REMARK  status: ('A' for Active; 'I' for Inactive)
REMARK    1  A    between atoms: C_2  and  C_10
REMARK    2  A    between atoms: N_3  and  C_4
REMARK    3  A    between atoms: C_4  and  C_5
REMARK    4  A    between atoms: C_13  and  O_14
REMARK    5  A    between atoms: O_14  and  C_15
REMARK    6  A    between atoms: N_18  and  C_19
REMARK    7  A    between atoms: C_19  and  C_20
REMARK    8  A    between atoms: C_20  and  C_21
REMARK                            x       y       z     vdW  Elec       q    Type
REMARK                         _______ _______ _______ _____ _____    ______ ____
ROOT
ATOM      1  C   UNL     1       0.458  10.450  20.281  0.00  0.00    +0.000 A 
ATOM      2  C   UNL     1       0.979  10.029  19.051  0.00  0.00    +0.000 A 
ATOM      3  C   UNL     1       1.667   8.798  18.960  0.00  0.00    +0.000 A 
ATOM      4  C   UNL     1       1.855   7.984  20.087  0.00  0.00    +0.000 A 
ATOM      5  C   UNL     1       1.290   8.389  21.299  0.00  0.00    +0.000 A 
ATOM      6  C   UNL     1       0.616   9.615  21.395  0.00  0.00    +0.000 A 
ENDROOT
BRANCH   1   8
ATOM      7  O   UNL     1      -0.042  12.709  19.841  0.00  0.00    +0.000 OA
ATOM      8  C   UNL     1      -0.303  11.713  20.505  0.00  0.00    +0.000 C 
ATOM      9  N   UNL     1      -1.312  11.716  21.451  0.00  0.00    +0.000 N 
ATOM     10  H   UNL     1      -1.485  10.911  22.042  0.00  0.00    +0.000 HD
BRANCH   9  11
ATOM     11  C   UNL     1      -2.039  12.930  21.753  0.00  0.00    +0.000 C 
BRANCH  11  12
ATOM     12  C   UNL     1      -3.498  12.699  21.556  0.00  0.00    +0.000 A 
ATOM     13  C   UNL     1      -4.232  12.742  20.345  0.00  0.00    +0.000 A 
ATOM     14  C   UNL     1      -5.522  12.493  20.725  0.00  0.00    +0.000 A 
ATOM     15  O   UNL     1      -5.572  12.302  22.067  0.00  0.00    +0.000 OA
ATOM     16  N   UNL     1      -4.298  12.433  22.598  0.00  0.00    +0.000 NA
ENDBRANCH  11  12
ENDBRANCH   9  11
ENDBRANCH   1   8
BRANCH   4  17
ATOM     17  O   UNL     1       2.554   6.810  19.916  0.00  0.00    +0.000 OA
BRANCH  17  18
ATOM     18  C   UNL     1       1.771   5.597  19.853  0.00  0.00    +0.000 C 
ATOM     19  C   UNL     1       2.501   4.456  20.557  0.00  0.00    +0.000 C 
ATOM     20  C   UNL     1       3.672   3.881  19.764  0.00  0.00    +0.000 C 
ATOM     21  N   UNL     1       3.358   3.505  18.379  0.00  0.00    +0.000 NA
ATOM     22  C   UNL     1       2.627   4.567  17.660  0.00  0.00    +0.000 C 
ATOM     23  C   UNL     1       1.448   5.186  18.417  0.00  0.00    +0.000 C 
BRANCH  21  24
ATOM     24  C   UNL     1       4.609   3.190  17.624  0.00  0.00    +0.000 C 
BRANCH  24  25
ATOM     25  C   UNL     1       5.089   4.287  16.650  0.00  0.00    +0.000 C 
BRANCH  25  26
ATOM     26  C   UNL     1       6.093   5.234  17.277  0.00  0.00    +0.000 A 
ATOM     27  C   UNL     1       6.888   4.824  18.359  0.00  0.00    +0.000 A 
ATOM     28  C   UNL     1       7.824   5.694  18.925  0.00  0.00    +0.000 A 
ATOM     29  C   UNL     1       7.975   6.985  18.421  0.00  0.00    +0.000 A 
ATOM     30  C   UNL     1       7.188   7.404  17.351  0.00  0.00    +0.000 A 
ATOM     31  C   UNL     1       6.251   6.537  16.784  0.00  0.00    +0.000 A 
ENDBRANCH  25  26
ENDBRANCH  24  25
ENDBRANCH  21  24
ENDBRANCH  17  18
ENDBRANCH   4  17
TORSDOF 8
ENDMDL
MODEL 7
REMARK VINA RESULT:      -7.6      3.838     10.429
REMARK  Name = 
REMARK  8 active torsions:
REMARK  status: ('A' for Active; 'I' for Inactive)
REMARK    1  A    between atoms: C_2  and  C_10
REMARK    2  A    between atoms: N_3  and  C_4
REMARK    3  A    between atoms: C_4  and  C_5
REMARK    4  A    between atoms: C_13  and  O_14
REMARK    5  A    between atoms: O_14  and  C_15
REMARK    6  A    between atoms: N_18  and  C_19
REMARK    7  A    between atoms: C_19  and  C_20
REMARK    8  A    between atoms: C_20  and  C_21
REMARK                            x       y       z     vdW  Elec       q    Type
REMARK                         _______ _______ _______ _____ _____    ______ ____
ROOT
ATOM      1  C   UNL     1       3.333   6.505  18.591  0.00  0.00    +0.000 A 
ATOM      2  C   UNL     1       3.072   7.604  17.763  0.00  0.00    +0.000 A 
ATOM      3  C   UNL     1       2.157   8.598  18.177  0.00  0.00    +0.000 A 
ATOM      4  C   UNL     1       1.486   8.504  19.405  0.00  0.00    +0.000 A 
ATOM      5  C   UNL     1       1.788   7.429  20.245  0.00  0.00    +0.000 A 
ATOM      6  C   UNL     1       2.688   6.436  19.833  0.00  0.00    +0.000 A 
ENDROOT
BRANCH   1   8
ATOM      7  O   UNL     1       5.086   5.029  19.134  0.00  0.00    +0.000 OA
ATOM      8  C   UNL     1       4.288   5.403  18.281  0.00  0.00    +0.000 C 
ATOM      9  N   UNL     1       4.229   4.809  17.033  0.00  0.00    +0.000 N 
ATOM     10  H   UNL     1       3.612   5.160  16.310  0.00  0.00    +0.000 HD
BRANCH   9  11
ATOM     11  C   UNL     1       5.173   3.778  16.659  0.00  0.00    +0.000 C 
BRANCH  11  12
ATOM     12  C   UNL     1       6.095   4.303  15.612  0.00  0.00    +0.000 A 
ATOM     13  C   UNL     1       6.007   4.132  14.209  0.00  0.00    +0.000 A 
ATOM     14  C   UNL     1       7.108   4.781  13.722  0.00  0.00    +0.000 A 
ATOM     15  O   UNL     1       7.812   5.316  14.750  0.00  0.00    +0.000 OA
ATOM     16  N   UNL     1       7.179   5.018  15.946  0.00  0.00    +0.000 NA
ENDBRANCH  11  12
ENDBRANCH   9  11
ENDBRANCH   1   8
BRANCH   4  17
ATOM     17  O   UNL     1       0.596   9.505  19.724  0.00  0.00    +0.000 OA
BRANCH  17  18
ATOM     18  C   UNL     1       0.476  10.588  18.775  0.00  0.00    +0.000 C 
ATOM     19  C   UNL     1       0.886  11.909  19.420  0.00  0.00    +0.000 C 
ATOM     20  C   UNL     1      -0.151  12.481  20.383  0.00  0.00    +0.000 C 
ATOM     21  N   UNL     1      -1.512  12.583  19.839  0.00  0.00    +0.000 NA
ATOM     22  C   UNL     1      -1.949  11.338  19.179  0.00  0.00    +0.000 C 
ATOM     23  C   UNL     1      -0.939  10.715  18.211  0.00  0.00    +0.000 C 
BRANCH  21  24
ATOM     24  C   UNL     1      -2.486  12.918  20.922  0.00  0.00    +0.000 C 
BRANCH  24  25
ATOM     25  C   UNL     1      -2.098  12.431  22.335  0.00  0.00    +0.000 C 
BRANCH  25  26
ATOM     26  C   UNL     1      -2.161  13.533  23.375  0.00  0.00    +0.000 A 
ATOM     27  C   UNL     1      -1.074  14.398  23.572  0.00  0.00    +0.000 A 
ATOM     28  C   UNL     1      -1.141  15.423  24.519  0.00  0.00    +0.000 A 
ATOM     29  C   UNL     1      -2.293  15.595  25.285  0.00  0.00    +0.000 A 
ATOM     30  C   UNL     1      -3.377  14.739  25.102  0.00  0.00    +0.000 A 
ATOM     31  C   UNL     1      -3.312  13.712  24.156  0.00  0.00    +0.000 A 
ENDBRANCH  25  26
ENDBRANCH  24  25
ENDBRANCH  21  24
ENDBRANCH  17  18
ENDBRANCH   4  17
TORSDOF 8
ENDMDL
MODEL 8
REMARK VINA RESULT:      -7.5      3.489     10.049
REMARK  Name = 
REMARK  8 active torsions:
REMARK  status: ('A' for Active; 'I' for Inactive)
REMARK    1  A    between atoms: C_2  and  C_10
REMARK    2  A    between atoms: N_3  and  C_4
REMARK    3  A    between atoms: C_4  and  C_5
REMARK    4  A    between atoms: C_13  and  O_14
REMARK    5  A    between atoms: O_14  and  C_15
REMARK    6  A    between atoms: N_18  and  C_19
REMARK    7  A    between atoms: C_19  and  C_20
REMARK    8  A    between atoms: C_20  and  C_21
REMARK                            x       y       z     vdW  Elec       q    Type
REMARK                         _______ _______ _______ _____ _____    ______ ____
ROOT
ATOM      1  C   UNL     1       2.390   7.148  18.853  0.00  0.00    +0.000 A 
ATOM      2  C   UNL     1       1.913   7.521  20.116  0.00  0.00    +0.000 A 
ATOM      3  C   UNL     1       1.376   8.813  20.314  0.00  0.00    +0.000 A 
ATOM      4  C   UNL     1       1.319   9.747  19.269  0.00  0.00    +0.000 A 
ATOM      5  C   UNL     1       1.752   9.350  18.002  0.00  0.00    +0.000 A 
ATOM      6  C   UNL     1       2.296   8.073  17.804  0.00  0.00    +0.000 A 
ENDROOT
BRANCH   1   8
ATOM      7  O   UNL     1       2.308   5.030  17.827  0.00  0.00    +0.000 OA
ATOM      8  C   UNL     1       2.959   5.815  18.508  0.00  0.00    +0.000 C 
ATOM      9  N   UNL     1       4.233   5.506  18.951  0.00  0.00    +0.000 N 
ATOM     10  H   UNL     1       4.744   6.129  19.564  0.00  0.00    +0.000 HD
BRANCH   9  11
ATOM     11  C   UNL     1       4.809   4.203  18.698  0.00  0.00    +0.000 C 
BRANCH  11  12
ATOM     12  C   UNL     1       5.911   4.330  17.703  0.00  0.00    +0.000 A 
ATOM     13  C   UNL     1       5.819   4.294  16.290  0.00  0.00    +0.000 A 
ATOM     14  C   UNL     1       7.112   4.422  15.865  0.00  0.00    +0.000 A 
ATOM     15  O   UNL     1       7.934   4.536  16.938  0.00  0.00    +0.000 OA
ATOM     16  N   UNL     1       7.182   4.477  18.101  0.00  0.00    +0.000 NA
ENDBRANCH  11  12
ENDBRANCH   9  11
ENDBRANCH   1   8
BRANCH   4  17
ATOM     17  O   UNL     1       0.799  10.990  19.552  0.00  0.00    +0.000 OA
BRANCH  17  18
ATOM     18  C   UNL     1      -0.419  11.018  20.329  0.00  0.00    +0.000 C 
ATOM     19  C   UNL     1      -1.504  11.799  19.593  0.00  0.00    +0.000 C 
ATOM     20  C   UNL     1      -1.310  13.314  19.623  0.00  0.00    +0.000 C 
ATOM     21  N   UNL     1      -1.093  13.884  20.959  0.00  0.00    +0.000 NA
ATOM     22  C   UNL     1      -0.070  13.147  21.726  0.00  0.00    +0.000 C 
ATOM     23  C   UNL     1      -0.211  11.621  21.718  0.00  0.00    +0.000 C 
BRANCH  21  24
ATOM     24  C   UNL     1      -0.674  15.315  20.857  0.00  0.00    +0.000 C 
BRANCH  24  25
ATOM     25  C   UNL     1      -1.021  16.013  19.524  0.00  0.00    +0.000 C 
BRANCH  25  26
ATOM     26  C   UNL     1       0.209  16.432  18.742  0.00  0.00    +0.000 A 
ATOM     27  C   UNL     1       0.177  17.556  17.902  0.00  0.00    +0.000 A 
ATOM     28  C   UNL     1       1.317  17.949  17.195  0.00  0.00    +0.000 A 
ATOM     29  C   UNL     1       2.501  17.224  17.315  0.00  0.00    +0.000 A 
ATOM     30  C   UNL     1       2.543  16.103  18.142  0.00  0.00    +0.000 A 
ATOM     31  C   UNL     1       1.404  15.707  18.849  0.00  0.00    +0.000 A 
ENDBRANCH  25  26
ENDBRANCH  24  25
ENDBRANCH  21  24
ENDBRANCH  17  18
ENDBRANCH   4  17
TORSDOF 8
ENDMDL
MODEL 9
REMARK VINA RESULT:      -7.5      2.675      3.370
REMARK  Name = 
REMARK  8 active torsions:
REMARK  status: ('A' for Active; 'I' for Inactive)
REMARK    1  A    between atoms: C_2  and  C_10
REMARK    2  A    between atoms: N_3  and  C_4
REMARK    3  A    between atoms: C_4  and  C_5
REMARK    4  A    between atoms: C_13  and  O_14
REMARK    5  A    between atoms: O_14  and  C_15
REMARK    6  A    between atoms: N_18  and  C_19
REMARK    7  A    between atoms: C_19  and  C_20
REMARK    8  A    between atoms: C_20  and  C_21
REMARK                            x       y       z     vdW  Elec       q    Type
REMARK                         _______ _______ _______ _____ _____    ______ ____
ROOT
ATOM      1  C   UNL     1       0.593  10.190  20.719  0.00  0.00    +0.000 A 
ATOM      2  C   UNL     1       0.962  10.296  19.373  0.00  0.00    +0.000 A 
ATOM      3  C   UNL     1       1.556   9.196  18.715  0.00  0.00    +0.000 A 
ATOM      4  C   UNL     1       1.801   7.990  19.388  0.00  0.00    +0.000 A 
ATOM      5  C   UNL     1       1.386   7.877  20.716  0.00  0.00    +0.000 A 
ATOM      6  C   UNL     1       0.805   8.970  21.376  0.00  0.00    +0.000 A 
ENDROOT
BRANCH   1   8
ATOM      7  O   UNL     1      -0.091  11.181  22.743  0.00  0.00    +0.000 OA
ATOM      8  C   UNL     1      -0.059  11.265  21.520  0.00  0.00    +0.000 C 
ATOM      9  N   UNL     1      -0.593  12.353  20.854  0.00  0.00    +0.000 N 
ATOM     10  H   UNL     1      -0.620  12.391  19.842  0.00  0.00    +0.000 HD
BRANCH   9  11
ATOM     11  C   UNL     1      -1.291  13.394  21.578  0.00  0.00    +0.000 C 
BRANCH  11  12
ATOM     12  C   UNL     1      -2.757  13.122  21.549  0.00  0.00    +0.000 A 
ATOM     13  C   UNL     1      -3.648  13.035  22.646  0.00  0.00    +0.000 A 
ATOM     14  C   UNL     1      -4.855  12.738  22.075  0.00  0.00    +0.000 A 
ATOM     15  O   UNL     1      -4.714  12.659  20.728  0.00  0.00    +0.000 OA
ATOM     16  N   UNL     1      -3.391  12.899  20.390  0.00  0.00    +0.000 NA
ENDBRANCH  11  12
ENDBRANCH   9  11
ENDBRANCH   1   8
BRANCH   4  17
ATOM     17  O   UNL     1       2.402   6.975  18.678  0.00  0.00    +0.000 OA
BRANCH  17  18
ATOM     18  C   UNL     1       2.741   5.782  19.420  0.00  0.00    +0.000 C 
ATOM     19  C   UNL     1       4.257   5.633  19.527  0.00  0.00    +0.000 C 
ATOM     20  C   UNL     1       4.929   5.165  18.239  0.00  0.00    +0.000 C 
ATOM     21  N   UNL     1       4.342   3.961  17.635  0.00  0.00    +0.000 NA
ATOM     22  C   UNL     1       2.873   4.043  17.533  0.00  0.00    +0.000 C 
ATOM     23  C   UNL     1       2.148   4.519  18.796  0.00  0.00    +0.000 C 
BRANCH  21  24
ATOM     24  C   UNL     1       4.905   3.732  16.269  0.00  0.00    +0.000 C 
BRANCH  24  25
ATOM     25  C   UNL     1       6.194   4.515  15.944  0.00  0.00    +0.000 C 
BRANCH  25  26
ATOM     26  C   UNL     1       6.566   4.454  14.475  0.00  0.00    +0.000 A 
ATOM     27  C   UNL     1       5.947   3.533  13.616  0.00  0.00    +0.000 A 
ATOM     28  C   UNL     1       6.279   3.490  12.259  0.00  0.00    +0.000 A 
ATOM     29  C   UNL     1       7.235   4.364  11.744  0.00  0.00    +0.000 A 
ATOM     30  C   UNL     1       7.859   5.279  12.588  0.00  0.00    +0.000 A 
ATOM     31  C   UNL     1       7.530   5.323  13.946  0.00  0.00    +0.000 A 
ENDBRANCH  25  26
ENDBRANCH  24  25
ENDBRANCH  21  24
ENDBRANCH  17  18
ENDBRANCH   4  17
TORSDOF 8
ENDMDL
