MODEL 1
REMARK VINA RESULT:      -7.1      0.000      0.000
REMARK  Name = 
REMARK  13 active torsions:
REMARK  status: ('A' for Active; 'I' for Inactive)
REMARK    1  A    between atoms: C_1  and  C_2
REMARK    2  A    between atoms: C_2  and  N_3
REMARK    3  A    between atoms: N_3  and  C_4
REMARK    4  A    between atoms: N_3  and  C_6
REMARK    5  A    between atoms: C_4  and  C_5
REMARK    6  A    between atoms: C_6  and  C_7
REMARK    7  A    between atoms: C_7  and  N_8
REMARK    8  A    between atoms: N_8  and  C_9
REMARK    9  A    between atoms: C_9  and  C_10
REMARK   10  A    between atoms: C_11  and  C_13
REMARK   11  A    between atoms: C_17  and  C_18
REMARK   12  A    between atoms: C_21  and  C_22
REMARK   13  A    between atoms: C_24  and  N_25
REMARK                            x       y       z     vdW  Elec       q    Type
REMARK                         _______ _______ _______ _____ _____    ______ ____
ROOT
ATOM      1  C   UNL     1       3.990   4.841  18.384  0.00  0.00    +0.000 A 
ATOM      2  C   UNL     1       3.703   4.010  19.472  0.00  0.00    +0.000 A 
ATOM      3  C   UNL     1       2.778   4.409  20.433  0.00  0.00    +0.000 A 
ATOM      4  C   UNL     1       2.161   5.662  20.333  0.00  0.00    +0.000 A 
ATOM      5  C   UNL     1       2.439   6.536  19.271  0.00  0.00    +0.000 A 
ATOM      6  C   UNL     1       3.299   6.053  18.262  0.00  0.00    +0.000 A 
ENDROOT
BRANCH   5   7
ATOM      7  C   UNL     1       1.904   7.928  19.209  0.00  0.00    +0.000 A 
ATOM      8  C   UNL     1       1.865   8.622  17.987  0.00  0.00    +0.000 A 
ATOM      9  C   UNL     1       1.421   9.940  17.913  0.00  0.00    +0.000 A 
ATOM     10  C   UNL     1       0.988  10.557  19.073  0.00  0.00    +0.000 A 
ATOM     11  C   UNL     1       0.437  11.949  19.046  0.00  0.00    +0.000 C 
ATOM     12  N   UNL     1       1.016   9.934  20.272  0.00  0.00    +0.000 NA
ATOM     13  C   UNL     1       1.475   8.665  20.333  0.00  0.00    +0.000 A 
BRANCH  13  14
ATOM     14  N   UNL     1       1.481   8.150  21.631  0.00  0.00    +0.000 N 
ATOM     15  H   UNL     1       1.056   7.229  21.576  0.00  0.00    +0.000 HD
ATOM     16  H   UNL     1       0.989   8.762  22.271  0.00  0.00    +0.000 HD
ENDBRANCH  13  14
ENDBRANCH   5   7
BRANCH   1  18
ATOM     17  N   UNL     1       6.265   4.969  17.253  0.00  0.00    +0.000 N 
ATOM     18  C   UNL     1       4.993   4.364  17.394  0.00  0.00    +0.000 C 
ATOM     19  O   UNL     1       4.666   3.392  16.702  0.00  0.00    +0.000 OA
BRANCH  17  20
ATOM     20  C   UNL     1       6.789   6.034  18.122  0.00  0.00    +0.000 C 
ATOM     21  C   UNL     1       7.545   7.176  17.463  0.00  0.00    +0.000 C 
ENDBRANCH  17  20
BRANCH  17  22
ATOM     22  C   UNL     1       7.104   4.458  16.148  0.00  0.00    +0.000 C 
BRANCH  22  23
ATOM     23  C   UNL     1       6.730   5.025  14.748  0.00  0.00    +0.000 C 
BRANCH  23  24
ATOM     24  N   UNL     1       6.622   4.028  13.648  0.00  0.00    +0.000 NA
BRANCH  24  26
ATOM     25  C   UNL     1       4.974   3.220  11.889  0.00  0.00    +0.000 C 
ATOM     26  C   UNL     1       5.211   3.764  13.299  0.00  0.00    +0.000 C 
ENDBRANCH  24  26
BRANCH  24  27
ATOM     27  C   UNL     1       7.438   4.441  12.487  0.00  0.00    +0.000 C 
ATOM     28  C   UNL     1       8.208   5.756  12.622  0.00  0.00    +0.000 C 
ENDBRANCH  24  27
ENDBRANCH  23  24
ENDBRANCH  22  23
ENDBRANCH  17  22
ENDBRANCH   1  18
TORSDOF 9
ENDMDL
MODEL 2
REMARK VINA RESULT:      -6.8      4.335      7.346
REMARK  Name = 
REMARK  13 active torsions:
REMARK  status: ('A' for Active; 'I' for Inactive)
REMARK    1  A    between atoms: C_1  and  C_2
REMARK    2  A    between atoms: C_2  and  N_3
REMARK    3  A    between atoms: N_3  and  C_4
REMARK    4  A    between atoms: N_3  and  C_6
REMARK    5  A    between atoms: C_4  and  C_5
REMARK    6  A    between atoms: C_6  and  C_7
REMARK    7  A    between atoms: C_7  and  N_8
REMARK    8  A    between atoms: N_8  and  C_9
REMARK    9  A    between atoms: C_9  and  C_10
REMARK   10  A    between atoms: C_11  and  C_13
REMARK   11  A    between atoms: C_17  and  C_18
REMARK   12  A    between atoms: C_21  and  C_22
REMARK   13  A    between atoms: C_24  and  N_25
REMARK                            x       y       z     vdW  Elec       q    Type
REMARK                         _______ _______ _______ _____ _____    ______ ____
ROOT
ATOM      1  C   UNL     1       0.818  10.450  18.644  0.00  0.00    +0.000 A 
ATOM      2  C   UNL     1       1.591  11.616  18.667  0.00  0.00    +0.000 A 
ATOM      3  C   UNL     1       0.975  12.865  18.654  0.00  0.00    +0.000 A 
ATOM      4  C   UNL     1      -0.419  12.956  18.578  0.00  0.00    +0.000 A 
ATOM      5  C   UNL     1      -1.231  11.813  18.529  0.00  0.00    +0.000 A 
ATOM      6  C   UNL     1      -0.578  10.568  18.653  0.00  0.00    +0.000 A 
ENDROOT
BRANCH   5   7
ATOM      7  C   UNL     1      -2.706  11.877  18.311  0.00  0.00    +0.000 A 
ATOM      8  C   UNL     1      -3.572  12.166  19.381  0.00  0.00    +0.000 A 
ATOM      9  C   UNL     1      -4.955  12.178  19.214  0.00  0.00    +0.000 A 
ATOM     10  C   UNL     1      -5.470  11.924  17.956  0.00  0.00    +0.000 A 
ATOM     11  C   UNL     1      -6.944  11.989  17.700  0.00  0.00    +0.000 C 
ATOM     12  N   UNL     1      -4.679  11.632  16.900  0.00  0.00    +0.000 NA
ATOM     13  C   UNL     1      -3.340  11.596  17.083  0.00  0.00    +0.000 A 
BRANCH  13  14
ATOM     14  N   UNL     1      -2.642  11.252  15.924  0.00  0.00    +0.000 N 
ATOM     15  H   UNL     1      -1.793  11.811  15.924  0.00  0.00    +0.000 HD
ATOM     16  H   UNL     1      -3.204  11.409  15.096  0.00  0.00    +0.000 HD
ENDBRANCH  13  14
ENDBRANCH   5   7
BRANCH   1  18
ATOM     17  N   UNL     1       1.518   8.283  19.776  0.00  0.00    +0.000 N 
ATOM     18  C   UNL     1       1.532   9.145  18.653  0.00  0.00    +0.000 C 
ATOM     19  O   UNL     1       2.130   8.837  17.616  0.00  0.00    +0.000 OA
BRANCH  17  20
ATOM     20  C   UNL     1       0.724   8.503  20.994  0.00  0.00    +0.000 C 
ATOM     21  C   UNL     1       1.329   9.370  22.085  0.00  0.00    +0.000 C 
ENDBRANCH  17  20
BRANCH  17  22
ATOM     22  C   UNL     1       2.369   7.078  19.675  0.00  0.00    +0.000 C 
BRANCH  22  23
ATOM     23  C   UNL     1       1.897   5.887  20.558  0.00  0.00    +0.000 C 
BRANCH  23  24
ATOM     24  N   UNL     1       2.614   4.598  20.355  0.00  0.00    +0.000 NA
BRANCH  24  26
ATOM     25  C   UNL     1       2.893   2.319  21.444  0.00  0.00    +0.000 C 
ATOM     26  C   UNL     1       1.984   3.506  21.125  0.00  0.00    +0.000 C 
ENDBRANCH  24  26
BRANCH  24  27
ATOM     27  C   UNL     1       2.741   4.293  18.915  0.00  0.00    +0.000 C 
ATOM     28  C   UNL     1       1.480   3.802  18.203  0.00  0.00    +0.000 C 
ENDBRANCH  24  27
ENDBRANCH  23  24
ENDBRANCH  22  23
ENDBRANCH  17  22
ENDBRANCH   1  18
TORSDOF 9
ENDMDL
MODEL 3
REMARK VINA RESULT:      -6.8      0.650      1.421
REMARK  Name = 
REMARK  13 active torsions:
REMARK  status: ('A' for Active; 'I' for Inactive)
REMARK    1  A    between atoms: C_1  and  C_2
REMARK    2  A    between atoms: C_2  and  N_3
REMARK    3  A    between atoms: N_3  and  C_4
REMARK    4  A    between atoms: N_3  and  C_6
REMARK    5  A    between atoms: C_4  and  C_5
REMARK    6  A    between atoms: C_6  and  C_7
REMARK    7  A    between atoms: C_7  and  N_8
REMARK    8  A    between atoms: N_8  and  C_9
REMARK    9  A    between atoms: C_9  and  C_10
REMARK   10  A    between atoms: C_11  and  C_13
REMARK   11  A    between atoms: C_17  and  C_18
REMARK   12  A    between atoms: C_21  and  C_22
REMARK   13  A    between atoms: C_24  and  N_25
REMARK                            x       y       z     vdW  Elec       q    Type
REMARK                         _______ _______ _______ _____ _____    ______ ____
ROOT
ATOM      1  C   UNL     1       3.664   4.914  18.569  0.00  0.00    +0.000 A 
ATOM      2  C   UNL     1       3.333   4.109  19.664  0.00  0.00    +0.000 A 
ATOM      3  C   UNL     1       2.433   4.567  20.623  0.00  0.00    +0.000 A 
ATOM      4  C   UNL     1       1.886   5.850  20.512  0.00  0.00    +0.000 A 
ATOM      5  C   UNL     1       2.208   6.699  19.442  0.00  0.00    +0.000 A 
ATOM      6  C   UNL     1       3.039   6.161  18.437  0.00  0.00    +0.000 A 
ENDROOT
BRANCH   5   7
ATOM      7  C   UNL     1       1.750   8.117  19.369  0.00  0.00    +0.000 A 
ATOM      8  C   UNL     1       1.702   8.787  18.133  0.00  0.00    +0.000 A 
ATOM      9  C   UNL     1       1.330  10.126  18.046  0.00  0.00    +0.000 A 
ATOM     10  C   UNL     1       0.977  10.790  19.207  0.00  0.00    +0.000 A 
ATOM     11  C   UNL     1       0.503  12.210  19.169  0.00  0.00    +0.000 C 
ATOM     12  N   UNL     1       1.016  10.192  20.418  0.00  0.00    +0.000 NA
ATOM     13  C   UNL     1       1.406   8.900  20.491  0.00  0.00    +0.000 A 
BRANCH  13  14
ATOM     14  N   UNL     1       1.433   8.413  21.799  0.00  0.00    +0.000 N 
ATOM     15  H   UNL     1       1.361   7.401  21.730  0.00  0.00    +0.000 HD
ATOM     16  H   UNL     1       0.687   8.813  22.355  0.00  0.00    +0.000 HD
ENDBRANCH  13  14
ENDBRANCH   5   7
BRANCH   1  18
ATOM     17  N   UNL     1       5.943   4.902  17.440  0.00  0.00    +0.000 N 
ATOM     18  C   UNL     1       4.637   4.375  17.581  0.00  0.00    +0.000 C 
ATOM     19  O   UNL     1       4.253   3.421  16.894  0.00  0.00    +0.000 OA
BRANCH  17  20
ATOM     20  C   UNL     1       6.528   5.938  18.305  0.00  0.00    +0.000 C 
ATOM     21  C   UNL     1       7.844   5.620  18.997  0.00  0.00    +0.000 C 
ENDBRANCH  17  20
BRANCH  17  22
ATOM     22  C   UNL     1       6.751   4.339  16.338  0.00  0.00    +0.000 C 
BRANCH  22  23
ATOM     23  C   UNL     1       7.226   5.389  15.293  0.00  0.00    +0.000 C 
BRANCH  23  24
ATOM     24  N   UNL     1       6.909   5.085  13.870  0.00  0.00    +0.000 NA
BRANCH  24  26
ATOM     25  C   UNL     1       7.943   6.093  11.778  0.00  0.00    +0.000 C 
ATOM     26  C   UNL     1       8.107   5.208  13.015  0.00  0.00    +0.000 C 
ENDBRANCH  24  26
BRANCH  24  27
ATOM     27  C   UNL     1       6.246   3.769  13.752  0.00  0.00    +0.000 C 
ATOM     28  C   UNL     1       5.564   3.461  12.418  0.00  0.00    +0.000 C 
ENDBRANCH  24  27
ENDBRANCH  23  24
ENDBRANCH  22  23
ENDBRANCH  17  22
ENDBRANCH   1  18
TORSDOF 9
ENDMDL
MODEL 4
REMARK VINA RESULT:      -6.7      3.779      7.016
REMARK  Name = 
REMARK  13 active torsions:
REMARK  status: ('A' for Active; 'I' for Inactive)
REMARK    1  A    between atoms: C_1  and  C_2
REMARK    2  A    between atoms: C_2  and  N_3
REMARK    3  A    between atoms: N_3  and  C_4
REMARK    4  A    between atoms: N_3  and  C_6
REMARK    5  A    between atoms: C_4  and  C_5
REMARK    6  A    between atoms: C_6  and  C_7
REMARK    7  A    between atoms: C_7  and  N_8
REMARK    8  A    between atoms: N_8  and  C_9
REMARK    9  A    between atoms: C_9  and  C_10
REMARK   10  A    between atoms: C_11  and  C_13
REMARK   11  A    between atoms: C_17  and  C_18
REMARK   12  A    between atoms: C_21  and  C_22
REMARK   13  A    between atoms: C_24  and  N_25
REMARK                            x       y       z     vdW  Elec       q    Type
REMARK                         _______ _______ _______ _____ _____    ______ ____
ROOT
ATOM      1  C   UNL     1       0.857  10.379  18.567  0.00  0.00    +0.000 A 
ATOM      2  C   UNL     1       1.596  11.566  18.613  0.00  0.00    +0.000 A 
ATOM      3  C   UNL     1       0.944  12.795  18.671  0.00  0.00    +0.000 A 
ATOM      4  C   UNL     1      -0.455  12.847  18.644  0.00  0.00    +0.000 A 
ATOM      5  C   UNL     1      -1.234  11.682  18.575  0.00  0.00    +0.000 A 
ATOM      6  C   UNL     1      -0.540  10.454  18.626  0.00  0.00    +0.000 A 
ENDROOT
BRANCH   5   7
ATOM      7  C   UNL     1      -2.716  11.709  18.407  0.00  0.00    +0.000 A 
ATOM      8  C   UNL     1      -3.302  11.325  17.188  0.00  0.00    +0.000 A 
ATOM      9  C   UNL     1      -4.679  11.393  16.990  0.00  0.00    +0.000 A 
ATOM     10  C   UNL     1      -5.476  11.828  18.033  0.00  0.00    +0.000 A 
ATOM     11  C   UNL     1      -6.967  11.860  17.903  0.00  0.00    +0.000 C 
ATOM     12  N   UNL     1      -4.958  12.217  19.219  0.00  0.00    +0.000 NA
ATOM     13  C   UNL     1      -3.618  12.172  19.388  0.00  0.00    +0.000 A 
BRANCH  13  14
ATOM     14  N   UNL     1      -3.212  12.630  20.643  0.00  0.00    +0.000 N 
ATOM     15  H   UNL     1      -2.652  13.462  20.477  0.00  0.00    +0.000 HD
ATOM     16  H   UNL     1      -2.698  11.917  21.146  0.00  0.00    +0.000 HD
ENDBRANCH  13  14
ENDBRANCH   5   7
BRANCH   1  18
ATOM     17  N   UNL     1       1.663   8.192  19.586  0.00  0.00    +0.000 N 
ATOM     18  C   UNL     1       1.609   9.097  18.499  0.00  0.00    +0.000 C 
ATOM     19  O   UNL     1       2.177   8.848  17.429  0.00  0.00    +0.000 OA
BRANCH  17  20
ATOM     20  C   UNL     1       0.908   8.341  20.840  0.00  0.00    +0.000 C 
ATOM     21  C   UNL     1       1.505   9.224  21.923  0.00  0.00    +0.000 C 
ENDBRANCH  17  20
BRANCH  17  22
ATOM     22  C   UNL     1       2.544   7.019  19.407  0.00  0.00    +0.000 C 
BRANCH  22  23
ATOM     23  C   UNL     1       2.122   5.771  20.234  0.00  0.00    +0.000 C 
BRANCH  23  24
ATOM     24  N   UNL     1       3.006   4.579  20.116  0.00  0.00    +0.000 NA
BRANCH  24  26
ATOM     25  C   UNL     1       1.671   2.972  21.564  0.00  0.00    +0.000 C 
ATOM     26  C   UNL     1       2.228   3.325  20.185  0.00  0.00    +0.000 C 
ENDBRANCH  24  26
BRANCH  24  27
ATOM     27  C   UNL     1       3.850   4.672  18.907  0.00  0.00    +0.000 C 
ATOM     28  C   UNL     1       5.363   4.611  19.119  0.00  0.00    +0.000 C 
ENDBRANCH  24  27
ENDBRANCH  23  24
ENDBRANCH  22  23
ENDBRANCH  17  22
ENDBRANCH   1  18
TORSDOF 9
ENDMDL
MODEL 5
REMARK VINA RESULT:      -6.7      2.045      8.183
REMARK  Name = 
REMARK  13 active torsions:
REMARK  status: ('A' for Active; 'I' for Inactive)
REMARK    1  A    between atoms: C_1  and  C_2
REMARK    2  A    between atoms: C_2  and  N_3
REMARK    3  A    between atoms: N_3  and  C_4
REMARK    4  A    between atoms: N_3  and  C_6
REMARK    5  A    between atoms: C_4  and  C_5
REMARK    6  A    between atoms: C_6  and  C_7
REMARK    7  A    between atoms: C_7  and  N_8
REMARK    8  A    between atoms: N_8  and  C_9
REMARK    9  A    between atoms: C_9  and  C_10
REMARK   10  A    between atoms: C_11  and  C_13
REMARK   11  A    between atoms: C_17  and  C_18
REMARK   12  A    between atoms: C_21  and  C_22
REMARK   13  A    between atoms: C_24  and  N_25
REMARK                            x       y       z     vdW  Elec       q    Type
REMARK                         _______ _______ _______ _____ _____    ______ ____
ROOT
ATOM      1  C   UNL     1       2.569   4.884  19.068  0.00  0.00    +0.000 A 
ATOM      2  C   UNL     1       1.855   3.682  19.020  0.00  0.00    +0.000 A 
ATOM      3  C   UNL     1       2.241   2.674  18.141  0.00  0.00    +0.000 A 
ATOM      4  C   UNL     1       3.321   2.877  17.274  0.00  0.00    +0.000 A 
ATOM      5  C   UNL     1       4.050   4.077  17.274  0.00  0.00    +0.000 A 
ATOM      6  C   UNL     1       3.697   5.031  18.251  0.00  0.00    +0.000 A 
ENDROOT
BRANCH   5   7
ATOM      7  C   UNL     1       5.115   4.374  16.273  0.00  0.00    +0.000 A 
ATOM      8  C   UNL     1       4.795   4.504  14.909  0.00  0.00    +0.000 A 
ATOM      9  C   UNL     1       5.779   4.728  13.950  0.00  0.00    +0.000 A 
ATOM     10  C   UNL     1       7.092   4.848  14.366  0.00  0.00    +0.000 A 
ATOM     11  C   UNL     1       8.185   5.156  13.390  0.00  0.00    +0.000 C 
ATOM     12  N   UNL     1       7.450   4.722  15.663  0.00  0.00    +0.000 NA
ATOM     13  C   UNL     1       6.488   4.477  16.580  0.00  0.00    +0.000 A 
BRANCH  13  14
ATOM     14  N   UNL     1       6.993   4.336  17.874  0.00  0.00    +0.000 N 
ATOM     15  H   UNL     1       8.004   4.402  17.796  0.00  0.00    +0.000 HD
ATOM     16  H   UNL     1       6.698   3.462  18.291  0.00  0.00    +0.000 HD
ENDBRANCH  13  14
ENDBRANCH   5   7
BRANCH   1  18
ATOM     17  N   UNL     1       2.191   7.311  19.733  0.00  0.00    +0.000 N 
ATOM     18  C   UNL     1       2.105   5.927  20.023  0.00  0.00    +0.000 C 
ATOM     19  O   UNL     1       1.620   5.524  21.087  0.00  0.00    +0.000 OA
BRANCH  17  20
ATOM     20  C   UNL     1       2.622   7.873  18.444  0.00  0.00    +0.000 C 
ATOM     21  C   UNL     1       1.712   8.890  17.777  0.00  0.00    +0.000 C 
ENDBRANCH  17  20
BRANCH  17  22
ATOM     22  C   UNL     1       1.799   8.225  20.827  0.00  0.00    +0.000 C 
BRANCH  22  23
ATOM     23  C   UNL     1       0.391   8.864  20.651  0.00  0.00    +0.000 C 
BRANCH  23  24
ATOM     24  N   UNL     1       0.227  10.242  21.189  0.00  0.00    +0.000 NA
BRANCH  24  26
ATOM     25  C   UNL     1      -1.287  10.645  19.187  0.00  0.00    +0.000 C 
ATOM     26  C   UNL     1      -0.215  11.180  20.136  0.00  0.00    +0.000 C 
ENDBRANCH  24  26
BRANCH  24  27
ATOM     27  C   UNL     1      -0.659  10.240  22.371  0.00  0.00    +0.000 C 
ATOM     28  C   UNL     1      -1.118  11.605  22.887  0.00  0.00    +0.000 C 
ENDBRANCH  24  27
ENDBRANCH  23  24
ENDBRANCH  22  23
ENDBRANCH  17  22
ENDBRANCH   1  18
TORSDOF 9
ENDMDL
MODEL 6
REMARK VINA RESULT:      -6.7      1.383      2.068
REMARK  Name = 
REMARK  13 active torsions:
REMARK  status: ('A' for Active; 'I' for Inactive)
REMARK    1  A    between atoms: C_1  and  C_2
REMARK    2  A    between atoms: C_2  and  N_3
REMARK    3  A    between atoms: N_3  and  C_4
REMARK    4  A    between atoms: N_3  and  C_6
REMARK    5  A    between atoms: C_4  and  C_5
REMARK    6  A    between atoms: C_6  and  C_7
REMARK    7  A    between atoms: C_7  and  N_8
REMARK    8  A    between atoms: N_8  and  C_9
REMARK    9  A    between atoms: C_9  and  C_10
REMARK   10  A    between atoms: C_11  and  C_13
REMARK   11  A    between atoms: C_17  and  C_18
REMARK   12  A    between atoms: C_21  and  C_22
REMARK   13  A    between atoms: C_24  and  N_25
REMARK                            x       y       z     vdW  Elec       q    Type
REMARK                         _______ _______ _______ _____ _____    ______ ____
ROOT
ATOM      1  C   UNL     1       3.689   4.485  19.151  0.00  0.00    +0.000 A 
ATOM      2  C   UNL     1       3.139   3.548  20.032  0.00  0.00    +0.000 A 
ATOM      3  C   UNL     1       2.090   3.910  20.874  0.00  0.00    +0.000 A 
ATOM      4  C   UNL     1       1.611   5.225  20.868  0.00  0.00    +0.000 A 
ATOM      5  C   UNL     1       2.150   6.202  20.017  0.00  0.00    +0.000 A 
ATOM      6  C   UNL     1       3.136   5.771  19.104  0.00  0.00    +0.000 A 
ENDROOT
BRANCH   5   7
ATOM      7  C   UNL     1       1.755   7.639  20.083  0.00  0.00    +0.000 A 
ATOM      8  C   UNL     1       1.249   8.184  21.277  0.00  0.00    +0.000 A 
ATOM      9  C   UNL     1       0.823   9.508  21.349  0.00  0.00    +0.000 A 
ATOM     10  C   UNL     1       0.930  10.298  20.219  0.00  0.00    +0.000 A 
ATOM     11  C   UNL     1       0.551  11.746  20.253  0.00  0.00    +0.000 C 
ATOM     12  N   UNL     1       1.400   9.817  19.048  0.00  0.00    +0.000 NA
ATOM     13  C   UNL     1       1.784   8.523  18.984  0.00  0.00    +0.000 A 
BRANCH  13  14
ATOM     14  N   UNL     1       2.218   8.146  17.713  0.00  0.00    +0.000 N 
ATOM     15  H   UNL     1       2.062   8.946  17.107  0.00  0.00    +0.000 HD
ATOM     16  H   UNL     1       1.731   7.320  17.388  0.00  0.00    +0.000 HD
ENDBRANCH  13  14
ENDBRANCH   5   7
BRANCH   1  18
ATOM     17  N   UNL     1       6.111   4.596  18.380  0.00  0.00    +0.000 N 
ATOM     18  C   UNL     1       4.812   4.041  18.281  0.00  0.00    +0.000 C 
ATOM     19  O   UNL     1       4.559   3.143  17.469  0.00  0.00    +0.000 OA
BRANCH  17  20
ATOM     20  C   UNL     1       6.534   5.564  19.404  0.00  0.00    +0.000 C 
ATOM     21  C   UNL     1       8.019   5.868  19.517  0.00  0.00    +0.000 C 
ENDBRANCH  17  20
BRANCH  17  22
ATOM     22  C   UNL     1       7.088   4.136  17.371  0.00  0.00    +0.000 C 
BRANCH  22  23
ATOM     23  C   UNL     1       7.166   5.034  16.102  0.00  0.00    +0.000 C 
BRANCH  23  24
ATOM     24  N   UNL     1       6.260   4.661  14.982  0.00  0.00    +0.000 NA
BRANCH  24  26
ATOM     25  C   UNL     1       5.088   6.762  15.803  0.00  0.00    +0.000 C 
ATOM     26  C   UNL     1       5.015   5.456  15.011  0.00  0.00    +0.000 C 
ENDBRANCH  24  26
BRANCH  24  27
ATOM     27  C   UNL     1       6.969   4.743  13.687  0.00  0.00    +0.000 C 
ATOM     28  C   UNL     1       6.559   3.732  12.615  0.00  0.00    +0.000 C 
ENDBRANCH  24  27
ENDBRANCH  23  24
ENDBRANCH  22  23
ENDBRANCH  17  22
ENDBRANCH   1  18
TORSDOF 9
ENDMDL
MODEL 7
REMARK VINA RESULT:      -6.7      2.399      8.284
REMARK  Name = 
REMARK  13 active torsions:
REMARK  status: ('A' for Active; 'I' for Inactive)
REMARK    1  A    between atoms: C_1  and  C_2
REMARK    2  A    between atoms: C_2  and  N_3
REMARK    3  A    between atoms: N_3  and  C_4
REMARK    4  A    between atoms: N_3  and  C_6
REMARK    5  A    between atoms: C_4  and  C_5
REMARK    6  A    between atoms: C_6  and  C_7
REMARK    7  A    between atoms: C_7  and  N_8
REMARK    8  A    between atoms: N_8  and  C_9
REMARK    9  A    between atoms: C_9  and  C_10
REMARK   10  A    between atoms: C_11  and  C_13
REMARK   11  A    between atoms: C_17  and  C_18
REMARK   12  A    between atoms: C_21  and  C_22
REMARK   13  A    between atoms: C_24  and  N_25
REMARK                            x       y       z     vdW  Elec       q    Type
REMARK                         _______ _______ _______ _____ _____    ______ ____
ROOT
ATOM      1  C   UNL     1       1.859   6.885  20.349  0.00  0.00    +0.000 A 
ATOM      2  C   UNL     1       1.211   5.748  20.845  0.00  0.00    +0.000 A 
ATOM      3  C   UNL     1       1.636   4.478  20.465  0.00  0.00    +0.000 A 
ATOM      4  C   UNL     1       2.690   4.336  19.555  0.00  0.00    +0.000 A 
ATOM      5  C   UNL     1       3.352   5.450  19.015  0.00  0.00    +0.000 A 
ATOM      6  C   UNL     1       2.964   6.715  19.505  0.00  0.00    +0.000 A 
ENDROOT
BRANCH   5   7
ATOM      7  C   UNL     1       4.383   5.336  17.943  0.00  0.00    +0.000 A 
ATOM      8  C   UNL     1       4.320   6.158  16.803  0.00  0.00    +0.000 A 
ATOM      9  C   UNL     1       5.240   6.032  15.765  0.00  0.00    +0.000 A 
ATOM     10  C   UNL     1       6.246   5.091  15.884  0.00  0.00    +0.000 A 
ATOM     11  C   UNL     1       7.303   4.956  14.831  0.00  0.00    +0.000 C 
ATOM     12  N   UNL     1       6.342   4.273  16.954  0.00  0.00    +0.000 NA
ATOM     13  C   UNL     1       5.426   4.386  17.942  0.00  0.00    +0.000 A 
BRANCH  13  14
ATOM     14  N   UNL     1       5.619   3.463  18.971  0.00  0.00    +0.000 N 
ATOM     15  H   UNL     1       5.978   2.618  18.535  0.00  0.00    +0.000 HD
ATOM     16  H   UNL     1       4.760   3.296  19.481  0.00  0.00    +0.000 HD
ENDBRANCH  13  14
ENDBRANCH   5   7
BRANCH   1  18
ATOM     17  N   UNL     1       1.166   9.287  19.878  0.00  0.00    +0.000 N 
ATOM     18  C   UNL     1       1.354   8.215  20.784  0.00  0.00    +0.000 C 
ATOM     19  O   UNL     1       1.088   8.337  21.986  0.00  0.00    +0.000 OA
BRANCH  17  20
ATOM     20  C   UNL     1       1.325   9.190  18.419  0.00  0.00    +0.000 C 
ATOM     21  C   UNL     1       2.083  10.304  17.716  0.00  0.00    +0.000 C 
ENDBRANCH  17  20
BRANCH  17  22
ATOM     22  C   UNL     1       0.772  10.579  20.480  0.00  0.00    +0.000 C 
BRANCH  22  23
ATOM     23  C   UNL     1      -0.736  10.924  20.317  0.00  0.00    +0.000 C 
BRANCH  23  24
ATOM     24  N   UNL     1      -1.046  12.135  19.508  0.00  0.00    +0.000 NA
BRANCH  24  26
ATOM     25  C   UNL     1      -2.092  10.321  18.066  0.00  0.00    +0.000 C 
ATOM     26  C   UNL     1      -1.626  11.772  18.199  0.00  0.00    +0.000 C 
ENDBRANCH  24  26
BRANCH  24  27
ATOM     27  C   UNL     1      -1.891  13.074  20.275  0.00  0.00    +0.000 C 
ATOM     28  C   UNL     1      -3.382  12.743  20.360  0.00  0.00    +0.000 C 
ENDBRANCH  24  27
ENDBRANCH  23  24
ENDBRANCH  22  23
ENDBRANCH  17  22
ENDBRANCH   1  18
TORSDOF 9
ENDMDL
MODEL 8
REMARK VINA RESULT:      -6.7      1.916      7.870
REMARK  Name = 
REMARK  13 active torsions:
REMARK  status: ('A' for Active; 'I' for Inactive)
REMARK    1  A    between atoms: C_1  and  C_2
REMARK    2  A    between atoms: C_2  and  N_3
REMARK    3  A    between atoms: N_3  and  C_4
REMARK    4  A    between atoms: N_3  and  C_6
REMARK    5  A    between atoms: C_4  and  C_5
REMARK    6  A    between atoms: C_6  and  C_7
REMARK    7  A    between atoms: C_7  and  N_8
REMARK    8  A    between atoms: N_8  and  C_9
REMARK    9  A    between atoms: C_9  and  C_10
REMARK   10  A    between atoms: C_11  and  C_13
REMARK   11  A    between atoms: C_17  and  C_18
REMARK   12  A    between atoms: C_21  and  C_22
REMARK   13  A    between atoms: C_24  and  N_25
REMARK                            x       y       z     vdW  Elec       q    Type
REMARK                         _______ _______ _______ _____ _____    ______ ____
ROOT
ATOM      1  C   UNL     1       2.615   3.969  19.241  0.00  0.00    +0.000 A 
ATOM      2  C   UNL     1       2.360   2.599  19.362  0.00  0.00    +0.000 A 
ATOM      3  C   UNL     1       3.095   1.681  18.616  0.00  0.00    +0.000 A 
ATOM      4  C   UNL     1       4.065   2.131  17.712  0.00  0.00    +0.000 A 
ATOM      5  C   UNL     1       4.336   3.498  17.543  0.00  0.00    +0.000 A 
ATOM      6  C   UNL     1       3.648   4.389  18.393  0.00  0.00    +0.000 A 
ENDROOT
BRANCH   5   7
ATOM      7  C   UNL     1       5.263   4.014  16.494  0.00  0.00    +0.000 A 
ATOM      8  C   UNL     1       4.844   4.104  15.155  0.00  0.00    +0.000 A 
ATOM      9  C   UNL     1       5.708   4.531  14.150  0.00  0.00    +0.000 A 
ATOM     10  C   UNL     1       6.996   4.895  14.497  0.00  0.00    +0.000 A 
ATOM     11  C   UNL     1       7.950   5.425  13.472  0.00  0.00    +0.000 C 
ATOM     12  N   UNL     1       7.448   4.815  15.768  0.00  0.00    +0.000 NA
ATOM     13  C   UNL     1       6.607   4.373  16.729  0.00  0.00    +0.000 A 
BRANCH  13  14
ATOM     14  N   UNL     1       7.206   4.308  17.988  0.00  0.00    +0.000 N 
ATOM     15  H   UNL     1       6.509   4.632  18.654  0.00  0.00    +0.000 HD
ATOM     16  H   UNL     1       8.053   4.862  18.021  0.00  0.00    +0.000 HD
ENDBRANCH  13  14
ENDBRANCH   5   7
BRANCH   1  18
ATOM     17  N   UNL     1       1.987   6.304  20.032  0.00  0.00    +0.000 N 
ATOM     18  C   UNL     1       1.793   4.901  20.059  0.00  0.00    +0.000 C 
ATOM     19  O   UNL     1       0.911   4.390  20.758  0.00  0.00    +0.000 OA
BRANCH  17  20
ATOM     20  C   UNL     1       2.915   7.006  19.132  0.00  0.00    +0.000 C 
ATOM     21  C   UNL     1       2.355   7.554  17.830  0.00  0.00    +0.000 C 
ENDBRANCH  17  20
BRANCH  17  22
ATOM     22  C   UNL     1       1.173   7.086  20.986  0.00  0.00    +0.000 C 
BRANCH  22  23
ATOM     23  C   UNL     1       1.489   8.610  20.995  0.00  0.00    +0.000 C 
BRANCH  23  24
ATOM     24  N   UNL     1       0.382   9.510  20.572  0.00  0.00    +0.000 NA
BRANCH  24  26
ATOM     25  C   UNL     1       0.026   9.518  23.089  0.00  0.00    +0.000 C 
ATOM     26  C   UNL     1      -0.246  10.172  21.733  0.00  0.00    +0.000 C 
ENDBRANCH  24  26
BRANCH  24  27
ATOM     27  C   UNL     1       0.848  10.464  19.544  0.00  0.00    +0.000 C 
ATOM     28  C   UNL     1       0.596  11.947  19.820  0.00  0.00    +0.000 C 
ENDBRANCH  24  27
ENDBRANCH  23  24
ENDBRANCH  22  23
ENDBRANCH  17  22
ENDBRANCH   1  18
TORSDOF 9
ENDMDL
MODEL 9
REMARK VINA RESULT:      -6.6      2.240      8.423
REMARK  Name = 
REMARK  13 active torsions:
REMARK  status: ('A' for Active; 'I' for Inactive)
REMARK    1  A    between atoms: C_1  and  C_2
REMARK    2  A    between atoms: C_2  and  N_3
REMARK    3  A    between atoms: N_3  and  C_4
REMARK    4  A    between atoms: N_3  and  C_6
REMARK    5  A    between atoms: C_4  and  C_5
REMARK    6  A    between atoms: C_6  and  C_7
REMARK    7  A    between atoms: C_7  and  N_8
REMARK    8  A    between atoms: N_8  and  C_9
REMARK    9  A    between atoms: C_9  and  C_10
REMARK   10  A    between atoms: C_11  and  C_13
REMARK   11  A    between atoms: C_17  and  C_18
REMARK   12  A    between atoms: C_21  and  C_22
REMARK   13  A    between atoms: C_24  and  N_25
REMARK                            x       y       z     vdW  Elec       q    Type
REMARK                         _______ _______ _______ _____ _____    ______ ____
ROOT
ATOM      1  C   UNL     1       2.707   7.355  18.493  0.00  0.00    +0.000 A 
ATOM      2  C   UNL     1       2.368   6.372  19.428  0.00  0.00    +0.000 A 
ATOM      3  C   UNL     1       3.001   5.132  19.401  0.00  0.00    +0.000 A 
ATOM      4  C   UNL     1       3.951   4.853  18.411  0.00  0.00    +0.000 A 
ATOM      5  C   UNL     1       4.303   5.803  17.440  0.00  0.00    +0.000 A 
ATOM      6  C   UNL     1       3.720   7.082  17.565  0.00  0.00    +0.000 A 
ENDROOT
BRANCH   5   7
ATOM      7  C   UNL     1       5.208   5.491  16.295  0.00  0.00    +0.000 A 
ATOM      8  C   UNL     1       4.806   4.586  15.296  0.00  0.00    +0.000 A 
ATOM      9  C   UNL     1       5.654   4.238  14.248  0.00  0.00    +0.000 A 
ATOM     10  C   UNL     1       6.905   4.823  14.188  0.00  0.00    +0.000 A 
ATOM     11  C   UNL     1       7.835   4.539  13.049  0.00  0.00    +0.000 C 
ATOM     12  N   UNL     1       7.339   5.690  15.129  0.00  0.00    +0.000 NA
ATOM     13  C   UNL     1       6.517   5.998  16.156  0.00  0.00    +0.000 A 
BRANCH  13  14
ATOM     14  N   UNL     1       7.097   6.877  17.072  0.00  0.00    +0.000 N 
ATOM     15  H   UNL     1       7.643   7.539  16.529  0.00  0.00    +0.000 HD
ATOM     16  H   UNL     1       7.662   6.381  17.751  0.00  0.00    +0.000 HD
ENDBRANCH  13  14
ENDBRANCH   5   7
BRANCH   1  18
ATOM     17  N   UNL     1       1.333   9.094  19.742  0.00  0.00    +0.000 N 
ATOM     18  C   UNL     1       1.991   8.658  18.567  0.00  0.00    +0.000 C 
ATOM     19  O   UNL     1       2.014   9.358  17.548  0.00  0.00    +0.000 OA
BRANCH  17  20
ATOM     20  C   UNL     1       1.372   8.393  21.035  0.00  0.00    +0.000 C 
ATOM     21  C   UNL     1       0.838   9.129  22.253  0.00  0.00    +0.000 C 
ENDBRANCH  17  20
BRANCH  17  22
ATOM     22  C   UNL     1       0.569  10.354  19.625  0.00  0.00    +0.000 C 
BRANCH  22  23
ATOM     23  C   UNL     1      -0.815  10.200  18.931  0.00  0.00    +0.000 C 
BRANCH  23  24
ATOM     24  N   UNL     1      -1.826  11.245  19.251  0.00  0.00    +0.000 NA
BRANCH  24  26
ATOM     25  C   UNL     1      -0.623  13.220  18.196  0.00  0.00    +0.000 C 
ATOM     26  C   UNL     1      -1.190  12.563  19.455  0.00  0.00    +0.000 C 
ENDBRANCH  24  26
BRANCH  24  27
ATOM     27  C   UNL     1      -2.894  11.269  18.230  0.00  0.00    +0.000 C 
ATOM     28  C   UNL     1      -3.136   9.970  17.459  0.00  0.00    +0.000 C 
ENDBRANCH  24  27
ENDBRANCH  23  24
ENDBRANCH  22  23
ENDBRANCH  17  22
ENDBRANCH   1  18
TORSDOF 9
ENDMDL
