MODEL 1
REMARK VINA RESULT:      -7.4      0.000      0.000
REMARK  Name = 
REMARK  6 active torsions:
REMARK  status: ('A' for Active; 'I' for Inactive)
REMARK    1  A    between atoms: O_1  and  C_2
REMARK    2  A    between atoms: C_2  and  C_3
REMARK    3  A    between atoms: C_6  and  N_7
REMARK    4  A    between atoms: C_11  and  O_12
REMARK    5  A    between atoms: C_17  and  O_18
REMARK    6  A    between atoms: C_19  and  O_20
REMARK                            x       y       z     vdW  Elec       q    Type
REMARK                         _______ _______ _______ _____ _____    ______ ____
ROOT
ATOM      1  C   UNL     1       7.284   5.976  18.234  0.00  0.00    +0.000 C 
ATOM      2  C   UNL     1       7.249   5.474  19.677  0.00  0.00    +0.000 C 
ATOM      3  C   UNL     1       5.971   5.600  18.915  0.00  0.00    +0.000 C 
ATOM      4  C   UNL     1       5.414   4.380  18.203  0.00  0.00    +0.000 C 
ATOM      5  C   UNL     1       5.934   4.550  16.766  0.00  0.00    +0.000 C 
ATOM      6  C   UNL     1       7.371   5.093  16.997  0.00  0.00    +0.000 C 
ENDROOT
BRANCH   4   7
ATOM      7  N   UNL     1       3.994   4.143  18.341  0.00  0.00    +0.000 N 
ATOM      8  C   UNL     1       3.053   4.526  17.411  0.00  0.00    +0.000 A 
ATOM      9  N   UNL     1       1.835   4.160  17.751  0.00  0.00    +0.000 NA
ATOM     10  C   UNL     1       1.999   3.552  18.973  0.00  0.00    +0.000 A 
ATOM     11  C   UNL     1       1.096   2.958  19.850  0.00  0.00    +0.000 A 
ATOM     12  N   UNL     1       1.521   2.428  21.012  0.00  0.00    +0.000 NA
ATOM     13  C   UNL     1       2.845   2.500  21.270  0.00  0.00    +0.000 A 
ATOM     14  N   UNL     1       3.825   3.042  20.512  0.00  0.00    +0.000 NA
ATOM     15  C   UNL     1       3.326   3.544  19.369  0.00  0.00    +0.000 A 
BRANCH  11  16
ATOM     16  O   UNL     1      -0.247   2.882  19.574  0.00  0.00    +0.000 OA
ATOM     17  H   UNL     1      -0.306   2.211  18.868  0.00  0.00    +0.000 HD
ENDBRANCH  11  16
ENDBRANCH   4   7
BRANCH   5  18
ATOM     18  O   UNL     1       5.953   3.312  16.060  0.00  0.00    +0.000 OA
ATOM     19  H   UNL     1       5.388   2.696  16.570  0.00  0.00    +0.000 HD
ENDBRANCH   5  18
BRANCH   6  20
ATOM     20  O   UNL     1       8.279   4.006  17.192  0.00  0.00    +0.000 OA
ATOM     21  H   UNL     1       8.390   3.533  16.351  0.00  0.00    +0.000 HD
ENDBRANCH   6  20
BRANCH   1  22
ATOM     22  C   UNL     1       7.824   7.371  18.047  0.00  0.00    +0.000 C 
BRANCH  22  23
ATOM     23  O   UNL     1       7.138   8.047  17.006  0.00  0.00    +0.000 OA
ATOM     24  H   UNL     1       6.855   8.904  17.371  0.00  0.00    +0.000 HD
ENDBRANCH  22  23
ENDBRANCH   1  22
TORSDOF 6
ENDMDL
MODEL 2
REMARK VINA RESULT:      -7.3      2.185      5.860
REMARK  Name = 
REMARK  6 active torsions:
REMARK  status: ('A' for Active; 'I' for Inactive)
REMARK    1  A    between atoms: O_1  and  C_2
REMARK    2  A    between atoms: C_2  and  C_3
REMARK    3  A    between atoms: C_6  and  N_7
REMARK    4  A    between atoms: C_11  and  O_12
REMARK    5  A    between atoms: C_17  and  O_18
REMARK    6  A    between atoms: C_19  and  O_20
REMARK                            x       y       z     vdW  Elec       q    Type
REMARK                         _______ _______ _______ _____ _____    ______ ____
ROOT
ATOM      1  C   UNL     1       2.255   3.472  20.473  0.00  0.00    +0.000 C 
ATOM      2  C   UNL     1       1.302   4.525  19.907  0.00  0.00    +0.000 C 
ATOM      3  C   UNL     1       2.776   4.726  19.777  0.00  0.00    +0.000 C 
ATOM      4  C   UNL     1       3.470   4.291  18.499  0.00  0.00    +0.000 C 
ATOM      5  C   UNL     1       4.000   2.892  18.852  0.00  0.00    +0.000 C 
ATOM      6  C   UNL     1       2.836   2.301  19.693  0.00  0.00    +0.000 C 
ENDROOT
BRANCH   4   7
ATOM      7  N   UNL     1       4.435   5.214  17.941  0.00  0.00    +0.000 N 
ATOM      8  C   UNL     1       4.234   5.936  16.786  0.00  0.00    +0.000 A 
ATOM      9  N   UNL     1       5.245   6.735  16.513  0.00  0.00    +0.000 NA
ATOM     10  C   UNL     1       6.150   6.481  17.516  0.00  0.00    +0.000 A 
ATOM     11  C   UNL     1       7.412   6.999  17.789  0.00  0.00    +0.000 A 
ATOM     12  N   UNL     1       8.111   6.569  18.856  0.00  0.00    +0.000 NA
ATOM     13  C   UNL     1       7.528   5.629  19.631  0.00  0.00    +0.000 A 
ATOM     14  N   UNL     1       6.318   5.046  19.485  0.00  0.00    +0.000 NA
ATOM     15  C   UNL     1       5.678   5.529  18.405  0.00  0.00    +0.000 A 
BRANCH  11  16
ATOM     16  O   UNL     1       7.992   7.961  16.999  0.00  0.00    +0.000 OA
ATOM     17  H   UNL     1       8.068   8.737  17.587  0.00  0.00    +0.000 HD
ENDBRANCH  11  16
ENDBRANCH   4   7
BRANCH   5  18
ATOM     18  O   UNL     1       4.247   2.110  17.685  0.00  0.00    +0.000 OA
ATOM     19  H   UNL     1       4.477   2.743  16.974  0.00  0.00    +0.000 HD
ENDBRANCH   5  18
BRANCH   6  20
ATOM     20  O   UNL     1       1.860   1.709  18.831  0.00  0.00    +0.000 OA
ATOM     21  H   UNL     1       2.044   0.759  18.752  0.00  0.00    +0.000 HD
ENDBRANCH   6  20
BRANCH   1  22
ATOM     22  C   UNL     1       2.163   3.249  21.961  0.00  0.00    +0.000 C 
BRANCH  22  23
ATOM     23  O   UNL     1       1.347   2.128  22.259  0.00  0.00    +0.000 OA
ATOM     24  H   UNL     1       0.736   2.408  22.962  0.00  0.00    +0.000 HD
ENDBRANCH  22  23
ENDBRANCH   1  22
TORSDOF 6
ENDMDL
MODEL 3
REMARK VINA RESULT:      -7.3      1.855      2.640
REMARK  Name = 
REMARK  6 active torsions:
REMARK  status: ('A' for Active; 'I' for Inactive)
REMARK    1  A    between atoms: O_1  and  C_2
REMARK    2  A    between atoms: C_2  and  C_3
REMARK    3  A    between atoms: C_6  and  N_7
REMARK    4  A    between atoms: C_11  and  O_12
REMARK    5  A    between atoms: C_17  and  O_18
REMARK    6  A    between atoms: C_19  and  O_20
REMARK                            x       y       z     vdW  Elec       q    Type
REMARK                         _______ _______ _______ _____ _____    ______ ____
ROOT
ATOM      1  C   UNL     1       6.225   5.515  15.860  0.00  0.00    +0.000 C 
ATOM      2  C   UNL     1       5.229   6.651  15.627  0.00  0.00    +0.000 C 
ATOM      3  C   UNL     1       4.839   5.502  16.497  0.00  0.00    +0.000 C 
ATOM      4  C   UNL     1       5.020   5.620  18.000  0.00  0.00    +0.000 C 
ATOM      5  C   UNL     1       6.380   4.944  18.239  0.00  0.00    +0.000 C 
ATOM      6  C   UNL     1       7.209   5.431  17.018  0.00  0.00    +0.000 C 
ENDROOT
BRANCH   4   7
ATOM      7  N   UNL     1       3.925   5.152  18.822  0.00  0.00    +0.000 N 
ATOM      8  C   UNL     1       3.264   5.932  19.744  0.00  0.00    +0.000 A 
ATOM      9  N   UNL     1       2.280   5.284  20.333  0.00  0.00    +0.000 NA
ATOM     10  C   UNL     1       2.342   4.022  19.792  0.00  0.00    +0.000 A 
ATOM     11  C   UNL     1       1.579   2.877  20.003  0.00  0.00    +0.000 A 
ATOM     12  N   UNL     1       1.853   1.741  19.336  0.00  0.00    +0.000 NA
ATOM     13  C   UNL     1       2.888   1.776  18.467  0.00  0.00    +0.000 A 
ATOM     14  N   UNL     1       3.703   2.811  18.167  0.00  0.00    +0.000 NA
ATOM     15  C   UNL     1       3.365   3.909  18.865  0.00  0.00    +0.000 A 
BRANCH  11  16
ATOM     16  O   UNL     1       0.524   2.855  20.882  0.00  0.00    +0.000 OA
ATOM     17  H   UNL     1       0.004   2.075  20.611  0.00  0.00    +0.000 HD
ENDBRANCH  11  16
ENDBRANCH   4   7
BRANCH   5  18
ATOM     18  O   UNL     1       6.970   5.363  19.468  0.00  0.00    +0.000 OA
ATOM     19  H   UNL     1       7.869   5.682  19.246  0.00  0.00    +0.000 HD
ENDBRANCH   5  18
BRANCH   6  20
ATOM     20  O   UNL     1       7.796   6.704  17.301  0.00  0.00    +0.000 OA
ATOM     21  H   UNL     1       7.109   7.387  17.246  0.00  0.00    +0.000 HD
ENDBRANCH   6  20
BRANCH   1  22
ATOM     22  C   UNL     1       6.647   4.760  14.624  0.00  0.00    +0.000 C 
BRANCH  22  23
ATOM     23  O   UNL     1       7.817   5.326  14.057  0.00  0.00    +0.000 OA
ATOM     24  H   UNL     1       8.124   4.704  13.375  0.00  0.00    +0.000 HD
ENDBRANCH  22  23
ENDBRANCH   1  22
TORSDOF 6
ENDMDL
MODEL 4
REMARK VINA RESULT:      -7.2      1.941      2.766
REMARK  Name = 
REMARK  6 active torsions:
REMARK  status: ('A' for Active; 'I' for Inactive)
REMARK    1  A    between atoms: O_1  and  C_2
REMARK    2  A    between atoms: C_2  and  C_3
REMARK    3  A    between atoms: C_6  and  N_7
REMARK    4  A    between atoms: C_11  and  O_12
REMARK    5  A    between atoms: C_17  and  O_18
REMARK    6  A    between atoms: C_19  and  O_20
REMARK                            x       y       z     vdW  Elec       q    Type
REMARK                         _______ _______ _______ _____ _____    ______ ____
ROOT
ATOM      1  C   UNL     1       6.389   5.312  15.520  0.00  0.00    +0.000 C 
ATOM      2  C   UNL     1       5.224   6.293  15.385  0.00  0.00    +0.000 C 
ATOM      3  C   UNL     1       5.017   5.006  16.112  0.00  0.00    +0.000 C 
ATOM      4  C   UNL     1       5.161   4.981  17.624  0.00  0.00    +0.000 C 
ATOM      5  C   UNL     1       6.610   4.509  17.825  0.00  0.00    +0.000 C 
ATOM      6  C   UNL     1       7.362   5.256  16.689  0.00  0.00    +0.000 C 
ENDROOT
BRANCH   4   7
ATOM      7  N   UNL     1       4.148   4.254  18.358  0.00  0.00    +0.000 N 
ATOM      8  C   UNL     1       3.994   2.887  18.312  0.00  0.00    +0.000 A 
ATOM      9  N   UNL     1       3.027   2.466  19.100  0.00  0.00    +0.000 NA
ATOM     10  C   UNL     1       2.513   3.620  19.642  0.00  0.00    +0.000 A 
ATOM     11  C   UNL     1       1.477   3.848  20.543  0.00  0.00    +0.000 A 
ATOM     12  N   UNL     1       1.162   5.102  20.918  0.00  0.00    +0.000 NA
ATOM     13  C   UNL     1       1.895   6.103  20.382  0.00  0.00    +0.000 A 
ATOM     14  N   UNL     1       2.920   6.024  19.505  0.00  0.00    +0.000 NA
ATOM     15  C   UNL     1       3.180   4.744  19.184  0.00  0.00    +0.000 A 
BRANCH  11  16
ATOM     16  O   UNL     1       0.745   2.822  21.089  0.00  0.00    +0.000 OA
ATOM     17  H   UNL     1       0.310   3.226  21.863  0.00  0.00    +0.000 HD
ENDBRANCH  11  16
ENDBRANCH   4   7
BRANCH   5  18
ATOM     18  O   UNL     1       7.112   4.875  19.109  0.00  0.00    +0.000 OA
ATOM     19  H   UNL     1       7.030   4.079  19.673  0.00  0.00    +0.000 HD
ENDBRANCH   5  18
BRANCH   6  20
ATOM     20  O   UNL     1       7.732   6.566  17.127  0.00  0.00    +0.000 OA
ATOM     21  H   UNL     1       8.432   6.907  16.546  0.00  0.00    +0.000 HD
ENDBRANCH   6  20
BRANCH   1  22
ATOM     22  C   UNL     1       6.940   4.780  14.221  0.00  0.00    +0.000 C 
BRANCH  22  23
ATOM     23  O   UNL     1       8.053   5.546  13.788  0.00  0.00    +0.000 OA
ATOM     24  H   UNL     1       8.778   5.357  14.409  0.00  0.00    +0.000 HD
ENDBRANCH  22  23
ENDBRANCH   1  22
TORSDOF 6
ENDMDL
MODEL 5
REMARK VINA RESULT:      -7.2      1.203      1.357
REMARK  Name = 
REMARK  6 active torsions:
REMARK  status: ('A' for Active; 'I' for Inactive)
REMARK    1  A    between atoms: O_1  and  C_2
REMARK    2  A    between atoms: C_2  and  C_3
REMARK    3  A    between atoms: C_6  and  N_7
REMARK    4  A    between atoms: C_11  and  O_12
REMARK    5  A    between atoms: C_17  and  O_18
REMARK    6  A    between atoms: C_19  and  O_20
REMARK                            x       y       z     vdW  Elec       q    Type
REMARK                         _______ _______ _______ _____ _____    ______ ____
ROOT
ATOM      1  C   UNL     1       7.601   6.141  18.351  0.00  0.00    +0.000 C 
ATOM      2  C   UNL     1       7.843   5.574  19.750  0.00  0.00    +0.000 C 
ATOM      3  C   UNL     1       6.443   5.820  19.291  0.00  0.00    +0.000 C 
ATOM      4  C   UNL     1       5.655   4.675  18.680  0.00  0.00    +0.000 C 
ATOM      5  C   UNL     1       5.862   4.879  17.170  0.00  0.00    +0.000 C 
ATOM      6  C   UNL     1       7.352   5.313  17.097  0.00  0.00    +0.000 C 
ENDROOT
BRANCH   4   7
ATOM      7  N   UNL     1       4.285   4.527  19.119  0.00  0.00    +0.000 N 
ATOM      8  C   UNL     1       3.584   5.496  19.801  0.00  0.00    +0.000 A 
ATOM      9  N   UNL     1       2.343   5.133  20.052  0.00  0.00    +0.000 NA
ATOM     10  C   UNL     1       2.260   3.858  19.544  0.00  0.00    +0.000 A 
ATOM     11  C   UNL     1       1.218   2.937  19.497  0.00  0.00    +0.000 A 
ATOM     12  N   UNL     1       1.400   1.727  18.936  0.00  0.00    +0.000 NA
ATOM     13  C   UNL     1       2.625   1.466  18.429  0.00  0.00    +0.000 A 
ATOM     14  N   UNL     1       3.716   2.263  18.405  0.00  0.00    +0.000 NA
ATOM     15  C   UNL     1       3.456   3.453  18.976  0.00  0.00    +0.000 A 
BRANCH  11  16
ATOM     16  O   UNL     1      -0.026   3.216  20.008  0.00  0.00    +0.000 OA
ATOM     17  H   UNL     1      -0.061   2.708  20.841  0.00  0.00    +0.000 HD
ENDBRANCH  11  16
ENDBRANCH   4   7
BRANCH   5  18
ATOM     18  O   UNL     1       5.635   3.677  16.438  0.00  0.00    +0.000 OA
ATOM     19  H   UNL     1       5.208   3.053  17.060  0.00  0.00    +0.000 HD
ENDBRANCH   5  18
BRANCH   6  20
ATOM     20  O   UNL     1       8.196   4.160  17.053  0.00  0.00    +0.000 OA
ATOM     21  H   UNL     1       7.735   3.416  17.473  0.00  0.00    +0.000 HD
ENDBRANCH   6  20
BRANCH   1  22
ATOM     22  C   UNL     1       8.192   7.504  18.094  0.00  0.00    +0.000 C 
BRANCH  22  23
ATOM     23  O   UNL     1       7.468   8.190  17.085  0.00  0.00    +0.000 OA
ATOM     24  H   UNL     1       7.078   8.974  17.509  0.00  0.00    +0.000 HD
ENDBRANCH  22  23
ENDBRANCH   1  22
TORSDOF 6
ENDMDL
MODEL 6
REMARK VINA RESULT:      -7.1      2.115      6.129
REMARK  Name = 
REMARK  6 active torsions:
REMARK  status: ('A' for Active; 'I' for Inactive)
REMARK    1  A    between atoms: O_1  and  C_2
REMARK    2  A    between atoms: C_2  and  C_3
REMARK    3  A    between atoms: C_6  and  N_7
REMARK    4  A    between atoms: C_11  and  O_12
REMARK    5  A    between atoms: C_17  and  O_18
REMARK    6  A    between atoms: C_19  and  O_20
REMARK                            x       y       z     vdW  Elec       q    Type
REMARK                         _______ _______ _______ _____ _____    ______ ____
ROOT
ATOM      1  C   UNL     1       1.706   3.015  20.259  0.00  0.00    +0.000 C 
ATOM      2  C   UNL     1       0.990   4.246  19.702  0.00  0.00    +0.000 C 
ATOM      3  C   UNL     1       2.480   4.244  19.792  0.00  0.00    +0.000 C 
ATOM      4  C   UNL     1       3.293   3.844  18.573  0.00  0.00    +0.000 C 
ATOM      5  C   UNL     1       3.581   2.355  18.823  0.00  0.00    +0.000 C 
ATOM      6  C   UNL     1       2.239   1.856  19.428  0.00  0.00    +0.000 C 
ENDROOT
BRANCH   4   7
ATOM      7  N   UNL     1       4.439   4.669  18.261  0.00  0.00    +0.000 N 
ATOM      8  C   UNL     1       5.091   5.463  19.178  0.00  0.00    +0.000 A 
ATOM      9  N   UNL     1       6.128   6.084  18.655  0.00  0.00    +0.000 NA
ATOM     10  C   UNL     1       6.113   5.702  17.334  0.00  0.00    +0.000 A 
ATOM     11  C   UNL     1       6.941   6.017  16.261  0.00  0.00    +0.000 A 
ATOM     12  N   UNL     1       6.701   5.504  15.040  0.00  0.00    +0.000 NA
ATOM     13  C   UNL     1       5.636   4.681  14.920  0.00  0.00    +0.000 A 
ATOM     14  N   UNL     1       4.758   4.293  15.871  0.00  0.00    +0.000 NA
ATOM     15  C   UNL     1       5.064   4.839  17.061  0.00  0.00    +0.000 A 
BRANCH  11  16
ATOM     16  O   UNL     1       8.026   6.847  16.396  0.00  0.00    +0.000 OA
ATOM     17  H   UNL     1       8.666   6.510  15.741  0.00  0.00    +0.000 HD
ENDBRANCH  11  16
ENDBRANCH   4   7
BRANCH   5  18
ATOM     18  O   UNL     1       3.893   1.667  17.614  0.00  0.00    +0.000 OA
ATOM     19  H   UNL     1       4.711   1.159  17.791  0.00  0.00    +0.000 HD
ENDBRANCH   5  18
BRANCH   6  20
ATOM     20  O   UNL     1       1.332   1.501  18.381  0.00  0.00    +0.000 OA
ATOM     21  H   UNL     1       0.475   1.925  18.549  0.00  0.00    +0.000 HD
ENDBRANCH   6  20
BRANCH   1  22
ATOM     22  C   UNL     1       1.370   2.660  21.685  0.00  0.00    +0.000 C 
BRANCH  22  23
ATOM     23  O   UNL     1       2.547   2.460  22.451  0.00  0.00    +0.000 OA
ATOM     24  H   UNL     1       2.256   2.208  23.345  0.00  0.00    +0.000 HD
ENDBRANCH  22  23
ENDBRANCH   1  22
TORSDOF 6
ENDMDL
MODEL 7
REMARK VINA RESULT:      -7.0      1.391      1.870
REMARK  Name = 
REMARK  6 active torsions:
REMARK  status: ('A' for Active; 'I' for Inactive)
REMARK    1  A    between atoms: O_1  and  C_2
REMARK    2  A    between atoms: C_2  and  C_3
REMARK    3  A    between atoms: C_6  and  N_7
REMARK    4  A    between atoms: C_11  and  O_12
REMARK    5  A    between atoms: C_17  and  O_18
REMARK    6  A    between atoms: C_19  and  O_20
REMARK                            x       y       z     vdW  Elec       q    Type
REMARK                         _______ _______ _______ _____ _____    ______ ____
ROOT
ATOM      1  C   UNL     1       7.423   6.116  18.023  0.00  0.00    +0.000 C 
ATOM      2  C   UNL     1       8.127   5.285  19.096  0.00  0.00    +0.000 C 
ATOM      3  C   UNL     1       6.636   5.362  19.091  0.00  0.00    +0.000 C 
ATOM      4  C   UNL     1       5.843   4.269  18.396  0.00  0.00    +0.000 C 
ATOM      5  C   UNL     1       5.575   4.867  17.005  0.00  0.00    +0.000 C 
ATOM      6  C   UNL     1       6.917   5.583  16.690  0.00  0.00    +0.000 C 
ENDROOT
BRANCH   4   7
ATOM      7  N   UNL     1       4.688   3.760  19.102  0.00  0.00    +0.000 N 
ATOM      8  C   UNL     1       4.497   2.433  19.416  0.00  0.00    +0.000 A 
ATOM      9  N   UNL     1       3.388   2.234  20.096  0.00  0.00    +0.000 NA
ATOM     10  C   UNL     1       2.823   3.484  20.185  0.00  0.00    +0.000 A 
ATOM     11  C   UNL     1       1.647   3.939  20.776  0.00  0.00    +0.000 A 
ATOM     12  N   UNL     1       1.312   5.241  20.716  0.00  0.00    +0.000 NA
ATOM     13  C   UNL     1       2.165   6.063  20.067  0.00  0.00    +0.000 A 
ATOM     14  N   UNL     1       3.331   5.758  19.455  0.00  0.00    +0.000 NA
ATOM     15  C   UNL     1       3.601   4.445  19.561  0.00  0.00    +0.000 A 
BRANCH  11  16
ATOM     16  O   UNL     1       0.792   3.095  21.441  0.00  0.00    +0.000 OA
ATOM     17  H   UNL     1       0.971   3.270  22.384  0.00  0.00    +0.000 HD
ENDBRANCH  11  16
ENDBRANCH   4   7
BRANCH   5  18
ATOM     18  O   UNL     1       5.286   3.856  16.042  0.00  0.00    +0.000 OA
ATOM     19  H   UNL     1       5.077   4.324  15.208  0.00  0.00    +0.000 HD
ENDBRANCH   5  18
BRANCH   6  20
ATOM     20  O   UNL     1       7.841   4.658  16.110  0.00  0.00    +0.000 OA
ATOM     21  H   UNL     1       7.583   3.757  16.360  0.00  0.00    +0.000 HD
ENDBRANCH   6  20
BRANCH   1  22
ATOM     22  C   UNL     1       7.749   7.588  18.026  0.00  0.00    +0.000 C 
BRANCH  22  23
ATOM     23  O   UNL     1       7.187   8.236  16.897  0.00  0.00    +0.000 OA
ATOM     24  H   UNL     1       6.869   9.103  17.205  0.00  0.00    +0.000 HD
ENDBRANCH  22  23
ENDBRANCH   1  22
TORSDOF 6
ENDMDL
MODEL 8
REMARK VINA RESULT:      -7.0      2.918      6.075
REMARK  Name = 
REMARK  6 active torsions:
REMARK  status: ('A' for Active; 'I' for Inactive)
REMARK    1  A    between atoms: O_1  and  C_2
REMARK    2  A    between atoms: C_2  and  C_3
REMARK    3  A    between atoms: C_6  and  N_7
REMARK    4  A    between atoms: C_11  and  O_12
REMARK    5  A    between atoms: C_17  and  O_18
REMARK    6  A    between atoms: C_19  and  O_20
REMARK                            x       y       z     vdW  Elec       q    Type
REMARK                         _______ _______ _______ _____ _____    ______ ____
ROOT
ATOM      1  C   UNL     1       2.438   4.886  19.222  0.00  0.00    +0.000 C 
ATOM      2  C   UNL     1       1.799   4.761  17.839  0.00  0.00    +0.000 C 
ATOM      3  C   UNL     1       3.180   5.317  17.960  0.00  0.00    +0.000 C 
ATOM      4  C   UNL     1       4.367   4.388  17.782  0.00  0.00    +0.000 C 
ATOM      5  C   UNL     1       4.724   4.001  19.226  0.00  0.00    +0.000 C 
ATOM      6  C   UNL     1       3.324   3.837  19.879  0.00  0.00    +0.000 C 
ENDROOT
BRANCH   4   7
ATOM      7  N   UNL     1       5.457   4.881  16.968  0.00  0.00    +0.000 N 
ATOM      8  C   UNL     1       6.409   5.772  17.411  0.00  0.00    +0.000 A 
ATOM      9  N   UNL     1       7.316   6.032  16.492  0.00  0.00    +0.000 NA
ATOM     10  C   UNL     1       6.902   5.308  15.400  0.00  0.00    +0.000 A 
ATOM     11  C   UNL     1       7.429   5.163  14.120  0.00  0.00    +0.000 A 
ATOM     12  N   UNL     1       6.815   4.381  13.213  0.00  0.00    +0.000 NA
ATOM     13  C   UNL     1       5.684   3.756  13.610  0.00  0.00    +0.000 A 
ATOM     14  N   UNL     1       5.069   3.806  14.812  0.00  0.00    +0.000 NA
ATOM     15  C   UNL     1       5.741   4.599  15.664  0.00  0.00    +0.000 A 
BRANCH  11  16
ATOM     16  O   UNL     1       8.584   5.796  13.731  0.00  0.00    +0.000 OA
ATOM     17  H   UNL     1       8.914   5.254  12.990  0.00  0.00    +0.000 HD
ENDBRANCH  11  16
ENDBRANCH   4   7
BRANCH   5  18
ATOM     18  O   UNL     1       5.468   2.786  19.279  0.00  0.00    +0.000 OA
ATOM     19  H   UNL     1       6.245   2.965  19.848  0.00  0.00    +0.000 HD
ENDBRANCH   5  18
BRANCH   6  20
ATOM     20  O   UNL     1       2.830   2.515  19.652  0.00  0.00    +0.000 OA
ATOM     21  H   UNL     1       3.376   2.088  18.972  0.00  0.00    +0.000 HD
ENDBRANCH   6  20
BRANCH   1  22
ATOM     22  C   UNL     1       1.718   5.792  20.188  0.00  0.00    +0.000 C 
BRANCH  22  23
ATOM     23  O   UNL     1       2.414   7.017  20.352  0.00  0.00    +0.000 OA
ATOM     24  H   UNL     1       3.134   7.017  19.697  0.00  0.00    +0.000 HD
ENDBRANCH  22  23
ENDBRANCH   1  22
TORSDOF 6
ENDMDL
MODEL 9
REMARK VINA RESULT:      -6.9      2.170      5.905
REMARK  Name = 
REMARK  6 active torsions:
REMARK  status: ('A' for Active; 'I' for Inactive)
REMARK    1  A    between atoms: O_1  and  C_2
REMARK    2  A    between atoms: C_2  and  C_3
REMARK    3  A    between atoms: C_6  and  N_7
REMARK    4  A    between atoms: C_11  and  O_12
REMARK    5  A    between atoms: C_17  and  O_18
REMARK    6  A    between atoms: C_19  and  O_20
REMARK                            x       y       z     vdW  Elec       q    Type
REMARK                         _______ _______ _______ _____ _____    ______ ____
ROOT
ATOM      1  C   UNL     1       1.490   3.302  20.358  0.00  0.00    +0.000 C 
ATOM      2  C   UNL     1       0.724   4.619  20.490  0.00  0.00    +0.000 C 
ATOM      3  C   UNL     1       2.142   4.640  20.022  0.00  0.00    +0.000 C 
ATOM      4  C   UNL     1       2.426   4.655  18.531  0.00  0.00    +0.000 C 
ATOM      5  C   UNL     1       2.663   3.170  18.209  0.00  0.00    +0.000 C 
ATOM      6  C   UNL     1       1.592   2.467  19.089  0.00  0.00    +0.000 C 
ENDROOT
BRANCH   4   7
ATOM      7  N   UNL     1       3.447   5.573  18.077  0.00  0.00    +0.000 N 
ATOM      8  C   UNL     1       3.222   6.903  17.800  0.00  0.00    +0.000 A 
ATOM      9  N   UNL     1       4.321   7.534  17.443  0.00  0.00    +0.000 NA
ATOM     10  C   UNL     1       5.285   6.553  17.451  0.00  0.00    +0.000 A 
ATOM     11  C   UNL     1       6.647   6.579  17.165  0.00  0.00    +0.000 A 
ATOM     12  N   UNL     1       7.383   5.455  17.245  0.00  0.00    +0.000 NA
ATOM     13  C   UNL     1       6.738   4.326  17.614  0.00  0.00    +0.000 A 
ATOM     14  N   UNL     1       5.432   4.161  17.920  0.00  0.00    +0.000 NA
ATOM     15  C   UNL     1       4.765   5.325  17.824  0.00  0.00    +0.000 A 
BRANCH  11  16
ATOM     16  O   UNL     1       7.293   7.734  16.800  0.00  0.00    +0.000 OA
ATOM     17  H   UNL     1       7.710   7.513  15.945  0.00  0.00    +0.000 HD
ENDBRANCH  11  16
ENDBRANCH   4   7
BRANCH   5  18
ATOM     18  O   UNL     1       2.463   2.891  16.825  0.00  0.00    +0.000 OA
ATOM     19  H   UNL     1       1.539   2.579  16.739  0.00  0.00    +0.000 HD
ENDBRANCH   5  18
BRANCH   6  20
ATOM     20  O   UNL     1       0.344   2.416  18.393  0.00  0.00    +0.000 OA
ATOM     21  H   UNL     1       0.223   3.244  17.902  0.00  0.00    +0.000 HD
ENDBRANCH   6  20
BRANCH   1  22
ATOM     22  C   UNL     1       1.660   2.521  21.636  0.00  0.00    +0.000 C 
BRANCH  22  23
ATOM     23  O   UNL     1       3.032   2.377  21.965  0.00  0.00    +0.000 OA
ATOM     24  H   UNL     1       3.182   2.906  22.769  0.00  0.00    +0.000 HD
ENDBRANCH  22  23
ENDBRANCH   1  22
TORSDOF 6
ENDMDL
