MODEL 1
REMARK VINA RESULT:      -7.1      0.000      0.000
REMARK  Name = 
REMARK  8 active torsions:
REMARK  status: ('A' for Active; 'I' for Inactive)
REMARK    1  A    between atoms: C_1  and  C_2
REMARK    2  A    between atoms: C_5  and  C_6
REMARK    3  A    between atoms: C_6  and  O_8
REMARK    4  A    between atoms: O_8  and  C_9
REMARK    5  A    between atoms: C_9  and  C_10
REMARK    6  A    between atoms: N_12  and  C_13
REMARK    7  A    between atoms: C_13  and  C_14
REMARK    8  A    between atoms: C_14  and  C_15
REMARK                            x       y       z     vdW  Elec       q    Type
REMARK                         _______ _______ _______ _____ _____    ______ ____
ROOT
ATOM      1  C   UNL     1       7.427   6.068  18.244  0.00  0.00    +0.000 C 
ATOM      2  O   UNL     1       7.523   5.798  19.442  0.00  0.00    +0.000 OA
ATOM      3  N   UNL     1       7.815   7.289  17.722  0.00  0.00    +0.000 N 
ATOM      4  H   UNL     1       7.840   7.421  16.718  0.00  0.00    +0.000 HD
ENDROOT
BRANCH   1   5
ATOM      5  C   UNL     1       6.836   5.079  17.235  0.00  0.00    +0.000 C 
BRANCH   5   6
ATOM      6  O   UNL     1       5.815   4.256  17.803  0.00  0.00    +0.000 OA
BRANCH   6   7
ATOM      7  C   UNL     1       4.544   4.687  17.534  0.00  0.00    +0.000 C 
ATOM      8  O   UNL     1       4.298   5.650  16.816  0.00  0.00    +0.000 OA
BRANCH   7  13
ATOM      9  C   UNL     1       1.302   2.762  21.263  0.00  0.00    +0.000 C 
ATOM     10  C   UNL     1       2.062   2.970  19.995  0.00  0.00    +0.000 A 
ATOM     11  C   UNL     1       2.015   2.228  18.835  0.00  0.00    +0.000 A 
ATOM     12  C   UNL     1       2.885   2.744  17.829  0.00  0.00    +0.000 A 
ATOM     13  C   UNL     1       3.576   3.868  18.246  0.00  0.00    +0.000 A 
ATOM     14  S   UNL     1       3.156   4.277  19.859  0.00  0.00    +0.000 S 
ENDBRANCH   7  13
ENDBRANCH   6   7
ENDBRANCH   5   6
ENDBRANCH   1   5
BRANCH   3  15
ATOM     15  C   UNL     1       8.440   8.275  18.592  0.00  0.00    +0.000 C 
BRANCH  15  16
ATOM     16  C   UNL     1       8.428   9.698  18.025  0.00  0.00    +0.000 C 
BRANCH  16  17
ATOM     17  C   UNL     1       9.428  10.619  18.702  0.00  0.00    +0.000 C 
ATOM     18  C   UNL     1       9.414  10.832  20.032  0.00  0.00    +0.000 C 
ATOM     19  C   UNL     1      10.363  11.754  20.747  0.00  0.00    +0.000 C 
ATOM     20  C   UNL     1      11.118  12.688  19.801  0.00  0.00    +0.000 C 
ATOM     21  C   UNL     1      11.620  11.930  18.579  0.00  0.00    +0.000 C 
ATOM     22  C   UNL     1      10.462  11.281  17.814  0.00  0.00    +0.000 C 
ENDBRANCH  16  17
ENDBRANCH  15  16
ENDBRANCH   3  15
TORSDOF 7
ENDMDL
MODEL 2
REMARK VINA RESULT:      -7.0      1.945      2.600
REMARK  Name = 
REMARK  8 active torsions:
REMARK  status: ('A' for Active; 'I' for Inactive)
REMARK    1  A    between atoms: C_1  and  C_2
REMARK    2  A    between atoms: C_5  and  C_6
REMARK    3  A    between atoms: C_6  and  O_8
REMARK    4  A    between atoms: O_8  and  C_9
REMARK    5  A    between atoms: C_9  and  C_10
REMARK    6  A    between atoms: N_12  and  C_13
REMARK    7  A    between atoms: C_13  and  C_14
REMARK    8  A    between atoms: C_14  and  C_15
REMARK                            x       y       z     vdW  Elec       q    Type
REMARK                         _______ _______ _______ _____ _____    ______ ____
ROOT
ATOM      1  C   UNL     1       7.332   5.876  18.475  0.00  0.00    +0.000 C 
ATOM      2  O   UNL     1       7.642   5.615  19.638  0.00  0.00    +0.000 OA
ATOM      3  N   UNL     1       7.620   7.092  17.882  0.00  0.00    +0.000 N 
ATOM      4  H   UNL     1       7.463   7.217  16.889  0.00  0.00    +0.000 HD
ENDROOT
BRANCH   1   5
ATOM      5  C   UNL     1       6.568   4.881  17.597  0.00  0.00    +0.000 C 
BRANCH   5   6
ATOM      6  O   UNL     1       5.468   5.483  16.911  0.00  0.00    +0.000 OA
BRANCH   6   7
ATOM      7  C   UNL     1       4.245   5.022  17.315  0.00  0.00    +0.000 C 
ATOM      8  O   UNL     1       3.855   3.878  17.105  0.00  0.00    +0.000 OA
BRANCH   7  13
ATOM      9  C   UNL     1       1.461   7.812  20.862  0.00  0.00    +0.000 C 
ATOM     10  C   UNL     1       2.196   7.384  19.635  0.00  0.00    +0.000 A 
ATOM     11  C   UNL     1       2.433   8.102  18.484  0.00  0.00    +0.000 A 
ATOM     12  C   UNL     1       3.183   7.354  17.527  0.00  0.00    +0.000 A 
ATOM     13  C   UNL     1       3.500   6.084  17.973  0.00  0.00    +0.000 A 
ATOM     14  S   UNL     1       2.877   5.818  19.549  0.00  0.00    +0.000 S 
ENDBRANCH   7  13
ENDBRANCH   6   7
ENDBRANCH   5   6
ENDBRANCH   1   5
BRANCH   3  15
ATOM     15  C   UNL     1       8.392   8.084  18.616  0.00  0.00    +0.000 C 
BRANCH  15  16
ATOM     16  C   UNL     1       8.338   9.488  18.006  0.00  0.00    +0.000 C 
BRANCH  16  17
ATOM     17  C   UNL     1       9.349  10.444  18.617  0.00  0.00    +0.000 C 
ATOM     18  C   UNL     1      10.185  11.177  17.857  0.00  0.00    +0.000 C 
ATOM     19  C   UNL     1      11.222  12.115  18.412  0.00  0.00    +0.000 C 
ATOM     20  C   UNL     1      11.478  11.911  19.905  0.00  0.00    +0.000 C 
ATOM     21  C   UNL     1      10.166  11.744  20.661  0.00  0.00    +0.000 C 
ATOM     22  C   UNL     1       9.366  10.552  20.128  0.00  0.00    +0.000 C 
ENDBRANCH  16  17
ENDBRANCH  15  16
ENDBRANCH   3  15
TORSDOF 7
ENDMDL
MODEL 3
REMARK VINA RESULT:      -7.0      1.223      1.519
REMARK  Name = 
REMARK  8 active torsions:
REMARK  status: ('A' for Active; 'I' for Inactive)
REMARK    1  A    between atoms: C_1  and  C_2
REMARK    2  A    between atoms: C_5  and  C_6
REMARK    3  A    between atoms: C_6  and  O_8
REMARK    4  A    between atoms: O_8  and  C_9
REMARK    5  A    between atoms: C_9  and  C_10
REMARK    6  A    between atoms: N_12  and  C_13
REMARK    7  A    between atoms: C_13  and  C_14
REMARK    8  A    between atoms: C_14  and  C_15
REMARK                            x       y       z     vdW  Elec       q    Type
REMARK                         _______ _______ _______ _____ _____    ______ ____
ROOT
ATOM      1  C   UNL     1       6.859   6.869  16.981  0.00  0.00    +0.000 C 
ATOM      2  O   UNL     1       7.739   6.496  16.204  0.00  0.00    +0.000 OA
ATOM      3  N   UNL     1       7.083   7.823  17.957  0.00  0.00    +0.000 N 
ATOM      4  H   UNL     1       6.302   8.192  18.487  0.00  0.00    +0.000 HD
ENDROOT
BRANCH   1   5
ATOM      5  C   UNL     1       5.447   6.278  16.950  0.00  0.00    +0.000 C 
BRANCH   5   6
ATOM      6  O   UNL     1       4.883   6.130  18.255  0.00  0.00    +0.000 OA
BRANCH   6   7
ATOM      7  C   UNL     1       5.147   4.920  18.838  0.00  0.00    +0.000 C 
ATOM      8  O   UNL     1       6.175   4.686  19.465  0.00  0.00    +0.000 OA
BRANCH   7  13
ATOM      9  C   UNL     1       0.523   2.332  19.015  0.00  0.00    +0.000 C 
ATOM     10  C   UNL     1       1.902   2.777  18.656  0.00  0.00    +0.000 A 
ATOM     11  C   UNL     1       2.738   2.274  17.684  0.00  0.00    +0.000 A 
ATOM     12  C   UNL     1       3.984   2.969  17.632  0.00  0.00    +0.000 A 
ATOM     13  C   UNL     1       4.066   3.986  18.567  0.00  0.00    +0.000 A 
ATOM     14  S   UNL     1       2.627   4.077  19.496  0.00  0.00    +0.000 S 
ENDBRANCH   7  13
ENDBRANCH   6   7
ENDBRANCH   5   6
ENDBRANCH   1   5
BRANCH   3  15
ATOM     15  C   UNL     1       8.377   8.484  18.032  0.00  0.00    +0.000 C 
BRANCH  15  16
ATOM     16  C   UNL     1       8.313  10.001  17.821  0.00  0.00    +0.000 C 
BRANCH  16  17
ATOM     17  C   UNL     1       9.407  10.753  18.559  0.00  0.00    +0.000 C 
ATOM     18  C   UNL     1       9.407  10.874  19.901  0.00  0.00    +0.000 C 
ATOM     19  C   UNL     1      10.450  11.632  20.677  0.00  0.00    +0.000 C 
ATOM     20  C   UNL     1      11.313  12.536  19.798  0.00  0.00    +0.000 C 
ATOM     21  C   UNL     1      11.734  11.812  18.525  0.00  0.00    +0.000 C 
ATOM     22  C   UNL     1      10.515  11.353  17.719  0.00  0.00    +0.000 C 
ENDBRANCH  16  17
ENDBRANCH  15  16
ENDBRANCH   3  15
TORSDOF 7
ENDMDL
MODEL 4
REMARK VINA RESULT:      -6.9      1.475      2.227
REMARK  Name = 
REMARK  8 active torsions:
REMARK  status: ('A' for Active; 'I' for Inactive)
REMARK    1  A    between atoms: C_1  and  C_2
REMARK    2  A    between atoms: C_5  and  C_6
REMARK    3  A    between atoms: C_6  and  O_8
REMARK    4  A    between atoms: O_8  and  C_9
REMARK    5  A    between atoms: C_9  and  C_10
REMARK    6  A    between atoms: N_12  and  C_13
REMARK    7  A    between atoms: C_13  and  C_14
REMARK    8  A    between atoms: C_14  and  C_15
REMARK                            x       y       z     vdW  Elec       q    Type
REMARK                         _______ _______ _______ _____ _____    ______ ____
ROOT
ATOM      1  C   UNL     1       7.724   7.543  17.939  0.00  0.00    +0.000 C 
ATOM      2  O   UNL     1       7.361   7.990  16.850  0.00  0.00    +0.000 OA
ATOM      3  N   UNL     1       8.532   8.257  18.805  0.00  0.00    +0.000 N 
ATOM      4  H   UNL     1       8.700   7.907  19.741  0.00  0.00    +0.000 HD
ENDROOT
BRANCH   1   5
ATOM      5  C   UNL     1       7.333   6.139  18.411  0.00  0.00    +0.000 C 
BRANCH   5   6
ATOM      6  O   UNL     1       5.919   5.929  18.400  0.00  0.00    +0.000 OA
BRANCH   6   7
ATOM      7  C   UNL     1       5.522   4.880  17.616  0.00  0.00    +0.000 C 
ATOM      8  O   UNL     1       6.264   4.319  16.817  0.00  0.00    +0.000 OA
BRANCH   7  13
ATOM      9  C   UNL     1       0.989   2.332  18.656  0.00  0.00    +0.000 C 
ATOM     10  C   UNL     1       2.001   3.383  18.337  0.00  0.00    +0.000 A 
ATOM     11  C   UNL     1       1.802   4.732  18.139  0.00  0.00    +0.000 A 
ATOM     12  C   UNL     1       3.020   5.421  17.860  0.00  0.00    +0.000 A 
ATOM     13  C   UNL     1       4.119   4.581  17.852  0.00  0.00    +0.000 A 
ATOM     14  S   UNL     1       3.650   2.963  18.181  0.00  0.00    +0.000 S 
ENDBRANCH   7  13
ENDBRANCH   6   7
ENDBRANCH   5   6
ENDBRANCH   1   5
BRANCH   3  15
ATOM     15  C   UNL     1       8.912   9.623  18.472  0.00  0.00    +0.000 C 
BRANCH  15  16
ATOM     16  C   UNL     1       9.429  10.432  19.666  0.00  0.00    +0.000 C 
BRANCH  16  17
ATOM     17  C   UNL     1      10.327  11.588  19.259  0.00  0.00    +0.000 C 
ATOM     18  C   UNL     1      10.856  11.678  18.024  0.00  0.00    +0.000 C 
ATOM     19  C   UNL     1      11.772  12.786  17.580  0.00  0.00    +0.000 C 
ATOM     20  C   UNL     1      12.324  13.610  18.742  0.00  0.00    +0.000 C 
ATOM     21  C   UNL     1      11.225  13.931  19.748  0.00  0.00    +0.000 C 
ATOM     22  C   UNL     1      10.591  12.653  20.304  0.00  0.00    +0.000 C 
ENDBRANCH  16  17
ENDBRANCH  15  16
ENDBRANCH   3  15
TORSDOF 7
ENDMDL
MODEL 5
REMARK VINA RESULT:      -6.9      1.500      1.985
REMARK  Name = 
REMARK  8 active torsions:
REMARK  status: ('A' for Active; 'I' for Inactive)
REMARK    1  A    between atoms: C_1  and  C_2
REMARK    2  A    between atoms: C_5  and  C_6
REMARK    3  A    between atoms: C_6  and  O_8
REMARK    4  A    between atoms: O_8  and  C_9
REMARK    5  A    between atoms: C_9  and  C_10
REMARK    6  A    between atoms: N_12  and  C_13
REMARK    7  A    between atoms: C_13  and  C_14
REMARK    8  A    between atoms: C_14  and  C_15
REMARK                            x       y       z     vdW  Elec       q    Type
REMARK                         _______ _______ _______ _____ _____    ______ ____
ROOT
ATOM      1  C   UNL     1       7.530   6.985  17.755  0.00  0.00    +0.000 C 
ATOM      2  O   UNL     1       7.952   6.516  18.813  0.00  0.00    +0.000 OA
ATOM      3  N   UNL     1       7.651   8.325  17.433  0.00  0.00    +0.000 N 
ATOM      4  H   UNL     1       7.408   8.642  16.502  0.00  0.00    +0.000 HD
ENDROOT
BRANCH   1   5
ATOM      5  C   UNL     1       6.803   6.123  16.719  0.00  0.00    +0.000 C 
BRANCH   5   6
ATOM      6  O   UNL     1       5.570   6.703  16.288  0.00  0.00    +0.000 OA
BRANCH   6   7
ATOM      7  C   UNL     1       4.575   6.648  17.225  0.00  0.00    +0.000 C 
ATOM      8  O   UNL     1       3.995   7.642  17.650  0.00  0.00    +0.000 OA
BRANCH   7  13
ATOM      9  C   UNL     1       4.232   2.234  20.143  0.00  0.00    +0.000 C 
ATOM     10  C   UNL     1       4.199   3.210  19.014  0.00  0.00    +0.000 A 
ATOM     11  C   UNL     1       3.835   2.993  17.704  0.00  0.00    +0.000 A 
ATOM     12  C   UNL     1       3.925   4.179  16.915  0.00  0.00    +0.000 A 
ATOM     13  C   UNL     1       4.356   5.273  17.645  0.00  0.00    +0.000 A 
ATOM     14  S   UNL     1       4.648   4.838  19.279  0.00  0.00    +0.000 S 
ENDBRANCH   7  13
ENDBRANCH   6   7
ENDBRANCH   5   6
ENDBRANCH   1   5
BRANCH   3  15
ATOM     15  C   UNL     1       8.375   9.216  18.328  0.00  0.00    +0.000 C 
BRANCH  15  16
ATOM     16  C   UNL     1       8.791  10.541  17.682  0.00  0.00    +0.000 C 
BRANCH  16  17
ATOM     17  C   UNL     1       9.872  11.272  18.459  0.00  0.00    +0.000 C 
ATOM     18  C   UNL     1      10.775  12.065  17.850  0.00  0.00    +0.000 C 
ATOM     19  C   UNL     1      11.881  12.787  18.569  0.00  0.00    +0.000 C 
ATOM     20  C   UNL     1      12.104  12.278  19.993  0.00  0.00    +0.000 C 
ATOM     21  C   UNL     1      10.775  12.079  20.711  0.00  0.00    +0.000 C 
ATOM     22  C   UNL     1       9.882  11.085  19.963  0.00  0.00    +0.000 C 
ENDBRANCH  16  17
ENDBRANCH  15  16
ENDBRANCH   3  15
TORSDOF 7
ENDMDL
MODEL 6
REMARK VINA RESULT:      -6.8      3.694      6.880
REMARK  Name = 
REMARK  8 active torsions:
REMARK  status: ('A' for Active; 'I' for Inactive)
REMARK    1  A    between atoms: C_1  and  C_2
REMARK    2  A    between atoms: C_5  and  C_6
REMARK    3  A    between atoms: C_6  and  O_8
REMARK    4  A    between atoms: O_8  and  C_9
REMARK    5  A    between atoms: C_9  and  C_10
REMARK    6  A    between atoms: N_12  and  C_13
REMARK    7  A    between atoms: C_13  and  C_14
REMARK    8  A    between atoms: C_14  and  C_15
REMARK                            x       y       z     vdW  Elec       q    Type
REMARK                         _______ _______ _______ _____ _____    ______ ____
ROOT
ATOM      1  C   UNL     1       2.926   2.996  20.824  0.00  0.00    +0.000 C 
ATOM      2  O   UNL     1       2.564   2.821  21.988  0.00  0.00    +0.000 OA
ATOM      3  N   UNL     1       2.304   3.899  19.979  0.00  0.00    +0.000 N 
ATOM      4  H   UNL     1       2.713   4.104  19.075  0.00  0.00    +0.000 HD
ENDROOT
BRANCH   1   5
ATOM      5  C   UNL     1       4.078   2.201  20.204  0.00  0.00    +0.000 C 
BRANCH   5   6
ATOM      6  O   UNL     1       4.964   3.021  19.438  0.00  0.00    +0.000 OA
BRANCH   6   7
ATOM      7  C   UNL     1       4.535   3.254  18.160  0.00  0.00    +0.000 C 
ATOM      8  O   UNL     1       3.753   2.518  17.568  0.00  0.00    +0.000 OA
BRANCH   7  13
ATOM      9  C   UNL     1       7.589   7.554  17.612  0.00  0.00    +0.000 C 
ATOM     10  C   UNL     1       6.597   6.464  17.379  0.00  0.00    +0.000 A 
ATOM     11  C   UNL     1       5.806   6.247  16.272  0.00  0.00    +0.000 A 
ATOM     12  C   UNL     1       4.983   5.090  16.415  0.00  0.00    +0.000 A 
ATOM     13  C   UNL     1       5.167   4.452  17.629  0.00  0.00    +0.000 A 
ATOM     14  S   UNL     1       6.337   5.273  18.578  0.00  0.00    +0.000 S 
ENDBRANCH   7  13
ENDBRANCH   6   7
ENDBRANCH   5   6
ENDBRANCH   1   5
BRANCH   3  15
ATOM     15  C   UNL     1       1.234   4.742  20.491  0.00  0.00    +0.000 C 
BRANCH  15  16
ATOM     16  C   UNL     1       1.716   6.085  21.050  0.00  0.00    +0.000 C 
BRANCH  16  17
ATOM     17  C   UNL     1       1.823   7.169  19.992  0.00  0.00    +0.000 C 
ATOM     18  C   UNL     1       1.278   8.389  20.165  0.00  0.00    +0.000 C 
ATOM     19  C   UNL     1       1.331   9.487  19.138  0.00  0.00    +0.000 C 
ATOM     20  C   UNL     1       1.752   8.995  17.754  0.00  0.00    +0.000 C 
ATOM     21  C   UNL     1       2.931   8.035  17.857  0.00  0.00    +0.000 C 
ATOM     22  C   UNL     1       2.587   6.825  18.730  0.00  0.00    +0.000 C 
ENDBRANCH  16  17
ENDBRANCH  15  16
ENDBRANCH   3  15
TORSDOF 7
ENDMDL
MODEL 7
REMARK VINA RESULT:      -6.8      4.987      8.239
REMARK  Name = 
REMARK  8 active torsions:
REMARK  status: ('A' for Active; 'I' for Inactive)
REMARK    1  A    between atoms: C_1  and  C_2
REMARK    2  A    between atoms: C_5  and  C_6
REMARK    3  A    between atoms: C_6  and  O_8
REMARK    4  A    between atoms: O_8  and  C_9
REMARK    5  A    between atoms: C_9  and  C_10
REMARK    6  A    between atoms: N_12  and  C_13
REMARK    7  A    between atoms: C_13  and  C_14
REMARK    8  A    between atoms: C_14  and  C_15
REMARK                            x       y       z     vdW  Elec       q    Type
REMARK                         _______ _______ _______ _____ _____    ______ ____
ROOT
ATOM      1  C   UNL     1       4.317   6.008  18.031  0.00  0.00    +0.000 C 
ATOM      2  O   UNL     1       5.134   5.732  18.911  0.00  0.00    +0.000 OA
ATOM      3  N   UNL     1       3.883   5.079  17.101  0.00  0.00    +0.000 N 
ATOM      4  H   UNL     1       3.118   5.311  16.479  0.00  0.00    +0.000 HD
ENDROOT
BRANCH   1   5
ATOM      5  C   UNL     1       3.738   7.416  17.873  0.00  0.00    +0.000 C 
BRANCH   5   6
ATOM      6  O   UNL     1       2.566   7.621  18.664  0.00  0.00    +0.000 OA
BRANCH   6   7
ATOM      7  C   UNL     1       1.862   8.745  18.328  0.00  0.00    +0.000 C 
ATOM      8  O   UNL     1       1.823   9.200  17.190  0.00  0.00    +0.000 OA
BRANCH   7  13
ATOM      9  C   UNL     1       0.032   9.439  23.257  0.00  0.00    +0.000 C 
ATOM     10  C   UNL     1       0.369   9.628  21.815  0.00  0.00    +0.000 A 
ATOM     11  C   UNL     1       0.089  10.704  21.003  0.00  0.00    +0.000 A 
ATOM     12  C   UNL     1       0.580  10.522  19.676  0.00  0.00    +0.000 A 
ATOM     13  C   UNL     1       1.224   9.309  19.508  0.00  0.00    +0.000 A 
ATOM     14  S   UNL     1       1.218   8.408  20.969  0.00  0.00    +0.000 S 
ENDBRANCH   7  13
ENDBRANCH   6   7
ENDBRANCH   5   6
ENDBRANCH   1   5
BRANCH   3  15
ATOM     15  C   UNL     1       4.333   3.698  17.201  0.00  0.00    +0.000 C 
BRANCH  15  16
ATOM     16  C   UNL     1       3.211   2.701  17.508  0.00  0.00    +0.000 C 
BRANCH  16  17
ATOM     17  C   UNL     1       2.621   2.874  18.897  0.00  0.00    +0.000 C 
ATOM     18  C   UNL     1       3.325   2.592  20.010  0.00  0.00    +0.000 C 
ATOM     19  C   UNL     1       2.779   2.718  21.406  0.00  0.00    +0.000 C 
ATOM     20  C   UNL     1       1.258   2.865  21.444  0.00  0.00    +0.000 C 
ATOM     21  C   UNL     1       0.782   3.848  20.382  0.00  0.00    +0.000 C 
ATOM     22  C   UNL     1       1.202   3.397  18.980  0.00  0.00    +0.000 C 
ENDBRANCH  16  17
ENDBRANCH  15  16
ENDBRANCH   3  15
TORSDOF 7
ENDMDL
MODEL 8
REMARK VINA RESULT:      -6.8      1.173      1.626
REMARK  Name = 
REMARK  8 active torsions:
REMARK  status: ('A' for Active; 'I' for Inactive)
REMARK    1  A    between atoms: C_1  and  C_2
REMARK    2  A    between atoms: C_5  and  C_6
REMARK    3  A    between atoms: C_6  and  O_8
REMARK    4  A    between atoms: O_8  and  C_9
REMARK    5  A    between atoms: C_9  and  C_10
REMARK    6  A    between atoms: N_12  and  C_13
REMARK    7  A    between atoms: C_13  and  C_14
REMARK    8  A    between atoms: C_14  and  C_15
REMARK                            x       y       z     vdW  Elec       q    Type
REMARK                         _______ _______ _______ _____ _____    ______ ____
ROOT
ATOM      1  C   UNL     1       6.781   6.739  17.250  0.00  0.00    +0.000 C 
ATOM      2  O   UNL     1       5.720   7.283  17.561  0.00  0.00    +0.000 OA
ATOM      3  N   UNL     1       7.980   7.426  17.190  0.00  0.00    +0.000 N 
ATOM      4  H   UNL     1       8.845   6.915  17.057  0.00  0.00    +0.000 HD
ENDROOT
BRANCH   1   5
ATOM      5  C   UNL     1       6.851   5.257  16.872  0.00  0.00    +0.000 C 
BRANCH   5   6
ATOM      6  O   UNL     1       5.919   4.457  17.603  0.00  0.00    +0.000 OA
BRANCH   6   7
ATOM      7  C   UNL     1       4.793   4.134  16.897  0.00  0.00    +0.000 C 
ATOM      8  O   UNL     1       4.773   4.027  15.675  0.00  0.00    +0.000 OA
BRANCH   7  13
ATOM      9  C   UNL     1       1.815   3.141  21.170  0.00  0.00    +0.000 C 
ATOM     10  C   UNL     1       2.273   3.515  19.799  0.00  0.00    +0.000 A 
ATOM     11  C   UNL     1       1.517   3.951  18.733  0.00  0.00    +0.000 A 
ATOM     12  C   UNL     1       2.316   4.221  17.581  0.00  0.00    +0.000 A 
ATOM     13  C   UNL     1       3.662   3.984  17.798  0.00  0.00    +0.000 A 
ATOM     14  S   UNL     1       3.933   3.432  19.400  0.00  0.00    +0.000 S 
ENDBRANCH   7  13
ENDBRANCH   6   7
ENDBRANCH   5   6
ENDBRANCH   1   5
BRANCH   3  15
ATOM     15  C   UNL     1       8.027   8.826  17.585  0.00  0.00    +0.000 C 
BRANCH  15  16
ATOM     16  C   UNL     1       8.721   9.069  18.929  0.00  0.00    +0.000 C 
BRANCH  16  17
ATOM     17  C   UNL     1       9.327  10.457  19.046  0.00  0.00    +0.000 C 
ATOM     18  C   UNL     1       9.672  11.176  17.961  0.00  0.00    +0.000 C 
ATOM     19  C   UNL     1      10.301  12.541  18.023  0.00  0.00    +0.000 C 
ATOM     20  C   UNL     1      10.828  12.897  19.412  0.00  0.00    +0.000 C 
ATOM     21  C   UNL     1       9.822  12.509  20.489  0.00  0.00    +0.000 C 
ATOM     22  C   UNL     1       9.514  11.009  20.445  0.00  0.00    +0.000 C 
ENDBRANCH  16  17
ENDBRANCH  15  16
ENDBRANCH   3  15
TORSDOF 7
ENDMDL
MODEL 9
REMARK VINA RESULT:      -6.7      4.578      5.822
REMARK  Name = 
REMARK  8 active torsions:
REMARK  status: ('A' for Active; 'I' for Inactive)
REMARK    1  A    between atoms: C_1  and  C_2
REMARK    2  A    between atoms: C_5  and  C_6
REMARK    3  A    between atoms: C_6  and  O_8
REMARK    4  A    between atoms: O_8  and  C_9
REMARK    5  A    between atoms: C_9  and  C_10
REMARK    6  A    between atoms: N_12  and  C_13
REMARK    7  A    between atoms: C_13  and  C_14
REMARK    8  A    between atoms: C_14  and  C_15
REMARK                            x       y       z     vdW  Elec       q    Type
REMARK                         _______ _______ _______ _____ _____    ______ ____
ROOT
ATOM      1  C   UNL     1       4.589   2.577  19.491  0.00  0.00    +0.000 C 
ATOM      2  O   UNL     1       4.916   2.155  20.602  0.00  0.00    +0.000 OA
ATOM      3  N   UNL     1       5.141   3.717  18.935  0.00  0.00    +0.000 N 
ATOM      4  H   UNL     1       4.939   3.955  17.971  0.00  0.00    +0.000 HD
ENDROOT
BRANCH   1   5
ATOM      5  C   UNL     1       3.514   1.887  18.646  0.00  0.00    +0.000 C 
BRANCH   5   6
ATOM      6  O   UNL     1       2.287   1.706  19.357  0.00  0.00    +0.000 OA
BRANCH   6   7
ATOM      7  C   UNL     1       1.278   2.528  18.935  0.00  0.00    +0.000 C 
ATOM      8  O   UNL     1       0.275   2.120  18.359  0.00  0.00    +0.000 OA
BRANCH   7  13
ATOM      9  C   UNL     1       2.581   7.647  18.468  0.00  0.00    +0.000 C 
ATOM     10  C   UNL     1       2.210   6.307  19.014  0.00  0.00    +0.000 A 
ATOM     11  C   UNL     1       2.009   5.943  20.327  0.00  0.00    +0.000 A 
ATOM     12  C   UNL     1       1.657   4.566  20.457  0.00  0.00    +0.000 A 
ATOM     13  C   UNL     1       1.598   3.914  19.238  0.00  0.00    +0.000 A 
ATOM     14  S   UNL     1       1.977   4.987  17.954  0.00  0.00    +0.000 S 
ENDBRANCH   7  13
ENDBRANCH   6   7
ENDBRANCH   5   6
ENDBRANCH   1   5
BRANCH   3  15
ATOM     15  C   UNL     1       6.210   4.412  19.637  0.00  0.00    +0.000 C 
BRANCH  15  16
ATOM     16  C   UNL     1       6.877   5.518  18.812  0.00  0.00    +0.000 C 
BRANCH  16  17
ATOM     17  C   UNL     1       6.497   5.478  17.342  0.00  0.00    +0.000 C 
ATOM     18  C   UNL     1       5.566   6.302  16.824  0.00  0.00    +0.000 C 
ATOM     19  C   UNL     1       5.134   6.284  15.384  0.00  0.00    +0.000 C 
ATOM     20  C   UNL     1       5.589   5.031  14.637  0.00  0.00    +0.000 C 
ATOM     21  C   UNL     1       7.038   4.700  14.968  0.00  0.00    +0.000 C 
ATOM     22  C   UNL     1       7.228   4.477  16.471  0.00  0.00    +0.000 C 
ENDBRANCH  16  17
ENDBRANCH  15  16
ENDBRANCH   3  15
TORSDOF 7
ENDMDL
