MODEL 1
REMARK VINA RESULT:      -7.5      0.000      0.000
REMARK  Name = 
REMARK  9 active torsions:
REMARK  status: ('A' for Active; 'I' for Inactive)
REMARK    1  A    between atoms: C_1  and  C_2
REMARK    2  A    between atoms: C_2  and  N_3
REMARK    3  A    between atoms: C_4  and  C_5
REMARK    4  A    between atoms: C_5  and  C_7
REMARK    5  A    between atoms: C_9  and  C_10
REMARK    6  A    between atoms: C_12  and  C_13
REMARK    7  A    between atoms: C_16  and  C_17
REMARK    8  A    between atoms: C_17  and  C_18
REMARK    9  A    between atoms: C_17  and  C_19
REMARK                            x       y       z     vdW  Elec       q    Type
REMARK                         _______ _______ _______ _____ _____    ______ ____
ROOT
ATOM      1  N   UNL     1       2.748   3.758  19.944  0.00  0.00    +0.000 N 
ATOM      2  C   UNL     1       2.906   4.629  18.842  0.00  0.00    +0.000 A 
ATOM      3  C   UNL     1       2.575   5.952  18.936  0.00  0.00    +0.000 A 
ATOM      4  C   UNL     1       2.083   6.438  20.255  0.00  0.00    +0.000 A 
ATOM      5  O   UNL     1       1.867   7.614  20.517  0.00  0.00    +0.000 OA
ATOM      6  N   UNL     1       1.842   5.504  21.206  0.00  0.00    +0.000 N 
ATOM      7  C   UNL     1       2.154   4.191  21.130  0.00  0.00    +0.000 A 
ATOM      8  O   UNL     1       1.905   3.469  22.090  0.00  0.00    +0.000 OA
ATOM      9  H   UNL     1       1.467   5.828  22.084  0.00  0.00    +0.000 HD
ENDROOT
BRANCH   3  10
ATOM     10  C   UNL     1       2.589   7.005  17.806  0.00  0.00    +0.000 C 
ATOM     11  C   UNL     1       1.560   8.119  18.065  0.00  0.00    +0.000 C 
ATOM     12  C   UNL     1       3.942   7.665  17.483  0.00  0.00    +0.000 C 
ENDBRANCH   3  10
BRANCH   1  14
ATOM     13  C   UNL     1       4.530   2.039  20.175  0.00  0.00    +0.000 C 
ATOM     14  C   UNL     1       3.042   2.325  19.940  0.00  0.00    +0.000 C 
ENDBRANCH   1  14
BRANCH   2  15
ATOM     15  C   UNL     1       3.206   4.128  17.439  0.00  0.00    +0.000 C 
ATOM     16  O   UNL     1       2.309   3.600  16.781  0.00  0.00    +0.000 OA
BRANCH  15  17
ATOM     17  C   UNL     1       4.532   4.169  16.764  0.00  0.00    +0.000 A 
ATOM     18  C   UNL     1       5.642   4.457  17.589  0.00  0.00    +0.000 A 
ATOM     19  C   UNL     1       6.947   4.513  17.089  0.00  0.00    +0.000 A 
ATOM     20  C   UNL     1       8.110   4.742  18.010  0.00  0.00    +0.000 C 
ATOM     21  C   UNL     1       7.142   4.309  15.724  0.00  0.00    +0.000 A 
ATOM     22  C   UNL     1       6.053   4.022  14.889  0.00  0.00    +0.000 A 
ATOM     23  C   UNL     1       4.752   3.918  15.410  0.00  0.00    +0.000 A 
BRANCH  22  24
ATOM     24  C   UNL     1       6.277   3.834  13.484  0.00  0.00    +0.000 C 
ATOM     25  N   UNL     1       6.465   3.695  12.349  0.00  0.00    +0.000 NA
ENDBRANCH  22  24
ENDBRANCH  15  17
ENDBRANCH   2  15
TORSDOF 5
ENDMDL
MODEL 2
REMARK VINA RESULT:      -7.4      2.624      6.593
REMARK  Name = 
REMARK  9 active torsions:
REMARK  status: ('A' for Active; 'I' for Inactive)
REMARK    1  A    between atoms: C_1  and  C_2
REMARK    2  A    between atoms: C_2  and  N_3
REMARK    3  A    between atoms: C_4  and  C_5
REMARK    4  A    between atoms: C_5  and  C_7
REMARK    5  A    between atoms: C_9  and  C_10
REMARK    6  A    between atoms: C_12  and  C_13
REMARK    7  A    between atoms: C_16  and  C_17
REMARK    8  A    between atoms: C_17  and  C_18
REMARK    9  A    between atoms: C_17  and  C_19
REMARK                            x       y       z     vdW  Elec       q    Type
REMARK                         _______ _______ _______ _____ _____    ______ ____
ROOT
ATOM      1  N   UNL     1       4.846   5.425  18.470  0.00  0.00    +0.000 N 
ATOM      2  C   UNL     1       3.537   5.237  18.970  0.00  0.00    +0.000 A 
ATOM      3  C   UNL     1       3.206   4.113  19.675  0.00  0.00    +0.000 A 
ATOM      4  C   UNL     1       4.291   3.123  19.924  0.00  0.00    +0.000 A 
ATOM      5  O   UNL     1       4.169   2.137  20.638  0.00  0.00    +0.000 OA
ATOM      6  N   UNL     1       5.472   3.329  19.293  0.00  0.00    +0.000 N 
ATOM      7  C   UNL     1       5.816   4.429  18.585  0.00  0.00    +0.000 A 
ATOM      8  O   UNL     1       6.939   4.488  18.098  0.00  0.00    +0.000 OA
ATOM      9  H   UNL     1       6.191   2.635  19.426  0.00  0.00    +0.000 HD
ENDROOT
BRANCH   3  10
ATOM     10  C   UNL     1       1.809   3.710  20.196  0.00  0.00    +0.000 C 
ATOM     11  C   UNL     1       1.155   2.655  19.288  0.00  0.00    +0.000 C 
ATOM     12  C   UNL     1       1.723   3.214  21.650  0.00  0.00    +0.000 C 
ENDBRANCH   3  10
BRANCH   1  14
ATOM     13  C   UNL     1       5.018   6.388  16.184  0.00  0.00    +0.000 C 
ATOM     14  C   UNL     1       5.294   6.572  17.681  0.00  0.00    +0.000 C 
ENDBRANCH   1  14
BRANCH   2  15
ATOM     15  C   UNL     1       2.370   6.120  18.561  0.00  0.00    +0.000 C 
ATOM     16  O   UNL     1       1.642   5.768  17.632  0.00  0.00    +0.000 OA
BRANCH  15  17
ATOM     17  C   UNL     1       2.023   7.439  19.159  0.00  0.00    +0.000 A 
ATOM     18  C   UNL     1       2.093   8.553  18.293  0.00  0.00    +0.000 A 
ATOM     19  C   UNL     1       1.780   9.847  18.719  0.00  0.00    +0.000 A 
ATOM     20  C   UNL     1       1.787  10.994  17.751  0.00  0.00    +0.000 C 
ATOM     21  C   UNL     1       1.421  10.037  20.053  0.00  0.00    +0.000 A 
ATOM     22  C   UNL     1       1.346   8.944  20.928  0.00  0.00    +0.000 A 
ATOM     23  C   UNL     1       1.614   7.639  20.477  0.00  0.00    +0.000 A 
BRANCH  22  24
ATOM     24  C   UNL     1       0.992   9.166  22.301  0.00  0.00    +0.000 C 
ATOM     25  N   UNL     1       0.693   9.351  23.405  0.00  0.00    +0.000 NA
ENDBRANCH  22  24
ENDBRANCH  15  17
ENDBRANCH   2  15
TORSDOF 5
ENDMDL
MODEL 3
REMARK VINA RESULT:      -7.1      0.749      3.154
REMARK  Name = 
REMARK  9 active torsions:
REMARK  status: ('A' for Active; 'I' for Inactive)
REMARK    1  A    between atoms: C_1  and  C_2
REMARK    2  A    between atoms: C_2  and  N_3
REMARK    3  A    between atoms: C_4  and  C_5
REMARK    4  A    between atoms: C_5  and  C_7
REMARK    5  A    between atoms: C_9  and  C_10
REMARK    6  A    between atoms: C_12  and  C_13
REMARK    7  A    between atoms: C_16  and  C_17
REMARK    8  A    between atoms: C_17  and  C_18
REMARK    9  A    between atoms: C_17  and  C_19
REMARK                            x       y       z     vdW  Elec       q    Type
REMARK                         _______ _______ _______ _____ _____    ______ ____
ROOT
ATOM      1  N   UNL     1       2.242   6.055  18.933  0.00  0.00    +0.000 N 
ATOM      2  C   UNL     1       2.511   4.680  18.747  0.00  0.00    +0.000 A 
ATOM      3  C   UNL     1       2.553   3.819  19.809  0.00  0.00    +0.000 A 
ATOM      4  C   UNL     1       2.266   4.388  21.155  0.00  0.00    +0.000 A 
ATOM      5  O   UNL     1       2.151   3.718  22.173  0.00  0.00    +0.000 OA
ATOM      6  N   UNL     1       2.152   5.735  21.246  0.00  0.00    +0.000 N 
ATOM      7  C   UNL     1       2.116   6.603  20.210  0.00  0.00    +0.000 A 
ATOM      8  O   UNL     1       1.973   7.797  20.446  0.00  0.00    +0.000 OA
ATOM      9  H   UNL     1       2.002   6.123  22.165  0.00  0.00    +0.000 HD
ENDROOT
BRANCH   3  10
ATOM     10  C   UNL     1       2.932   2.323  19.789  0.00  0.00    +0.000 C 
ATOM     11  C   UNL     1       2.046   1.533  18.811  0.00  0.00    +0.000 C 
ATOM     12  C   UNL     1       4.402   1.978  19.493  0.00  0.00    +0.000 C 
ENDBRANCH   3  10
BRANCH   1  14
ATOM     13  C   UNL     1       3.575   7.709  17.641  0.00  0.00    +0.000 C 
ATOM     14  C   UNL     1       2.205   7.062  17.872  0.00  0.00    +0.000 C 
ENDBRANCH   1  14
BRANCH   2  15
ATOM     15  C   UNL     1       3.005   4.114  17.427  0.00  0.00    +0.000 C 
ATOM     16  O   UNL     1       2.247   3.426  16.742  0.00  0.00    +0.000 OA
BRANCH  15  17
ATOM     17  C   UNL     1       4.377   4.272  16.870  0.00  0.00    +0.000 A 
ATOM     18  C   UNL     1       5.374   4.691  17.779  0.00  0.00    +0.000 A 
ATOM     19  C   UNL     1       6.707   4.866  17.394  0.00  0.00    +0.000 A 
ATOM     20  C   UNL     1       7.753   5.233  18.405  0.00  0.00    +0.000 C 
ATOM     21  C   UNL     1       7.044   4.649  16.058  0.00  0.00    +0.000 A 
ATOM     22  C   UNL     1       6.069   4.233  15.141  0.00  0.00    +0.000 A 
ATOM     23  C   UNL     1       4.742   4.010  15.549  0.00  0.00    +0.000 A 
BRANCH  22  24
ATOM     24  C   UNL     1       6.437   4.033  13.768  0.00  0.00    +0.000 C 
ATOM     25  N   UNL     1       6.723   3.861  12.659  0.00  0.00    +0.000 NA
ENDBRANCH  22  24
ENDBRANCH  15  17
ENDBRANCH   2  15
TORSDOF 5
ENDMDL
MODEL 4
REMARK VINA RESULT:      -6.9      2.684      6.194
REMARK  Name = 
REMARK  9 active torsions:
REMARK  status: ('A' for Active; 'I' for Inactive)
REMARK    1  A    between atoms: C_1  and  C_2
REMARK    2  A    between atoms: C_2  and  N_3
REMARK    3  A    between atoms: C_4  and  C_5
REMARK    4  A    between atoms: C_5  and  C_7
REMARK    5  A    between atoms: C_9  and  C_10
REMARK    6  A    between atoms: C_12  and  C_13
REMARK    7  A    between atoms: C_16  and  C_17
REMARK    8  A    between atoms: C_17  and  C_18
REMARK    9  A    between atoms: C_17  and  C_19
REMARK                            x       y       z     vdW  Elec       q    Type
REMARK                         _______ _______ _______ _____ _____    ______ ____
ROOT
ATOM      1  N   UNL     1       4.884   5.390  18.378  0.00  0.00    +0.000 N 
ATOM      2  C   UNL     1       3.559   5.194  18.831  0.00  0.00    +0.000 A 
ATOM      3  C   UNL     1       3.211   4.074  19.533  0.00  0.00    +0.000 A 
ATOM      4  C   UNL     1       4.295   3.096  19.831  0.00  0.00    +0.000 A 
ATOM      5  O   UNL     1       4.155   2.115  20.550  0.00  0.00    +0.000 OA
ATOM      6  N   UNL     1       5.497   3.307  19.242  0.00  0.00    +0.000 N 
ATOM      7  C   UNL     1       5.857   4.403  18.538  0.00  0.00    +0.000 A 
ATOM      8  O   UNL     1       6.997   4.468  18.092  0.00  0.00    +0.000 OA
ATOM      9  H   UNL     1       6.216   2.620  19.408  0.00  0.00    +0.000 HD
ENDROOT
BRANCH   3  10
ATOM     10  C   UNL     1       1.800   3.663  20.005  0.00  0.00    +0.000 C 
ATOM     11  C   UNL     1       1.219   2.542  19.127  0.00  0.00    +0.000 C 
ATOM     12  C   UNL     1       1.651   3.246  21.480  0.00  0.00    +0.000 C 
ENDBRANCH   3  10
BRANCH   1  14
ATOM     13  C   UNL     1       5.077   6.361  16.097  0.00  0.00    +0.000 C 
ATOM     14  C   UNL     1       5.352   6.534  17.595  0.00  0.00    +0.000 C 
ENDBRANCH   1  14
BRANCH   2  15
ATOM     15  C   UNL     1       2.401   6.063  18.371  0.00  0.00    +0.000 C 
ATOM     16  O   UNL     1       1.683   5.675  17.449  0.00  0.00    +0.000 OA
BRANCH  15  17
ATOM     17  C   UNL     1       2.052   7.407  18.908  0.00  0.00    +0.000 A 
ATOM     18  C   UNL     1       1.448   7.430  20.185  0.00  0.00    +0.000 A 
ATOM     19  C   UNL     1       1.082   8.623  20.814  0.00  0.00    +0.000 A 
ATOM     20  C   UNL     1       0.516   8.613  22.205  0.00  0.00    +0.000 C 
ATOM     21  C   UNL     1       1.295   9.823  20.136  0.00  0.00    +0.000 A 
ATOM     22  C   UNL     1       1.895   9.821  18.869  0.00  0.00    +0.000 A 
ATOM     23  C   UNL     1       2.305   8.619  18.266  0.00  0.00    +0.000 A 
BRANCH  22  24
ATOM     24  C   UNL     1       2.088  11.066  18.182  0.00  0.00    +0.000 C 
ATOM     25  N   UNL     1       2.258  12.073  17.634  0.00  0.00    +0.000 NA
ENDBRANCH  22  24
ENDBRANCH  15  17
ENDBRANCH   2  15
TORSDOF 5
ENDMDL
MODEL 5
REMARK VINA RESULT:      -6.8      1.771      3.896
REMARK  Name = 
REMARK  9 active torsions:
REMARK  status: ('A' for Active; 'I' for Inactive)
REMARK    1  A    between atoms: C_1  and  C_2
REMARK    2  A    between atoms: C_2  and  N_3
REMARK    3  A    between atoms: C_4  and  C_5
REMARK    4  A    between atoms: C_5  and  C_7
REMARK    5  A    between atoms: C_9  and  C_10
REMARK    6  A    between atoms: C_12  and  C_13
REMARK    7  A    between atoms: C_16  and  C_17
REMARK    8  A    between atoms: C_17  and  C_18
REMARK    9  A    between atoms: C_17  and  C_19
REMARK                            x       y       z     vdW  Elec       q    Type
REMARK                         _______ _______ _______ _____ _____    ______ ____
ROOT
ATOM      1  N   UNL     1       2.020   6.114  19.082  0.00  0.00    +0.000 N 
ATOM      2  C   UNL     1       2.491   4.807  18.822  0.00  0.00    +0.000 A 
ATOM      3  C   UNL     1       2.634   3.895  19.830  0.00  0.00    +0.000 A 
ATOM      4  C   UNL     1       2.236   4.328  21.199  0.00  0.00    +0.000 A 
ATOM      5  O   UNL     1       2.197   3.584  22.170  0.00  0.00    +0.000 OA
ATOM      6  N   UNL     1       1.926   5.636  21.367  0.00  0.00    +0.000 N 
ATOM      7  C   UNL     1       1.786   6.554  20.385  0.00  0.00    +0.000 A 
ATOM      8  O   UNL     1       1.466   7.698  20.688  0.00  0.00    +0.000 OA
ATOM      9  H   UNL     1       1.700   5.938  22.302  0.00  0.00    +0.000 HD
ENDROOT
BRANCH   3  10
ATOM     10  C   UNL     1       3.227   2.473  19.732  0.00  0.00    +0.000 C 
ATOM     11  C   UNL     1       2.428   1.598  18.751  0.00  0.00    +0.000 C 
ATOM     12  C   UNL     1       4.719   2.362  19.371  0.00  0.00    +0.000 C 
ENDBRANCH   3  10
BRANCH   1  14
ATOM     13  C   UNL     1       3.106   8.059  17.976  0.00  0.00    +0.000 C 
ATOM     14  C   UNL     1       1.861   7.171  18.082  0.00  0.00    +0.000 C 
ENDBRANCH   1  14
BRANCH   2  15
ATOM     15  C   UNL     1       3.093   4.404  17.486  0.00  0.00    +0.000 C 
ATOM     16  O   UNL     1       2.454   3.669  16.732  0.00  0.00    +0.000 OA
BRANCH  15  17
ATOM     17  C   UNL     1       4.444   4.783  16.989  0.00  0.00    +0.000 A 
ATOM     18  C   UNL     1       4.838   4.212  15.759  0.00  0.00    +0.000 A 
ATOM     19  C   UNL     1       6.075   4.493  15.170  0.00  0.00    +0.000 A 
ATOM     20  C   UNL     1       6.425   3.932  13.822  0.00  0.00    +0.000 C 
ATOM     21  C   UNL     1       6.953   5.340  15.845  0.00  0.00    +0.000 A 
ATOM     22  C   UNL     1       6.580   5.916  17.067  0.00  0.00    +0.000 A 
ATOM     23  C   UNL     1       5.314   5.668  17.626  0.00  0.00    +0.000 A 
BRANCH  22  24
ATOM     24  C   UNL     1       7.508   6.770  17.752  0.00  0.00    +0.000 C 
ATOM     25  N   UNL     1       8.261   7.448  18.314  0.00  0.00    +0.000 NA
ENDBRANCH  22  24
ENDBRANCH  15  17
ENDBRANCH   2  15
TORSDOF 5
ENDMDL
MODEL 6
REMARK VINA RESULT:      -6.8      5.737      9.337
REMARK  Name = 
REMARK  9 active torsions:
REMARK  status: ('A' for Active; 'I' for Inactive)
REMARK    1  A    between atoms: C_1  and  C_2
REMARK    2  A    between atoms: C_2  and  N_3
REMARK    3  A    between atoms: C_4  and  C_5
REMARK    4  A    between atoms: C_5  and  C_7
REMARK    5  A    between atoms: C_9  and  C_10
REMARK    6  A    between atoms: C_12  and  C_13
REMARK    7  A    between atoms: C_16  and  C_17
REMARK    8  A    between atoms: C_17  and  C_18
REMARK    9  A    between atoms: C_17  and  C_19
REMARK                            x       y       z     vdW  Elec       q    Type
REMARK                         _______ _______ _______ _____ _____    ______ ____
ROOT
ATOM      1  N   UNL     1      -0.588  10.567  21.756  0.00  0.00    +0.000 N 
ATOM      2  C   UNL     1      -0.345  10.589  20.363  0.00  0.00    +0.000 A 
ATOM      3  C   UNL     1       0.583   9.759  19.797  0.00  0.00    +0.000 A 
ATOM      4  C   UNL     1       1.290   8.812  20.703  0.00  0.00    +0.000 A 
ATOM      5  O   UNL     1       2.052   7.934  20.319  0.00  0.00    +0.000 OA
ATOM      6  N   UNL     1       1.084   8.960  22.034  0.00  0.00    +0.000 N 
ATOM      7  C   UNL     1       0.179   9.779  22.614  0.00  0.00    +0.000 A 
ATOM      8  O   UNL     1       0.082   9.780  23.836  0.00  0.00    +0.000 OA
ATOM      9  H   UNL     1       1.598   8.347  22.649  0.00  0.00    +0.000 HD
ENDROOT
BRANCH   3  10
ATOM     10  C   UNL     1       1.039   9.730  18.322  0.00  0.00    +0.000 C 
ATOM     11  C   UNL     1       2.171  10.738  18.065  0.00  0.00    +0.000 C 
ATOM     12  C   UNL     1       1.469   8.366  17.752  0.00  0.00    +0.000 C 
ENDBRANCH   3  10
BRANCH   1  14
ATOM     13  C   UNL     1      -0.931  12.805  22.786  0.00  0.00    +0.000 C 
ATOM     14  C   UNL     1      -1.533  11.432  22.463  0.00  0.00    +0.000 C 
ENDBRANCH   1  14
BRANCH   2  15
ATOM     15  C   UNL     1      -0.894  11.674  19.453  0.00  0.00    +0.000 C 
ATOM     16  O   UNL     1      -0.338  12.772  19.418  0.00  0.00    +0.000 OA
BRANCH  15  17
ATOM     17  C   UNL     1      -2.106  11.561  18.595  0.00  0.00    +0.000 A 
ATOM     18  C   UNL     1      -3.327  11.951  19.189  0.00  0.00    +0.000 A 
ATOM     19  C   UNL     1      -4.539  11.910  18.494  0.00  0.00    +0.000 A 
ATOM     20  C   UNL     1      -5.804  12.408  19.131  0.00  0.00    +0.000 C 
ATOM     21  C   UNL     1      -4.536  11.435  17.183  0.00  0.00    +0.000 A 
ATOM     22  C   UNL     1      -3.334  11.044  16.577  0.00  0.00    +0.000 A 
ATOM     23  C   UNL     1      -2.112  11.137  17.267  0.00  0.00    +0.000 A 
BRANCH  22  24
ATOM     24  C   UNL     1      -3.357  10.541  15.232  0.00  0.00    +0.000 C 
ATOM     25  N   UNL     1      -3.361  10.133  14.148  0.00  0.00    +0.000 NA
ENDBRANCH  22  24
ENDBRANCH  15  17
ENDBRANCH   2  15
TORSDOF 5
ENDMDL
MODEL 7
REMARK VINA RESULT:      -6.7      6.320      9.488
REMARK  Name = 
REMARK  9 active torsions:
REMARK  status: ('A' for Active; 'I' for Inactive)
REMARK    1  A    between atoms: C_1  and  C_2
REMARK    2  A    between atoms: C_2  and  N_3
REMARK    3  A    between atoms: C_4  and  C_5
REMARK    4  A    between atoms: C_5  and  C_7
REMARK    5  A    between atoms: C_9  and  C_10
REMARK    6  A    between atoms: C_12  and  C_13
REMARK    7  A    between atoms: C_16  and  C_17
REMARK    8  A    between atoms: C_17  and  C_18
REMARK    9  A    between atoms: C_17  and  C_19
REMARK                            x       y       z     vdW  Elec       q    Type
REMARK                         _______ _______ _______ _____ _____    ______ ____
ROOT
ATOM      1  N   UNL     1       0.600   9.942  19.751  0.00  0.00    +0.000 N 
ATOM      2  C   UNL     1      -0.150  11.067  20.164  0.00  0.00    +0.000 A 
ATOM      3  C   UNL     1      -0.493  11.243  21.476  0.00  0.00    +0.000 A 
ATOM      4  C   UNL     1      -0.008  10.222  22.447  0.00  0.00    +0.000 A 
ATOM      5  O   UNL     1      -0.135  10.316  23.661  0.00  0.00    +0.000 OA
ATOM      6  N   UNL     1       0.586   9.117  21.937  0.00  0.00    +0.000 N 
ATOM      7  C   UNL     1       0.926   8.920  20.644  0.00  0.00    +0.000 A 
ATOM      8  O   UNL     1       1.493   7.878  20.335  0.00  0.00    +0.000 OA
ATOM      9  H   UNL     1       0.873   8.406  22.593  0.00  0.00    +0.000 HD
ENDROOT
BRANCH   3  10
ATOM     10  C   UNL     1      -1.387  12.352  22.071  0.00  0.00    +0.000 C 
ATOM     11  C   UNL     1      -2.396  11.778  23.080  0.00  0.00    +0.000 C 
ATOM     12  C   UNL     1      -0.673  13.545  22.731  0.00  0.00    +0.000 C 
ENDBRANCH   3  10
BRANCH   1  14
ATOM     13  C   UNL     1       2.239  10.424  17.945  0.00  0.00    +0.000 C 
ATOM     14  C   UNL     1       0.991   9.644  18.373  0.00  0.00    +0.000 C 
ENDBRANCH   1  14
BRANCH   2  15
ATOM     15  C   UNL     1      -0.826  12.006  19.180  0.00  0.00    +0.000 C 
ATOM     16  O   UNL     1      -0.358  13.130  18.998  0.00  0.00    +0.000 OA
BRANCH  15  17
ATOM     17  C   UNL     1      -2.069  11.717  18.413  0.00  0.00    +0.000 A 
ATOM     18  C   UNL     1      -3.287  11.935  19.095  0.00  0.00    +0.000 A 
ATOM     19  C   UNL     1      -4.528  11.717  18.489  0.00  0.00    +0.000 A 
ATOM     20  C   UNL     1      -5.801  12.037  19.218  0.00  0.00    +0.000 C 
ATOM     21  C   UNL     1      -4.552  11.238  17.180  0.00  0.00    +0.000 A 
ATOM     22  C   UNL     1      -3.354  11.016  16.487  0.00  0.00    +0.000 A 
ATOM     23  C   UNL     1      -2.112  11.286  17.087  0.00  0.00    +0.000 A 
BRANCH  22  24
ATOM     24  C   UNL     1      -3.404  10.505  15.146  0.00  0.00    +0.000 C 
ATOM     25  N   UNL     1      -3.457  10.087  14.067  0.00  0.00    +0.000 NA
ENDBRANCH  22  24
ENDBRANCH  15  17
ENDBRANCH   2  15
TORSDOF 5
ENDMDL
MODEL 8
REMARK VINA RESULT:      -6.7      6.314      9.851
REMARK  Name = 
REMARK  9 active torsions:
REMARK  status: ('A' for Active; 'I' for Inactive)
REMARK    1  A    between atoms: C_1  and  C_2
REMARK    2  A    between atoms: C_2  and  N_3
REMARK    3  A    between atoms: C_4  and  C_5
REMARK    4  A    between atoms: C_5  and  C_7
REMARK    5  A    between atoms: C_9  and  C_10
REMARK    6  A    between atoms: C_12  and  C_13
REMARK    7  A    between atoms: C_16  and  C_17
REMARK    8  A    between atoms: C_17  and  C_18
REMARK    9  A    between atoms: C_17  and  C_19
REMARK                            x       y       z     vdW  Elec       q    Type
REMARK                         _______ _______ _______ _____ _____    ______ ____
ROOT
ATOM      1  N   UNL     1       0.576   9.928  19.739  0.00  0.00    +0.000 N 
ATOM      2  C   UNL     1      -0.179  11.060  20.121  0.00  0.00    +0.000 A 
ATOM      3  C   UNL     1      -0.532  11.266  21.426  0.00  0.00    +0.000 A 
ATOM      4  C   UNL     1      -0.052  10.269  22.424  0.00  0.00    +0.000 A 
ATOM      5  O   UNL     1      -0.189  10.390  23.634  0.00  0.00    +0.000 OA
ATOM      6  N   UNL     1       0.547   9.153  21.943  0.00  0.00    +0.000 N 
ATOM      7  C   UNL     1       0.897   8.928  20.657  0.00  0.00    +0.000 A 
ATOM      8  O   UNL     1       1.468   7.880  20.377  0.00  0.00    +0.000 OA
ATOM      9  H   UNL     1       0.831   8.458  22.617  0.00  0.00    +0.000 HD
ENDROOT
BRANCH   3  10
ATOM     10  C   UNL     1      -1.432  12.386  21.989  0.00  0.00    +0.000 C 
ATOM     11  C   UNL     1      -2.444  11.834  23.007  0.00  0.00    +0.000 C 
ATOM     12  C   UNL     1      -0.725  13.598  22.622  0.00  0.00    +0.000 C 
ENDBRANCH   3  10
BRANCH   1  14
ATOM     13  C   UNL     1       2.219  10.383  17.929  0.00  0.00    +0.000 C 
ATOM     14  C   UNL     1       0.977   9.599  18.371  0.00  0.00    +0.000 C 
ENDBRANCH   1  14
BRANCH   2  15
ATOM     15  C   UNL     1      -0.850  11.975  19.110  0.00  0.00    +0.000 C 
ATOM     16  O   UNL     1      -0.331  13.058  18.837  0.00  0.00    +0.000 OA
BRANCH  15  17
ATOM     17  C   UNL     1      -2.142  11.712  18.418  0.00  0.00    +0.000 A 
ATOM     18  C   UNL     1      -2.051  11.210  17.101  0.00  0.00    +0.000 A 
ATOM     19  C   UNL     1      -3.185  10.906  16.341  0.00  0.00    +0.000 A 
ATOM     20  C   UNL     1      -3.050  10.299  14.975  0.00  0.00    +0.000 C 
ATOM     21  C   UNL     1      -4.440  11.140  16.901  0.00  0.00    +0.000 A 
ATOM     22  C   UNL     1      -4.550  11.637  18.207  0.00  0.00    +0.000 A 
ATOM     23  C   UNL     1      -3.405  11.892  18.982  0.00  0.00    +0.000 A 
BRANCH  22  24
ATOM     24  C   UNL     1      -5.853  11.887  18.755  0.00  0.00    +0.000 C 
ATOM     25  N   UNL     1      -6.902  12.079  19.209  0.00  0.00    +0.000 NA
ENDBRANCH  22  24
ENDBRANCH  15  17
ENDBRANCH   2  15
TORSDOF 5
ENDMDL
MODEL 9
REMARK VINA RESULT:      -6.6      2.786      6.598
REMARK  Name = 
REMARK  9 active torsions:
REMARK  status: ('A' for Active; 'I' for Inactive)
REMARK    1  A    between atoms: C_1  and  C_2
REMARK    2  A    between atoms: C_2  and  N_3
REMARK    3  A    between atoms: C_4  and  C_5
REMARK    4  A    between atoms: C_5  and  C_7
REMARK    5  A    between atoms: C_9  and  C_10
REMARK    6  A    between atoms: C_12  and  C_13
REMARK    7  A    between atoms: C_16  and  C_17
REMARK    8  A    between atoms: C_17  and  C_18
REMARK    9  A    between atoms: C_17  and  C_19
REMARK                            x       y       z     vdW  Elec       q    Type
REMARK                         _______ _______ _______ _____ _____    ______ ____
ROOT
ATOM      1  N   UNL     1       5.464   5.759  18.527  0.00  0.00    +0.000 N 
ATOM      2  C   UNL     1       4.055   5.829  18.601  0.00  0.00    +0.000 A 
ATOM      3  C   UNL     1       3.317   4.761  19.032  0.00  0.00    +0.000 A 
ATOM      4  C   UNL     1       4.067   3.544  19.453  0.00  0.00    +0.000 A 
ATOM      5  O   UNL     1       3.548   2.564  19.970  0.00  0.00    +0.000 OA
ATOM      6  N   UNL     1       5.401   3.529  19.219  0.00  0.00    +0.000 N 
ATOM      7  C   UNL     1       6.146   4.570  18.787  0.00  0.00    +0.000 A 
ATOM      8  O   UNL     1       7.355   4.415  18.654  0.00  0.00    +0.000 OA
ATOM      9  H   UNL     1       5.900   2.687  19.463  0.00  0.00    +0.000 HD
ENDROOT
BRANCH   3  10
ATOM     10  C   UNL     1       1.779   4.639  19.074  0.00  0.00    +0.000 C 
ATOM     11  C   UNL     1       1.273   3.582  18.078  0.00  0.00    +0.000 C 
ATOM     12  C   UNL     1       1.138   4.355  20.444  0.00  0.00    +0.000 C 
ENDBRANCH   3  10
BRANCH   1  14
ATOM     13  C   UNL     1       6.807   6.600  16.610  0.00  0.00    +0.000 C 
ATOM     14  C   UNL     1       6.341   6.831  18.053  0.00  0.00    +0.000 C 
ENDBRANCH   1  14
BRANCH   2  15
ATOM     15  C   UNL     1       3.258   6.970  17.991  0.00  0.00    +0.000 C 
ATOM     16  O   UNL     1       3.409   7.243  16.800  0.00  0.00    +0.000 OA
BRANCH  15  17
ATOM     17  C   UNL     1       2.308   7.856  18.718  0.00  0.00    +0.000 A 
ATOM     18  C   UNL     1       1.409   8.595  17.917  0.00  0.00    +0.000 A 
ATOM     19  C   UNL     1       0.454   9.455  18.469  0.00  0.00    +0.000 A 
ATOM     20  C   UNL     1      -0.537  10.161  17.592  0.00  0.00    +0.000 C 
ATOM     21  C   UNL     1       0.420   9.605  19.855  0.00  0.00    +0.000 A 
ATOM     22  C   UNL     1       1.304   8.880  20.666  0.00  0.00    +0.000 A 
ATOM     23  C   UNL     1       2.226   7.979  20.105  0.00  0.00    +0.000 A 
BRANCH  22  24
ATOM     24  C   UNL     1       1.262   9.064  22.089  0.00  0.00    +0.000 C 
ATOM     25  N   UNL     1       1.217   9.224  23.236  0.00  0.00    +0.000 NA
ENDBRANCH  22  24
ENDBRANCH  15  17
ENDBRANCH   2  15
TORSDOF 5
ENDMDL
