MODEL 1
REMARK VINA RESULT:      -8.0      0.000      0.000
REMARK  Name = 
REMARK  4 active torsions:
REMARK  status: ('A' for Active; 'I' for Inactive)
REMARK    1  A    between atoms: C_7  and  C_8
REMARK    2  A    between atoms: C_11  and  O_12
REMARK    3  A    between atoms: O_12  and  C_13
REMARK    4  A    between atoms: C_13  and  C_14
REMARK                            x       y       z     vdW  Elec       q    Type
REMARK                         _______ _______ _______ _____ _____    ______ ____
ROOT
ATOM      1  C   UNL     1       6.191   5.521  17.491  0.00  0.00    +0.000 A 
ATOM      2  C   UNL     1       6.233   6.744  16.818  0.00  0.00    +0.000 A 
ATOM      3  C   UNL     1       7.135   7.730  17.213  0.00  0.00    +0.000 A 
ATOM      4  C   UNL     1       7.977   7.512  18.304  0.00  0.00    +0.000 A 
ATOM      5  C   UNL     1       7.978   6.269  18.938  0.00  0.00    +0.000 A 
ATOM      6  C   UNL     1       7.083   5.274  18.537  0.00  0.00    +0.000 A 
ENDROOT
BRANCH   1  13
ATOM      7  O   UNL     1       1.000   2.801  18.080  0.00  0.00    +0.000 OA
ATOM      8  C   UNL     1       1.971   3.537  18.114  0.00  0.00    +0.000 C 
ATOM      9  N   UNL     1       2.141   4.619  18.932  0.00  0.00    +0.000 N 
ATOM     10  C   UNL     1       3.353   5.216  18.731  0.00  0.00    +0.000 C 
ATOM     11  O   UNL     1       3.791   6.192  19.306  0.00  0.00    +0.000 OA
ATOM     12  C   UNL     1       3.998   4.398  17.649  0.00  0.00    +0.000 C 
ATOM     13  C   UNL     1       5.201   4.527  17.086  0.00  0.00    +0.000 C 
ATOM     14  N   UNL     1       3.102   3.417  17.330  0.00  0.00    +0.000 N 
ATOM     15  H   UNL     1       1.464   4.931  19.605  0.00  0.00    +0.000 HD
ATOM     16  H   UNL     1       3.231   2.680  16.654  0.00  0.00    +0.000 HD
ENDBRANCH   1  13
BRANCH   4  17
ATOM     17  O   UNL     1       8.821   8.454  18.829  0.00  0.00    +0.000 OA
BRANCH  17  18
ATOM     18  C   UNL     1       8.488   9.804  18.478  0.00  0.00    +0.000 C 
BRANCH  18  19
ATOM     19  C   UNL     1       9.624  10.759  18.761  0.00  0.00    +0.000 A 
ATOM     20  C   UNL     1      10.535  11.100  17.745  0.00  0.00    +0.000 A 
ATOM     21  C   UNL     1      11.645  11.900  18.017  0.00  0.00    +0.000 A 
ATOM     22  C   UNL     1      11.867  12.368  19.309  0.00  0.00    +0.000 A 
ATOM     23  C   UNL     1      10.982  12.032  20.333  0.00  0.00    +0.000 A 
ATOM     24  C   UNL     1       9.869  11.228  20.062  0.00  0.00    +0.000 A 
ATOM     25 CL   UNL     1       8.847  10.812  21.393  0.00  0.00    +0.000 Cl
ENDBRANCH  18  19
ENDBRANCH  17  18
ENDBRANCH   4  17
TORSDOF 4
ENDMDL
MODEL 2
REMARK VINA RESULT:      -8.0      6.052      8.445
REMARK  Name = 
REMARK  4 active torsions:
REMARK  status: ('A' for Active; 'I' for Inactive)
REMARK    1  A    between atoms: C_7  and  C_8
REMARK    2  A    between atoms: C_11  and  O_12
REMARK    3  A    between atoms: O_12  and  C_13
REMARK    4  A    between atoms: C_13  and  C_14
REMARK                            x       y       z     vdW  Elec       q    Type
REMARK                         _______ _______ _______ _____ _____    ______ ____
ROOT
ATOM      1  C   UNL     1       2.967   6.756  18.968  0.00  0.00    +0.000 A 
ATOM      2  C   UNL     1       2.160   7.127  20.045  0.00  0.00    +0.000 A 
ATOM      3  C   UNL     1       1.391   8.287  19.978  0.00  0.00    +0.000 A 
ATOM      4  C   UNL     1       1.450   9.101  18.846  0.00  0.00    +0.000 A 
ATOM      5  C   UNL     1       2.208   8.700  17.746  0.00  0.00    +0.000 A 
ATOM      6  C   UNL     1       2.972   7.531  17.805  0.00  0.00    +0.000 A 
ENDROOT
BRANCH   1  13
ATOM      7  O   UNL     1       3.890   0.969  18.375  0.00  0.00    +0.000 OA
ATOM      8  C   UNL     1       3.499   2.123  18.346  0.00  0.00    +0.000 C 
ATOM      9  N   UNL     1       2.321   2.568  17.812  0.00  0.00    +0.000 N 
ATOM     10  C   UNL     1       2.179   3.918  17.963  0.00  0.00    +0.000 C 
ATOM     11  O   UNL     1       1.242   4.600  17.596  0.00  0.00    +0.000 OA
ATOM     12  C   UNL     1       3.430   4.350  18.672  0.00  0.00    +0.000 C 
ATOM     13  C   UNL     1       3.799   5.562  19.088  0.00  0.00    +0.000 C 
ATOM     14  N   UNL     1       4.170   3.216  18.858  0.00  0.00    +0.000 N 
ATOM     15  H   UNL     1       1.640   1.975  17.372  0.00  0.00    +0.000 HD
ATOM     16  H   UNL     1       5.061   3.148  19.326  0.00  0.00    +0.000 HD
ENDBRANCH   1  13
BRANCH   4  17
ATOM     17  O   UNL     1       0.813  10.308  18.728  0.00  0.00    +0.000 OA
BRANCH  17  18
ATOM     18  C   UNL     1      -0.455  10.372  19.395  0.00  0.00    +0.000 C 
BRANCH  18  19
ATOM     19  C   UNL     1      -1.601  10.505  18.419  0.00  0.00    +0.000 A 
ATOM     20  C   UNL     1      -1.594   9.782  17.213  0.00  0.00    +0.000 A 
ATOM     21  C   UNL     1      -2.595   9.970  16.259  0.00  0.00    +0.000 A 
ATOM     22  C   UNL     1      -3.615  10.890  16.491  0.00  0.00    +0.000 A 
ATOM     23  C   UNL     1      -3.633  11.625  17.676  0.00  0.00    +0.000 A 
ATOM     24  C   UNL     1      -2.629  11.437  18.633  0.00  0.00    +0.000 A 
ATOM     25 CL   UNL     1      -2.692  12.423  20.052  0.00  0.00    +0.000 Cl
ENDBRANCH  18  19
ENDBRANCH  17  18
ENDBRANCH   4  17
TORSDOF 4
ENDMDL
MODEL 3
REMARK VINA RESULT:      -7.9      1.346      1.513
REMARK  Name = 
REMARK  4 active torsions:
REMARK  status: ('A' for Active; 'I' for Inactive)
REMARK    1  A    between atoms: C_7  and  C_8
REMARK    2  A    between atoms: C_11  and  O_12
REMARK    3  A    between atoms: O_12  and  C_13
REMARK    4  A    between atoms: C_13  and  C_14
REMARK                            x       y       z     vdW  Elec       q    Type
REMARK                         _______ _______ _______ _____ _____    ______ ____
ROOT
ATOM      1  C   UNL     1       6.323   5.257  17.585  0.00  0.00    +0.000 A 
ATOM      2  C   UNL     1       6.185   6.444  16.861  0.00  0.00    +0.000 A 
ATOM      3  C   UNL     1       6.990   7.543  17.158  0.00  0.00    +0.000 A 
ATOM      4  C   UNL     1       7.914   7.473  18.201  0.00  0.00    +0.000 A 
ATOM      5  C   UNL     1       8.095   6.270  18.884  0.00  0.00    +0.000 A 
ATOM      6  C   UNL     1       7.298   5.162  18.582  0.00  0.00    +0.000 A 
ENDROOT
BRANCH   1  13
ATOM      7  O   UNL     1       1.583   1.938  18.682  0.00  0.00    +0.000 OA
ATOM      8  C   UNL     1       2.455   2.788  18.617  0.00  0.00    +0.000 C 
ATOM      9  N   UNL     1       2.562   3.901  19.403  0.00  0.00    +0.000 N 
ATOM     10  C   UNL     1       3.668   4.638  19.084  0.00  0.00    +0.000 C 
ATOM     11  O   UNL     1       4.032   5.673  19.606  0.00  0.00    +0.000 OA
ATOM     12  C   UNL     1       4.310   3.880  17.958  0.00  0.00    +0.000 C 
ATOM     13  C   UNL     1       5.432   4.141  17.285  0.00  0.00    +0.000 C 
ATOM     14  N   UNL     1       3.517   2.789  17.735  0.00  0.00    +0.000 N 
ATOM     15  H   UNL     1       1.915   4.144  20.133  0.00  0.00    +0.000 HD
ATOM     16  H   UNL     1       3.675   2.057  17.059  0.00  0.00    +0.000 HD
ENDBRANCH   1  13
BRANCH   4  17
ATOM     17  O   UNL     1       8.673   8.528  18.632  0.00  0.00    +0.000 OA
BRANCH  17  18
ATOM     18  C   UNL     1       8.245   9.803  18.137  0.00  0.00    +0.000 C 
BRANCH  18  19
ATOM     19  C   UNL     1       9.141  10.924  18.611  0.00  0.00    +0.000 A 
ATOM     20  C   UNL     1      10.114  10.686  19.598  0.00  0.00    +0.000 A 
ATOM     21  C   UNL     1      10.880  11.731  20.115  0.00  0.00    +0.000 A 
ATOM     22  C   UNL     1      10.682  13.032  19.660  0.00  0.00    +0.000 A 
ATOM     23  C   UNL     1       9.714  13.291  18.690  0.00  0.00    +0.000 A 
ATOM     24  C   UNL     1       8.945  12.243  18.171  0.00  0.00    +0.000 A 
ATOM     25 CL   UNL     1       7.730  12.651  17.010  0.00  0.00    +0.000 Cl
ENDBRANCH  18  19
ENDBRANCH  17  18
ENDBRANCH   4  17
TORSDOF 4
ENDMDL
MODEL 4
REMARK VINA RESULT:      -7.9      1.306      1.789
REMARK  Name = 
REMARK  4 active torsions:
REMARK  status: ('A' for Active; 'I' for Inactive)
REMARK    1  A    between atoms: C_7  and  C_8
REMARK    2  A    between atoms: C_11  and  O_12
REMARK    3  A    between atoms: O_12  and  C_13
REMARK    4  A    between atoms: C_13  and  C_14
REMARK                            x       y       z     vdW  Elec       q    Type
REMARK                         _______ _______ _______ _____ _____    ______ ____
ROOT
ATOM      1  C   UNL     1       5.906   5.441  17.539  0.00  0.00    +0.000 A 
ATOM      2  C   UNL     1       6.875   5.181  18.511  0.00  0.00    +0.000 A 
ATOM      3  C   UNL     1       7.794   6.168  18.865  0.00  0.00    +0.000 A 
ATOM      4  C   UNL     1       7.770   7.408  18.228  0.00  0.00    +0.000 A 
ATOM      5  C   UNL     1       6.766   7.690  17.301  0.00  0.00    +0.000 A 
ATOM      6  C   UNL     1       5.836   6.707  16.951  0.00  0.00    +0.000 A 
ENDROOT
BRANCH   1  13
ATOM      7  O   UNL     1       0.970   2.305  18.239  0.00  0.00    +0.000 OA
ATOM      8  C   UNL     1       1.879   3.118  18.253  0.00  0.00    +0.000 C 
ATOM      9  N   UNL     1       1.980   4.207  19.074  0.00  0.00    +0.000 N 
ATOM     10  C   UNL     1       3.135   4.902  18.846  0.00  0.00    +0.000 C 
ATOM     11  O   UNL     1       3.506   5.908  19.417  0.00  0.00    +0.000 OA
ATOM     12  C   UNL     1       3.817   4.143  17.744  0.00  0.00    +0.000 C 
ATOM     13  C   UNL     1       4.991   4.372  17.153  0.00  0.00    +0.000 C 
ATOM     14  N   UNL     1       2.996   3.094  17.442  0.00  0.00    +0.000 N 
ATOM     15  H   UNL     1       1.297   4.460  19.765  0.00  0.00    +0.000 HD
ATOM     16  H   UNL     1       3.167   2.372  16.758  0.00  0.00    +0.000 HD
ENDBRANCH   1  13
BRANCH   4  17
ATOM     17  O   UNL     1       8.691   8.401  18.434  0.00  0.00    +0.000 OA
BRANCH  17  18
ATOM     18  C   UNL     1       8.283   9.690  17.957  0.00  0.00    +0.000 C 
BRANCH  18  19
ATOM     19  C   UNL     1       9.079  10.806  18.594  0.00  0.00    +0.000 A 
ATOM     20  C   UNL     1       9.973  10.531  19.645  0.00  0.00    +0.000 A 
ATOM     21  C   UNL     1      10.639  11.562  20.307  0.00  0.00    +0.000 A 
ATOM     22  C   UNL     1      10.418  12.886  19.936  0.00  0.00    +0.000 A 
ATOM     23  C   UNL     1       9.528  13.181  18.904  0.00  0.00    +0.000 A 
ATOM     24  C   UNL     1       8.858  12.146  18.239  0.00  0.00    +0.000 A 
ATOM     25 CL   UNL     1       7.732  12.594  17.006  0.00  0.00    +0.000 Cl
ENDBRANCH  18  19
ENDBRANCH  17  18
ENDBRANCH   4  17
TORSDOF 4
ENDMDL
MODEL 5
REMARK VINA RESULT:      -7.9      0.375      1.071
REMARK  Name = 
REMARK  4 active torsions:
REMARK  status: ('A' for Active; 'I' for Inactive)
REMARK    1  A    between atoms: C_7  and  C_8
REMARK    2  A    between atoms: C_11  and  O_12
REMARK    3  A    between atoms: O_12  and  C_13
REMARK    4  A    between atoms: C_13  and  C_14
REMARK                            x       y       z     vdW  Elec       q    Type
REMARK                         _______ _______ _______ _____ _____    ______ ____
ROOT
ATOM      1  C   UNL     1       6.296   5.745  17.495  0.00  0.00    +0.000 A 
ATOM      2  C   UNL     1       7.195   5.401  18.508  0.00  0.00    +0.000 A 
ATOM      3  C   UNL     1       8.093   6.348  18.998  0.00  0.00    +0.000 A 
ATOM      4  C   UNL     1       8.121   7.633  18.457  0.00  0.00    +0.000 A 
ATOM      5  C   UNL     1       7.183   7.996  17.489  0.00  0.00    +0.000 A 
ATOM      6  C   UNL     1       6.274   7.053  17.003  0.00  0.00    +0.000 A 
ENDROOT
BRANCH   1  13
ATOM      7  O   UNL     1       1.535   2.297  17.856  0.00  0.00    +0.000 OA
ATOM      8  C   UNL     1       2.410   3.138  17.973  0.00  0.00    +0.000 C 
ATOM      9  N   UNL     1       2.516   4.066  18.971  0.00  0.00    +0.000 N 
ATOM     10  C   UNL     1       3.627   4.846  18.817  0.00  0.00    +0.000 C 
ATOM     11  O   UNL     1       3.991   5.751  19.542  0.00  0.00    +0.000 OA
ATOM     12  C   UNL     1       4.275   4.331  17.564  0.00  0.00    +0.000 C 
ATOM     13  C   UNL     1       5.403   4.719  16.967  0.00  0.00    +0.000 C 
ATOM     14  N   UNL     1       3.480   3.314  17.117  0.00  0.00    +0.000 N 
ATOM     15  H   UNL     1       1.864   4.158  19.730  0.00  0.00    +0.000 HD
ATOM     16  H   UNL     1       3.640   2.735  16.307  0.00  0.00    +0.000 HD
ENDBRANCH   1  13
BRANCH   4  17
ATOM     17  O   UNL     1       9.031   8.597  18.801  0.00  0.00    +0.000 OA
BRANCH  17  18
ATOM     18  C   UNL     1       8.649   9.928  18.428  0.00  0.00    +0.000 C 
BRANCH  18  19
ATOM     19  C   UNL     1       9.737  10.933  18.725  0.00  0.00    +0.000 A 
ATOM     20  C   UNL     1      10.632  11.329  17.715  0.00  0.00    +0.000 A 
ATOM     21  C   UNL     1      11.702  12.179  17.998  0.00  0.00    +0.000 A 
ATOM     22  C   UNL     1      11.900  12.641  19.296  0.00  0.00    +0.000 A 
ATOM     23  C   UNL     1      11.030  12.251  20.314  0.00  0.00    +0.000 A 
ATOM     24  C   UNL     1       9.957  11.397  20.031  0.00  0.00    +0.000 A 
ATOM     25 CL   UNL     1       8.955  10.917  21.356  0.00  0.00    +0.000 Cl
ENDBRANCH  18  19
ENDBRANCH  17  18
ENDBRANCH   4  17
TORSDOF 4
ENDMDL
MODEL 6
REMARK VINA RESULT:      -7.7      5.926      8.475
REMARK  Name = 
REMARK  4 active torsions:
REMARK  status: ('A' for Active; 'I' for Inactive)
REMARK    1  A    between atoms: C_7  and  C_8
REMARK    2  A    between atoms: C_11  and  O_12
REMARK    3  A    between atoms: O_12  and  C_13
REMARK    4  A    between atoms: C_13  and  C_14
REMARK                            x       y       z     vdW  Elec       q    Type
REMARK                         _______ _______ _______ _____ _____    ______ ____
ROOT
ATOM      1  C   UNL     1       3.042   6.844  19.016  0.00  0.00    +0.000 A 
ATOM      2  C   UNL     1       3.251   7.576  17.844  0.00  0.00    +0.000 A 
ATOM      3  C   UNL     1       2.514   8.733  17.601  0.00  0.00    +0.000 A 
ATOM      4  C   UNL     1       1.541   9.149  18.510  0.00  0.00    +0.000 A 
ATOM      5  C   UNL     1       1.374   8.454  19.709  0.00  0.00    +0.000 A 
ATOM      6  C   UNL     1       2.119   7.299  19.962  0.00  0.00    +0.000 A 
ENDROOT
BRANCH   1  13
ATOM      7  O   UNL     1       3.694   1.010  18.548  0.00  0.00    +0.000 OA
ATOM      8  C   UNL     1       3.371   2.183  18.476  0.00  0.00    +0.000 C 
ATOM      9  N   UNL     1       2.274   2.685  17.834  0.00  0.00    +0.000 N 
ATOM     10  C   UNL     1       2.193   4.043  17.962  0.00  0.00    +0.000 C 
ATOM     11  O   UNL     1       1.332   4.770  17.507  0.00  0.00    +0.000 OA
ATOM     12  C   UNL     1       3.397   4.414  18.779  0.00  0.00    +0.000 C 
ATOM     13  C   UNL     1       3.792   5.609  19.219  0.00  0.00    +0.000 C 
ATOM     14  N   UNL     1       4.053   3.244  19.039  0.00  0.00    +0.000 N 
ATOM     15  H   UNL     1       1.603   2.125  17.338  0.00  0.00    +0.000 HD
ATOM     16  H   UNL     1       4.893   3.133  19.587  0.00  0.00    +0.000 HD
ENDBRANCH   1  13
BRANCH   4  17
ATOM     17  O   UNL     1       0.700  10.211  18.310  0.00  0.00    +0.000 OA
BRANCH  17  18
ATOM     18  C   UNL     1      -0.519  10.147  19.064  0.00  0.00    +0.000 C 
BRANCH  18  19
ATOM     19  C   UNL     1      -1.733  10.384  18.196  0.00  0.00    +0.000 A 
ATOM     20  C   UNL     1      -1.856   9.737  16.954  0.00  0.00    +0.000 A 
ATOM     21  C   UNL     1      -2.922  10.022  16.100  0.00  0.00    +0.000 A 
ATOM     22  C   UNL     1      -3.878  10.964  16.469  0.00  0.00    +0.000 A 
ATOM     23  C   UNL     1      -3.768  11.625  17.692  0.00  0.00    +0.000 A 
ATOM     24  C   UNL     1      -2.699  11.340  18.550  0.00  0.00    +0.000 A 
ATOM     25 CL   UNL     1      -2.603  12.238  20.024  0.00  0.00    +0.000 Cl
ENDBRANCH  18  19
ENDBRANCH  17  18
ENDBRANCH   4  17
TORSDOF 4
ENDMDL
MODEL 7
REMARK VINA RESULT:      -7.6      6.848      9.803
REMARK  Name = 
REMARK  4 active torsions:
REMARK  status: ('A' for Active; 'I' for Inactive)
REMARK    1  A    between atoms: C_7  and  C_8
REMARK    2  A    between atoms: C_11  and  O_12
REMARK    3  A    between atoms: O_12  and  C_13
REMARK    4  A    between atoms: C_13  and  C_14
REMARK                            x       y       z     vdW  Elec       q    Type
REMARK                         _______ _______ _______ _____ _____    ______ ____
ROOT
ATOM      1  C   UNL     1       0.439  10.237  19.011  0.00  0.00    +0.000 A 
ATOM      2  C   UNL     1       0.420   9.751  20.320  0.00  0.00    +0.000 A 
ATOM      3  C   UNL     1       1.170   8.627  20.661  0.00  0.00    +0.000 A 
ATOM      4  C   UNL     1       1.918   7.963  19.688  0.00  0.00    +0.000 A 
ATOM      5  C   UNL     1       1.986   8.482  18.395  0.00  0.00    +0.000 A 
ATOM      6  C   UNL     1       1.244   9.616  18.052  0.00  0.00    +0.000 A 
ENDROOT
BRANCH   1  13
ATOM      7  O   UNL     1      -0.537  16.033  18.622  0.00  0.00    +0.000 OA
ATOM      8  C   UNL     1      -0.091  14.903  18.733  0.00  0.00    +0.000 C 
ATOM      9  N   UNL     1       1.184  14.565  19.090  0.00  0.00    +0.000 N 
ATOM     10  C   UNL     1       1.350  13.210  19.140  0.00  0.00    +0.000 C 
ATOM     11  O   UNL     1       2.365  12.608  19.429  0.00  0.00    +0.000 OA
ATOM     12  C   UNL     1       0.008  12.654  18.760  0.00  0.00    +0.000 C 
ATOM     13  C   UNL     1      -0.396  11.386  18.673  0.00  0.00    +0.000 C 
ATOM     14  N   UNL     1      -0.796  13.734  18.524  0.00  0.00    +0.000 N 
ATOM     15  H   UNL     1       1.908  15.229  19.299  0.00  0.00    +0.000 HD
ATOM     16  H   UNL     1      -1.772  13.714  18.270  0.00  0.00    +0.000 HD
ENDBRANCH   1  13
BRANCH   4  17
ATOM     17  O   UNL     1       2.602   6.796  19.903  0.00  0.00    +0.000 OA
BRANCH  17  18
ATOM     18  C   UNL     1       2.919   6.071  18.707  0.00  0.00    +0.000 C 
BRANCH  18  19
ATOM     19  C   UNL     1       2.327   4.680  18.717  0.00  0.00    +0.000 A 
ATOM     20  C   UNL     1       1.369   4.322  19.683  0.00  0.00    +0.000 A 
ATOM     21  C   UNL     1       0.888   3.016  19.765  0.00  0.00    +0.000 A 
ATOM     22  C   UNL     1       1.361   2.042  18.888  0.00  0.00    +0.000 A 
ATOM     23  C   UNL     1       2.318   2.374  17.930  0.00  0.00    +0.000 A 
ATOM     24  C   UNL     1       2.802   3.685  17.848  0.00  0.00    +0.000 A 
ATOM     25 CL   UNL     1       4.026   4.006  16.669  0.00  0.00    +0.000 Cl
ENDBRANCH  18  19
ENDBRANCH  17  18
ENDBRANCH   4  17
TORSDOF 4
ENDMDL
MODEL 8
REMARK VINA RESULT:      -7.6      7.134      9.822
REMARK  Name = 
REMARK  4 active torsions:
REMARK  status: ('A' for Active; 'I' for Inactive)
REMARK    1  A    between atoms: C_7  and  C_8
REMARK    2  A    between atoms: C_11  and  O_12
REMARK    3  A    between atoms: O_12  and  C_13
REMARK    4  A    between atoms: C_13  and  C_14
REMARK                            x       y       z     vdW  Elec       q    Type
REMARK                         _______ _______ _______ _____ _____    ______ ____
ROOT
ATOM      1  C   UNL     1       0.343  10.209  19.168  0.00  0.00    +0.000 A 
ATOM      2  C   UNL     1       0.388   9.767  20.492  0.00  0.00    +0.000 A 
ATOM      3  C   UNL     1       1.157   8.655  20.833  0.00  0.00    +0.000 A 
ATOM      4  C   UNL     1       1.859   7.960  19.848  0.00  0.00    +0.000 A 
ATOM      5  C   UNL     1       1.864   8.437  18.536  0.00  0.00    +0.000 A 
ATOM      6  C   UNL     1       1.103   9.558  18.192  0.00  0.00    +0.000 A 
ENDROOT
BRANCH   1  13
ATOM      7  O   UNL     1      -0.664  15.987  18.626  0.00  0.00    +0.000 OA
ATOM      8  C   UNL     1      -0.212  14.862  18.754  0.00  0.00    +0.000 C 
ATOM      9  N   UNL     1       1.081  14.538  19.057  0.00  0.00    +0.000 N 
ATOM     10  C   UNL     1       1.252  13.185  19.147  0.00  0.00    +0.000 C 
ATOM     11  O   UNL     1       2.282  12.594  19.404  0.00  0.00    +0.000 OA
ATOM     12  C   UNL     1      -0.106  12.616  18.854  0.00  0.00    +0.000 C 
ATOM     13  C   UNL     1      -0.511  11.345  18.833  0.00  0.00    +0.000 C 
ATOM     14  N   UNL     1      -0.924  13.686  18.623  0.00  0.00    +0.000 N 
ATOM     15  H   UNL     1       1.814  15.209  19.207  0.00  0.00    +0.000 HD
ATOM     16  H   UNL     1      -1.911  13.657  18.419  0.00  0.00    +0.000 HD
ENDBRANCH   1  13
BRANCH   4  17
ATOM     17  O   UNL     1       2.556   6.803  20.068  0.00  0.00    +0.000 OA
BRANCH  17  18
ATOM     18  C   UNL     1       1.742   5.690  20.462  0.00  0.00    +0.000 C 
BRANCH  18  19
ATOM     19  C   UNL     1       1.979   4.479  19.590  0.00  0.00    +0.000 A 
ATOM     20  C   UNL     1       2.291   4.635  18.227  0.00  0.00    +0.000 A 
ATOM     21  C   UNL     1       2.415   3.526  17.390  0.00  0.00    +0.000 A 
ATOM     22  C   UNL     1       2.222   2.244  17.897  0.00  0.00    +0.000 A 
ATOM     23  C   UNL     1       1.901   2.069  19.243  0.00  0.00    +0.000 A 
ATOM     24  C   UNL     1       1.776   3.180  20.084  0.00  0.00    +0.000 A 
ATOM     25 CL   UNL     1       1.325   2.885  21.727  0.00  0.00    +0.000 Cl
ENDBRANCH  18  19
ENDBRANCH  17  18
ENDBRANCH   4  17
TORSDOF 4
ENDMDL
MODEL 9
REMARK VINA RESULT:      -7.5      2.777      3.570
REMARK  Name = 
REMARK  4 active torsions:
REMARK  status: ('A' for Active; 'I' for Inactive)
REMARK    1  A    between atoms: C_7  and  C_8
REMARK    2  A    between atoms: C_11  and  O_12
REMARK    3  A    between atoms: O_12  and  C_13
REMARK    4  A    between atoms: C_13  and  C_14
REMARK                            x       y       z     vdW  Elec       q    Type
REMARK                         _______ _______ _______ _____ _____    ______ ____
ROOT
ATOM      1  C   UNL     1       6.443   5.841  16.880  0.00  0.00    +0.000 A 
ATOM      2  C   UNL     1       7.277   5.369  17.896  0.00  0.00    +0.000 A 
ATOM      3  C   UNL     1       8.060   6.260  18.629  0.00  0.00    +0.000 A 
ATOM      4  C   UNL     1       8.040   7.622  18.327  0.00  0.00    +0.000 A 
ATOM      5  C   UNL     1       7.163   8.101  17.354  0.00  0.00    +0.000 A 
ATOM      6  C   UNL     1       6.367   7.213  16.625  0.00  0.00    +0.000 A 
ENDROOT
BRANCH   1  13
ATOM      7  O   UNL     1       5.334   2.860  11.922  0.00  0.00    +0.000 OA
ATOM      8  C   UNL     1       5.787   3.527  12.836  0.00  0.00    +0.000 C 
ATOM      9  N   UNL     1       6.939   4.263  12.810  0.00  0.00    +0.000 N 
ATOM     10  C   UNL     1       7.148   4.912  13.995  0.00  0.00    +0.000 C 
ATOM     11  O   UNL     1       8.079   5.640  14.274  0.00  0.00    +0.000 OA
ATOM     12  C   UNL     1       5.980   4.513  14.851  0.00  0.00    +0.000 C 
ATOM     13  C   UNL     1       5.673   4.879  16.097  0.00  0.00    +0.000 C 
ATOM     14  N   UNL     1       5.217   3.678  14.085  0.00  0.00    +0.000 N 
ATOM     15  H   UNL     1       7.551   4.329  12.016  0.00  0.00    +0.000 HD
ATOM     16  H   UNL     1       4.344   3.248  14.350  0.00  0.00    +0.000 HD
ENDBRANCH   1  13
BRANCH   4  17
ATOM     17  O   UNL     1       8.847   8.556  18.920  0.00  0.00    +0.000 OA
BRANCH  17  18
ATOM     18  C   UNL     1       8.521   9.912  18.587  0.00  0.00    +0.000 C 
BRANCH  18  19
ATOM     19  C   UNL     1       9.675  10.851  18.850  0.00  0.00    +0.000 A 
ATOM     20  C   UNL     1      10.577  11.174  17.821  0.00  0.00    +0.000 A 
ATOM     21  C   UNL     1      11.702  11.960  18.074  0.00  0.00    +0.000 A 
ATOM     22  C   UNL     1      11.947  12.431  19.361  0.00  0.00    +0.000 A 
ATOM     23  C   UNL     1      11.070  12.114  20.397  0.00  0.00    +0.000 A 
ATOM     24  C   UNL     1       9.942  11.324  20.145  0.00  0.00    +0.000 A 
ATOM     25 CL   UNL     1       8.932  10.931  21.491  0.00  0.00    +0.000 Cl
ENDBRANCH  18  19
ENDBRANCH  17  18
ENDBRANCH   4  17
TORSDOF 4
ENDMDL
