MODEL 1
REMARK VINA RESULT:      -8.1      0.000      0.000
REMARK  Name = 
REMARK  6 active torsions:
REMARK  status: ('A' for Active; 'I' for Inactive)
REMARK    1  A    between atoms: C_1  and  C_2
REMARK    2  A    between atoms: C_2  and  C_3
REMARK    3  A    between atoms: C_2  and  C_4
REMARK    4  A    between atoms: C_4  and  C_5
REMARK    5  A    between atoms: C_5  and  C_6
REMARK    6  A    between atoms: N_11  and  C_12
REMARK                            x       y       z     vdW  Elec       q    Type
REMARK                         _______ _______ _______ _____ _____    ______ ____
ROOT
ATOM      1  C   UNL     1       6.857   4.762  14.772  0.00  0.00    +0.000 C 
ATOM      2  O   UNL     1       7.779   5.514  14.465  0.00  0.00    +0.000 OA
ATOM      3  N   UNL     1       6.028   4.996  15.855  0.00  0.00    +0.000 N 
ATOM      4  C   UNL     1       6.228   6.204  16.679  0.00  0.00    +0.000 C 
ATOM      5  C   UNL     1       4.878   6.846  17.079  0.00  0.00    +0.000 C 
ATOM      6  N   UNL     1       4.062   5.792  17.690  0.00  0.00    +0.000 N 
ATOM      7  C   UNL     1       3.745   4.687  16.784  0.00  0.00    +0.000 C 
ATOM      8  C   UNL     1       5.076   4.014  16.403  0.00  0.00    +0.000 C 
ENDROOT
BRANCH   6   9
ATOM      9  C   UNL     1       3.278   6.074  18.787  0.00  0.00    +0.000 A 
ATOM     10  N   UNL     1       3.144   5.127  19.724  0.00  0.00    +0.000 NA
ATOM     11  C   UNL     1       2.357   5.421  20.764  0.00  0.00    +0.000 A 
ATOM     12  N   UNL     1       1.691   6.559  20.958  0.00  0.00    +0.000 NA
ATOM     13  C   UNL     1       1.785   7.485  20.018  0.00  0.00    +0.000 A 
ATOM     14  N   UNL     1       1.070   8.606  20.186  0.00  0.00    +0.000 NA
ATOM     15  C   UNL     1       1.087   9.571  19.251  0.00  0.00    +0.000 A 
ATOM     16  N   UNL     1       0.272  10.679  19.454  0.00  0.00    +0.000 N 
ATOM     17  C   UNL     1       1.815   9.464  18.088  0.00  0.00    +0.000 A 
ATOM     18  C   UNL     1       2.553   8.312  17.900  0.00  0.00    +0.000 A 
ATOM     19  C   UNL     1       2.575   7.297  18.882  0.00  0.00    +0.000 A 
ATOM     20  H   UNL     1      -0.153  10.589  20.374  0.00  0.00    +0.000 HD
ATOM     21  H   UNL     1       0.773  11.552  19.345  0.00  0.00    +0.000 HD
ENDBRANCH   6   9
BRANCH   1  22
ATOM     22  C   UNL     1       6.524   3.521  13.961  0.00  0.00    +0.000 C 
BRANCH  22  23
ATOM     23  C   UNL     1       5.993   3.828  12.569  0.00  0.00    +0.000 C 
BRANCH  23  25
ATOM     24  C   UNL     1       4.112   3.196  11.039  0.00  0.00    +0.000 C 
ATOM     25  C   UNL     1       5.192   2.655  11.975  0.00  0.00    +0.000 C 
ATOM     26  C   UNL     1       6.075   1.653  11.228  0.00  0.00    +0.000 C 
ENDBRANCH  23  25
ENDBRANCH  22  23
ENDBRANCH   1  22
TORSDOF 4
ENDMDL
MODEL 2
REMARK VINA RESULT:      -8.1      1.489      3.328
REMARK  Name = 
REMARK  6 active torsions:
REMARK  status: ('A' for Active; 'I' for Inactive)
REMARK    1  A    between atoms: C_1  and  C_2
REMARK    2  A    between atoms: C_2  and  C_3
REMARK    3  A    between atoms: C_2  and  C_4
REMARK    4  A    between atoms: C_4  and  C_5
REMARK    5  A    between atoms: C_5  and  C_6
REMARK    6  A    between atoms: N_11  and  C_12
REMARK                            x       y       z     vdW  Elec       q    Type
REMARK                         _______ _______ _______ _____ _____    ______ ____
ROOT
ATOM      1  C   UNL     1       6.820   4.745  14.472  0.00  0.00    +0.000 C 
ATOM      2  O   UNL     1       7.758   5.492  14.207  0.00  0.00    +0.000 OA
ATOM      3  N   UNL     1       5.987   4.945  15.560  0.00  0.00    +0.000 N 
ATOM      4  C   UNL     1       6.203   6.110  16.439  0.00  0.00    +0.000 C 
ATOM      5  C   UNL     1       4.862   6.759  16.858  0.00  0.00    +0.000 C 
ATOM      6  N   UNL     1       4.021   5.694  17.415  0.00  0.00    +0.000 N 
ATOM      7  C   UNL     1       3.690   4.637  16.457  0.00  0.00    +0.000 C 
ATOM      8  C   UNL     1       5.011   3.958  16.055  0.00  0.00    +0.000 C 
ENDROOT
BRANCH   6   9
ATOM      9  C   UNL     1       3.234   5.941  18.518  0.00  0.00    +0.000 A 
ATOM     10  N   UNL     1       2.878   7.207  18.765  0.00  0.00    +0.000 NA
ATOM     11  C   UNL     1       2.136   7.419  19.856  0.00  0.00    +0.000 A 
ATOM     12  N   UNL     1       1.719   6.496  20.724  0.00  0.00    +0.000 NA
ATOM     13  C   UNL     1       2.101   5.248  20.510  0.00  0.00    +0.000 A 
ATOM     14  N   UNL     1       1.730   4.329  21.413  0.00  0.00    +0.000 NA
ATOM     15  C   UNL     1       2.116   3.049  21.280  0.00  0.00    +0.000 A 
ATOM     16  N   UNL     1       1.754   2.159  22.285  0.00  0.00    +0.000 N 
ATOM     17  C   UNL     1       2.904   2.616  20.238  0.00  0.00    +0.000 A 
ATOM     18  C   UNL     1       3.298   3.553  19.303  0.00  0.00    +0.000 A 
ATOM     19  C   UNL     1       2.879   4.898  19.405  0.00  0.00    +0.000 A 
ATOM     20  H   UNL     1       1.153   2.655  22.939  0.00  0.00    +0.000 HD
ATOM     21  H   UNL     1       1.318   1.321  21.921  0.00  0.00    +0.000 HD
ENDBRANCH   6   9
BRANCH   1  22
ATOM     22  C   UNL     1       6.470   3.549  13.604  0.00  0.00    +0.000 C 
BRANCH  22  23
ATOM     23  C   UNL     1       6.727   3.777  12.121  0.00  0.00    +0.000 C 
BRANCH  23  25
ATOM     24  C   UNL     1       6.076   1.449  11.463  0.00  0.00    +0.000 C 
ATOM     25  C   UNL     1       5.799   2.933  11.228  0.00  0.00    +0.000 C 
ATOM     26  C   UNL     1       4.317   3.232  11.466  0.00  0.00    +0.000 C 
ENDBRANCH  23  25
ENDBRANCH  22  23
ENDBRANCH   1  22
TORSDOF 4
ENDMDL
MODEL 3
REMARK VINA RESULT:      -7.9      2.991      5.656
REMARK  Name = 
REMARK  6 active torsions:
REMARK  status: ('A' for Active; 'I' for Inactive)
REMARK    1  A    between atoms: C_1  and  C_2
REMARK    2  A    between atoms: C_2  and  C_3
REMARK    3  A    between atoms: C_2  and  C_4
REMARK    4  A    between atoms: C_4  and  C_5
REMARK    5  A    between atoms: C_5  and  C_6
REMARK    6  A    between atoms: N_11  and  C_12
REMARK                            x       y       z     vdW  Elec       q    Type
REMARK                         _______ _______ _______ _____ _____    ______ ____
ROOT
ATOM      1  C   UNL     1       3.488   6.441  18.736  0.00  0.00    +0.000 C 
ATOM      2  O   UNL     1       3.714   5.594  19.596  0.00  0.00    +0.000 OA
ATOM      3  N   UNL     1       2.483   7.385  18.859  0.00  0.00    +0.000 N 
ATOM      4  C   UNL     1       1.649   7.408  20.076  0.00  0.00    +0.000 C 
ATOM      5  C   UNL     1       1.373   8.856  20.546  0.00  0.00    +0.000 C 
ATOM      6  N   UNL     1       0.834   9.590  19.396  0.00  0.00    +0.000 N 
ATOM      7  C   UNL     1       1.761   9.688  18.268  0.00  0.00    +0.000 C 
ATOM      8  C   UNL     1       2.019   8.257  17.765  0.00  0.00    +0.000 C 
ENDROOT
BRANCH   6   9
ATOM      9  C   UNL     1      -0.188  10.497  19.573  0.00  0.00    +0.000 A 
ATOM     10  N   UNL     1      -0.191  11.228  20.694  0.00  0.00    +0.000 NA
ATOM     11  C   UNL     1      -1.209  12.081  20.849  0.00  0.00    +0.000 A 
ATOM     12  N   UNL     1      -2.221  12.271  20.002  0.00  0.00    +0.000 NA
ATOM     13  C   UNL     1      -2.247  11.524  18.912  0.00  0.00    +0.000 A 
ATOM     14  N   UNL     1      -3.294  11.675  18.088  0.00  0.00    +0.000 NA
ATOM     15  C   UNL     1      -3.405  10.920  16.982  0.00  0.00    +0.000 A 
ATOM     16  N   UNL     1      -4.547  11.079  16.205  0.00  0.00    +0.000 N 
ATOM     17  C   UNL     1      -2.477   9.961  16.642  0.00  0.00    +0.000 A 
ATOM     18  C   UNL     1      -1.396   9.792  17.484  0.00  0.00    +0.000 A 
ATOM     19  C   UNL     1      -1.242  10.595  18.636  0.00  0.00    +0.000 A 
ATOM     20  H   UNL     1      -5.086  11.848  16.598  0.00  0.00    +0.000 HD
ATOM     21  H   UNL     1      -4.332  11.219  15.227  0.00  0.00    +0.000 HD
ENDBRANCH   6   9
BRANCH   1  22
ATOM     22  C   UNL     1       4.320   6.548  17.470  0.00  0.00    +0.000 C 
BRANCH  22  23
ATOM     23  C   UNL     1       4.586   5.207  16.801  0.00  0.00    +0.000 C 
BRANCH  23  25
ATOM     24  C   UNL     1       7.064   4.876  16.972  0.00  0.00    +0.000 C 
ATOM     25  C   UNL     1       5.913   5.194  16.020  0.00  0.00    +0.000 C 
ATOM     26  C   UNL     1       5.905   4.198  14.857  0.00  0.00    +0.000 C 
ENDBRANCH  23  25
ENDBRANCH  22  23
ENDBRANCH   1  22
TORSDOF 4
ENDMDL
MODEL 4
REMARK VINA RESULT:      -7.6      1.438      2.044
REMARK  Name = 
REMARK  6 active torsions:
REMARK  status: ('A' for Active; 'I' for Inactive)
REMARK    1  A    between atoms: C_1  and  C_2
REMARK    2  A    between atoms: C_2  and  C_3
REMARK    3  A    between atoms: C_2  and  C_4
REMARK    4  A    between atoms: C_4  and  C_5
REMARK    5  A    between atoms: C_5  and  C_6
REMARK    6  A    between atoms: N_11  and  C_12
REMARK                            x       y       z     vdW  Elec       q    Type
REMARK                         _______ _______ _______ _____ _____    ______ ____
ROOT
ATOM      1  C   UNL     1       7.253   4.922  13.947  0.00  0.00    +0.000 C 
ATOM      2  O   UNL     1       8.374   5.422  13.980  0.00  0.00    +0.000 OA
ATOM      3  N   UNL     1       6.529   4.629  15.090  0.00  0.00    +0.000 N 
ATOM      4  C   UNL     1       7.099   4.943  16.415  0.00  0.00    +0.000 C 
ATOM      5  C   UNL     1       6.026   5.516  17.371  0.00  0.00    +0.000 C 
ATOM      6  N   UNL     1       4.901   4.575  17.373  0.00  0.00    +0.000 N 
ATOM      7  C   UNL     1       4.255   4.420  16.069  0.00  0.00    +0.000 C 
ATOM      8  C   UNL     1       5.299   3.818  15.112  0.00  0.00    +0.000 C 
ENDROOT
BRANCH   6   9
ATOM      9  C   UNL     1       4.235   4.298  18.547  0.00  0.00    +0.000 A 
ATOM     10  N   UNL     1       4.327   3.058  19.043  0.00  0.00    +0.000 NA
ATOM     11  C   UNL     1       3.650   2.812  20.169  0.00  0.00    +0.000 A 
ATOM     12  N   UNL     1       2.889   3.677  20.842  0.00  0.00    +0.000 NA
ATOM     13  C   UNL     1       2.760   4.891  20.337  0.00  0.00    +0.000 A 
ATOM     14  N   UNL     1       1.950   5.742  20.983  0.00  0.00    +0.000 NA
ATOM     15  C   UNL     1       1.740   6.980  20.503  0.00  0.00    +0.000 A 
ATOM     16  N   UNL     1       0.838   7.791  21.183  0.00  0.00    +0.000 N 
ATOM     17  C   UNL     1       2.324   7.434  19.342  0.00  0.00    +0.000 A 
ATOM     18  C   UNL     1       3.156   6.566  18.664  0.00  0.00    +0.000 A 
ATOM     19  C   UNL     1       3.416   5.271  19.164  0.00  0.00    +0.000 A 
ATOM     20  H   UNL     1       0.545   7.295  22.022  0.00  0.00    +0.000 HD
ATOM     21  H   UNL     1       1.220   8.705  21.389  0.00  0.00    +0.000 HD
ENDBRANCH   6   9
BRANCH   1  22
ATOM     22  C   UNL     1       6.546   4.611  12.639  0.00  0.00    +0.000 C 
BRANCH  22  23
ATOM     23  C   UNL     1       7.002   3.311  11.994  0.00  0.00    +0.000 C 
BRANCH  23  25
ATOM     24  C   UNL     1       4.604   2.959  11.358  0.00  0.00    +0.000 C 
ATOM     25  C   UNL     1       5.865   2.278  11.888  0.00  0.00    +0.000 C 
ATOM     26  C   UNL     1       6.228   1.086  10.999  0.00  0.00    +0.000 C 
ENDBRANCH  23  25
ENDBRANCH  22  23
ENDBRANCH   1  22
TORSDOF 4
ENDMDL
MODEL 5
REMARK VINA RESULT:      -7.6      3.421      8.839
REMARK  Name = 
REMARK  6 active torsions:
REMARK  status: ('A' for Active; 'I' for Inactive)
REMARK    1  A    between atoms: C_1  and  C_2
REMARK    2  A    between atoms: C_2  and  C_3
REMARK    3  A    between atoms: C_2  and  C_4
REMARK    4  A    between atoms: C_4  and  C_5
REMARK    5  A    between atoms: C_5  and  C_6
REMARK    6  A    between atoms: N_11  and  C_12
REMARK                            x       y       z     vdW  Elec       q    Type
REMARK                         _______ _______ _______ _____ _____    ______ ____
ROOT
ATOM      1  C   UNL     1       0.733  10.745  19.887  0.00  0.00    +0.000 C 
ATOM      2  O   UNL     1       0.558  11.698  19.133  0.00  0.00    +0.000 OA
ATOM      3  N   UNL     1       1.099   9.489  19.435  0.00  0.00    +0.000 N 
ATOM      4  C   UNL     1       1.312   9.266  17.992  0.00  0.00    +0.000 C 
ATOM      5  C   UNL     1       2.540   8.361  17.734  0.00  0.00    +0.000 C 
ATOM      6  N   UNL     1       2.362   7.150  18.542  0.00  0.00    +0.000 N 
ATOM      7  C   UNL     1       2.324   7.398  19.984  0.00  0.00    +0.000 C 
ATOM      8  C   UNL     1       1.087   8.269  20.263  0.00  0.00    +0.000 C 
ENDROOT
BRANCH   6   9
ATOM      9  C   UNL     1       2.715   5.920  18.029  0.00  0.00    +0.000 A 
ATOM     10  N   UNL     1       1.811   4.934  18.084  0.00  0.00    +0.000 NA
ATOM     11  C   UNL     1       2.191   3.747  17.603  0.00  0.00    +0.000 A 
ATOM     12  N   UNL     1       3.380   3.446  17.078  0.00  0.00    +0.000 NA
ATOM     13  C   UNL     1       4.292   4.403  17.058  0.00  0.00    +0.000 A 
ATOM     14  N   UNL     1       5.505   4.086  16.583  0.00  0.00    +0.000 NA
ATOM     15  C   UNL     1       6.491   4.998  16.570  0.00  0.00    +0.000 A 
ATOM     16  N   UNL     1       7.744   4.587  16.127  0.00  0.00    +0.000 N 
ATOM     17  C   UNL     1       6.322   6.280  17.041  0.00  0.00    +0.000 A 
ATOM     18  C   UNL     1       5.079   6.620  17.537  0.00  0.00    +0.000 A 
ATOM     19  C   UNL     1       4.018   5.687  17.533  0.00  0.00    +0.000 A 
ATOM     20  H   UNL     1       7.657   3.629  15.794  0.00  0.00    +0.000 HD
ATOM     21  H   UNL     1       8.127   5.206  15.425  0.00  0.00    +0.000 HD
ENDBRANCH   6   9
BRANCH   1  22
ATOM     22  C   UNL     1       0.599  10.874  21.395  0.00  0.00    +0.000 C 
BRANCH  22  23
ATOM     23  C   UNL     1      -0.843  10.888  21.879  0.00  0.00    +0.000 C 
BRANCH  23  25
ATOM     24  C   UNL     1      -0.621  13.347  22.302  0.00  0.00    +0.000 C 
ATOM     25  C   UNL     1      -1.114  12.023  22.883  0.00  0.00    +0.000 C 
ATOM     26  C   UNL     1      -2.592  12.137  23.263  0.00  0.00    +0.000 C 
ENDBRANCH  23  25
ENDBRANCH  22  23
ENDBRANCH   1  22
TORSDOF 4
ENDMDL
MODEL 6
REMARK VINA RESULT:      -7.6      2.854      5.338
REMARK  Name = 
REMARK  6 active torsions:
REMARK  status: ('A' for Active; 'I' for Inactive)
REMARK    1  A    between atoms: C_1  and  C_2
REMARK    2  A    between atoms: C_2  and  C_3
REMARK    3  A    between atoms: C_2  and  C_4
REMARK    4  A    between atoms: C_4  and  C_5
REMARK    5  A    between atoms: C_5  and  C_6
REMARK    6  A    between atoms: N_11  and  C_12
REMARK                            x       y       z     vdW  Elec       q    Type
REMARK                         _______ _______ _______ _____ _____    ______ ____
ROOT
ATOM      1  C   UNL     1       3.623   5.832  18.201  0.00  0.00    +0.000 C 
ATOM      2  O   UNL     1       3.712   4.800  18.861  0.00  0.00    +0.000 OA
ATOM      3  N   UNL     1       2.745   6.853  18.522  0.00  0.00    +0.000 N 
ATOM      4  C   UNL     1       1.883   6.727  19.713  0.00  0.00    +0.000 C 
ATOM      5  C   UNL     1       1.782   8.066  20.482  0.00  0.00    +0.000 C 
ATOM      6  N   UNL     1       1.377   9.091  19.515  0.00  0.00    +0.000 N 
ATOM      7  C   UNL     1       2.343   9.304  18.436  0.00  0.00    +0.000 C 
ATOM      8  C   UNL     1       2.431   7.990  17.638  0.00  0.00    +0.000 C 
ENDROOT
BRANCH   6   9
ATOM      9  C   UNL     1       0.475  10.067  19.879  0.00  0.00    +0.000 A 
ATOM     10  N   UNL     1       0.584  10.598  21.103  0.00  0.00    +0.000 NA
ATOM     11  C   UNL     1      -0.320  11.523  21.437  0.00  0.00    +0.000 A 
ATOM     12  N   UNL     1      -1.321  11.966  20.675  0.00  0.00    +0.000 NA
ATOM     13  C   UNL     1      -1.461  11.418  19.480  0.00  0.00    +0.000 A 
ATOM     14  N   UNL     1      -2.501  11.822  18.737  0.00  0.00    +0.000 NA
ATOM     15  C   UNL     1      -2.727  11.278  17.529  0.00  0.00    +0.000 A 
ATOM     16  N   UNL     1      -3.859  11.694  16.837  0.00  0.00    +0.000 N 
ATOM     17  C   UNL     1      -1.928  10.290  16.999  0.00  0.00    +0.000 A 
ATOM     18  C   UNL     1      -0.856   9.861  17.756  0.00  0.00    +0.000 A 
ATOM     19  C   UNL     1      -0.581  10.439  19.015  0.00  0.00    +0.000 A 
ATOM     20  H   UNL     1      -4.293  12.443  17.371  0.00  0.00    +0.000 HD
ATOM     21  H   UNL     1      -3.651  11.969  15.886  0.00  0.00    +0.000 HD
ENDBRANCH   6   9
BRANCH   1  22
ATOM     22  C   UNL     1       4.502   6.094  16.990  0.00  0.00    +0.000 C 
BRANCH  22  23
ATOM     23  C   UNL     1       5.867   6.666  17.341  0.00  0.00    +0.000 C 
BRANCH  23  25
ATOM     24  C   UNL     1       7.552   5.036  18.225  0.00  0.00    +0.000 C 
ATOM     25  C   UNL     1       7.016   5.712  16.965  0.00  0.00    +0.000 C 
ATOM     26  C   UNL     1       6.596   4.654  15.942  0.00  0.00    +0.000 C 
ENDBRANCH  23  25
ENDBRANCH  22  23
ENDBRANCH   1  22
TORSDOF 4
ENDMDL
MODEL 7
REMARK VINA RESULT:      -7.6      3.527      7.797
REMARK  Name = 
REMARK  6 active torsions:
REMARK  status: ('A' for Active; 'I' for Inactive)
REMARK    1  A    between atoms: C_1  and  C_2
REMARK    2  A    between atoms: C_2  and  C_3
REMARK    3  A    between atoms: C_2  and  C_4
REMARK    4  A    between atoms: C_4  and  C_5
REMARK    5  A    between atoms: C_5  and  C_6
REMARK    6  A    between atoms: N_11  and  C_12
REMARK                            x       y       z     vdW  Elec       q    Type
REMARK                         _______ _______ _______ _____ _____    ______ ____
ROOT
ATOM      1  C   UNL     1       0.177  10.033  19.804  0.00  0.00    +0.000 C 
ATOM      2  O   UNL     1      -0.244  10.352  20.913  0.00  0.00    +0.000 OA
ATOM      3  N   UNL     1       1.093   9.012  19.616  0.00  0.00    +0.000 N 
ATOM      4  C   UNL     1       1.584   8.248  20.779  0.00  0.00    +0.000 C 
ATOM      5  C   UNL     1       1.694   6.739  20.459  0.00  0.00    +0.000 C 
ATOM      6  N   UNL     1       2.495   6.613  19.237  0.00  0.00    +0.000 N 
ATOM      7  C   UNL     1       1.889   7.243  18.063  0.00  0.00    +0.000 C 
ATOM      8  C   UNL     1       1.803   8.753  18.351  0.00  0.00    +0.000 C 
ENDROOT
BRANCH   6   9
ATOM      9  C   UNL     1       3.415   5.594  19.116  0.00  0.00    +0.000 A 
ATOM     10  N   UNL     1       3.372   4.599  20.011  0.00  0.00    +0.000 NA
ATOM     11  C   UNL     1       4.293   3.640  19.883  0.00  0.00    +0.000 A 
ATOM     12  N   UNL     1       5.251   3.577  18.957  0.00  0.00    +0.000 NA
ATOM     13  C   UNL     1       5.326   4.576  18.094  0.00  0.00    +0.000 A 
ATOM     14  N   UNL     1       6.323   4.541  17.199  0.00  0.00    +0.000 NA
ATOM     15  C   UNL     1       6.483   5.543  16.318  0.00  0.00    +0.000 A 
ATOM     16  N   UNL     1       7.576   5.479  15.461  0.00  0.00    +0.000 N 
ATOM     17  C   UNL     1       5.657   6.644  16.289  0.00  0.00    +0.000 A 
ATOM     18  C   UNL     1       4.629   6.695  17.209  0.00  0.00    +0.000 A 
ATOM     19  C   UNL     1       4.422   5.640  18.124  0.00  0.00    +0.000 A 
ATOM     20  H   UNL     1       8.038   4.585  15.611  0.00  0.00    +0.000 HD
ATOM     21  H   UNL     1       7.316   5.621  14.493  0.00  0.00    +0.000 HD
ENDBRANCH   6   9
BRANCH   1  22
ATOM     22  C   UNL     1      -0.303  10.711  18.533  0.00  0.00    +0.000 C 
BRANCH  22  23
ATOM     23  C   UNL     1      -1.761  11.143  18.586  0.00  0.00    +0.000 C 
BRANCH  23  25
ATOM     24  C   UNL     1      -4.119  10.707  17.862  0.00  0.00    +0.000 C 
ATOM     25  C   UNL     1      -2.690  10.167  17.842  0.00  0.00    +0.000 C 
ATOM     26  C   UNL     1      -2.248   9.913  16.399  0.00  0.00    +0.000 C 
ENDBRANCH  23  25
ENDBRANCH  22  23
ENDBRANCH   1  22
TORSDOF 4
ENDMDL
MODEL 8
REMARK VINA RESULT:      -7.5      2.585      5.087
REMARK  Name = 
REMARK  6 active torsions:
REMARK  status: ('A' for Active; 'I' for Inactive)
REMARK    1  A    between atoms: C_1  and  C_2
REMARK    2  A    between atoms: C_2  and  C_3
REMARK    3  A    between atoms: C_2  and  C_4
REMARK    4  A    between atoms: C_4  and  C_5
REMARK    5  A    between atoms: C_5  and  C_6
REMARK    6  A    between atoms: N_11  and  C_12
REMARK                            x       y       z     vdW  Elec       q    Type
REMARK                         _______ _______ _______ _____ _____    ______ ____
ROOT
ATOM      1  C   UNL     1       3.400   5.546  18.392  0.00  0.00    +0.000 C 
ATOM      2  O   UNL     1       3.457   4.560  19.123  0.00  0.00    +0.000 OA
ATOM      3  N   UNL     1       2.584   6.631  18.661  0.00  0.00    +0.000 N 
ATOM      4  C   UNL     1       1.754   6.636  19.882  0.00  0.00    +0.000 C 
ATOM      5  C   UNL     1       1.743   8.029  20.554  0.00  0.00    +0.000 C 
ATOM      6  N   UNL     1       1.360   9.003  19.526  0.00  0.00    +0.000 N 
ATOM      7  C   UNL     1       2.303   9.087  18.409  0.00  0.00    +0.000 C 
ATOM      8  C   UNL     1       2.300   7.718  17.707  0.00  0.00    +0.000 C 
ENDROOT
BRANCH   6   9
ATOM      9  C   UNL     1       0.520  10.047  19.843  0.00  0.00    +0.000 A 
ATOM     10  N   UNL     1       0.684  10.648  21.028  0.00  0.00    +0.000 NA
ATOM     11  C   UNL     1      -0.162  11.641  21.318  0.00  0.00    +0.000 A 
ATOM     12  N   UNL     1      -1.155  12.088  20.547  0.00  0.00    +0.000 NA
ATOM     13  C   UNL     1      -1.350  11.474  19.393  0.00  0.00    +0.000 A 
ATOM     14  N   UNL     1      -2.382  11.886  18.644  0.00  0.00    +0.000 NA
ATOM     15  C   UNL     1      -2.663  11.280  17.478  0.00  0.00    +0.000 A 
ATOM     16  N   UNL     1      -3.787  11.711  16.781  0.00  0.00    +0.000 N 
ATOM     17  C   UNL     1      -1.930  10.218  16.999  0.00  0.00    +0.000 A 
ATOM     18  C   UNL     1      -0.866   9.780  17.762  0.00  0.00    +0.000 A 
ATOM     19  C   UNL     1      -0.533  10.420  18.976  0.00  0.00    +0.000 A 
ATOM     20  H   UNL     1      -4.168  12.516  17.274  0.00  0.00    +0.000 HD
ATOM     21  H   UNL     1      -3.584  11.913  15.811  0.00  0.00    +0.000 HD
ENDBRANCH   6   9
BRANCH   1  22
ATOM     22  C   UNL     1       4.253   5.675  17.142  0.00  0.00    +0.000 C 
BRANCH  22  23
ATOM     23  C   UNL     1       4.460   4.359  16.407  0.00  0.00    +0.000 C 
BRANCH  23  25
ATOM     24  C   UNL     1       6.132   4.462  14.545  0.00  0.00    +0.000 C 
ATOM     25  C   UNL     1       5.932   4.128  16.022  0.00  0.00    +0.000 C 
ATOM     26  C   UNL     1       6.903   4.944  16.878  0.00  0.00    +0.000 C 
ENDBRANCH  23  25
ENDBRANCH  22  23
ENDBRANCH   1  22
TORSDOF 4
ENDMDL
MODEL 9
REMARK VINA RESULT:      -7.5      3.286      5.771
REMARK  Name = 
REMARK  6 active torsions:
REMARK  status: ('A' for Active; 'I' for Inactive)
REMARK    1  A    between atoms: C_1  and  C_2
REMARK    2  A    between atoms: C_2  and  C_3
REMARK    3  A    between atoms: C_2  and  C_4
REMARK    4  A    between atoms: C_4  and  C_5
REMARK    5  A    between atoms: C_5  and  C_6
REMARK    6  A    between atoms: N_11  and  C_12
REMARK                            x       y       z     vdW  Elec       q    Type
REMARK                         _______ _______ _______ _____ _____    ______ ____
ROOT
ATOM      1  C   UNL     1       3.226   5.671  19.254  0.00  0.00    +0.000 C 
ATOM      2  O   UNL     1       3.256   4.816  20.134  0.00  0.00    +0.000 OA
ATOM      3  N   UNL     1       2.389   6.773  19.307  0.00  0.00    +0.000 N 
ATOM      4  C   UNL     1       1.502   6.959  20.471  0.00  0.00    +0.000 C 
ATOM      5  C   UNL     1       1.447   8.442  20.910  0.00  0.00    +0.000 C 
ATOM      6  N   UNL     1       1.106   9.232  19.722  0.00  0.00    +0.000 N 
ATOM      7  C   UNL     1       2.100   9.152  18.651  0.00  0.00    +0.000 C 
ATOM      8  C   UNL     1       2.143   7.688  18.178  0.00  0.00    +0.000 C 
ENDROOT
BRANCH   6   9
ATOM      9  C   UNL     1       0.243  10.301  19.828  0.00  0.00    +0.000 A 
ATOM     10  N   UNL     1       0.322  11.066  20.924  0.00  0.00    +0.000 NA
ATOM     11  C   UNL     1      -0.545  12.079  21.011  0.00  0.00    +0.000 A 
ATOM     12  N   UNL     1      -1.482  12.400  20.117  0.00  0.00    +0.000 NA
ATOM     13  C   UNL     1      -1.594  11.626  19.051  0.00  0.00    +0.000 A 
ATOM     14  N   UNL     1      -2.572  11.915  18.182  0.00  0.00    +0.000 NA
ATOM     15  C   UNL     1      -2.769  11.146  17.098  0.00  0.00    +0.000 A 
ATOM     16  N   UNL     1      -3.842  11.460  16.270  0.00  0.00    +0.000 N 
ATOM     17  C   UNL     1      -2.001  10.036  16.826  0.00  0.00    +0.000 A 
ATOM     18  C   UNL     1      -0.993   9.724  17.716  0.00  0.00    +0.000 A 
ATOM     19  C   UNL     1      -0.747  10.534  18.847  0.00  0.00    +0.000 A 
ATOM     20  H   UNL     1      -4.259  12.322  16.616  0.00  0.00    +0.000 HD
ATOM     21  H   UNL     1      -3.572  11.525  15.297  0.00  0.00    +0.000 HD
ENDBRANCH   6   9
BRANCH   1  22
ATOM     22  C   UNL     1       4.137   5.613  18.039  0.00  0.00    +0.000 C 
BRANCH  22  23
ATOM     23  C   UNL     1       5.618   5.624  18.388  0.00  0.00    +0.000 C 
BRANCH  23  25
ATOM     24  C   UNL     1       5.619   6.249  15.962  0.00  0.00    +0.000 C 
ATOM     25  C   UNL     1       6.502   5.989  17.182  0.00  0.00    +0.000 C 
ATOM     26  C   UNL     1       7.395   7.203  17.448  0.00  0.00    +0.000 C 
ENDBRANCH  23  25
ENDBRANCH  22  23
ENDBRANCH   1  22
TORSDOF 4
ENDMDL
