MODEL 1
REMARK VINA RESULT:      -6.9      0.000      0.000
REMARK  Name = 
REMARK  7 active torsions:
REMARK  status: ('A' for Active; 'I' for Inactive)
REMARK    1  A    between atoms: C_1  and  O_2
REMARK    2  A    between atoms: O_2  and  C_3
REMARK    3  A    between atoms: C_3  and  C_4
REMARK    4  A    between atoms: N_16  and  C_17
REMARK    5  A    between atoms: C_17  and  C_18
REMARK    6  A    between atoms: C_17  and  C_19
REMARK    7  A    between atoms: C_17  and  C_20
REMARK                            x       y       z     vdW  Elec       q    Type
REMARK                         _______ _______ _______ _____ _____    ______ ____
ROOT
ATOM      1  C   UNL     1       3.168   4.577  18.511  0.00  0.00    +0.000 C 
ATOM      2  C   UNL     1       3.022   5.147  19.952  0.00  0.00    +0.000 C 
ATOM      3  N   UNL     1       2.607   6.390  19.335  0.00  0.00    +0.000 N 
ATOM      4  C   UNL     1       1.983   7.454  19.926  0.00  0.00    +0.000 C 
ATOM      5  O   UNL     1       1.734   7.404  21.127  0.00  0.00    +0.000 OA
ATOM      6  N   UNL     1       1.661   8.476  19.075  0.00  0.00    +0.000 N 
ATOM      7  C   UNL     1       0.991   9.602  19.472  0.00  0.00    +0.000 A 
ATOM      8  N   UNL     1       0.867   9.997  20.769  0.00  0.00    +0.000 NA
ATOM      9  C   UNL     1       0.111  11.064  20.704  0.00  0.00    +0.000 A 
ATOM     10  N   UNL     1      -0.231  11.299  19.408  0.00  0.00    +0.000 N 
ATOM     11  N   UNL     1       0.397  10.418  18.592  0.00  0.00    +0.000 NA
ATOM     12  C   UNL     1       3.193   6.076  18.054  0.00  0.00    +0.000 C 
ATOM     13  H   UNL     1       1.671   8.333  18.082  0.00  0.00    +0.000 HD
ENDROOT
BRANCH   1  14
ATOM     14  C   UNL     1       1.925   3.845  17.994  0.00  0.00    +0.000 C 
ATOM     15  F   UNL     1       1.143   4.651  17.232  0.00  0.00    +0.000 F 
ATOM     16  F   UNL     1       2.248   2.777  17.225  0.00  0.00    +0.000 F 
ATOM     17  F   UNL     1       1.137   3.392  19.003  0.00  0.00    +0.000 F 
ENDBRANCH   1  14
BRANCH  10  18
ATOM     18  C   UNL     1      -1.146  12.326  18.886  0.00  0.00    +0.000 C 
ATOM     19  C   UNL     1      -0.341  13.561  18.446  0.00  0.00    +0.000 C 
ATOM     20  C   UNL     1      -1.949  11.791  17.681  0.00  0.00    +0.000 C 
ATOM     21  C   UNL     1      -2.169  12.758  19.961  0.00  0.00    +0.000 C 
ENDBRANCH  10  18
BRANCH   1  23
ATOM     22  C   UNL     1       5.638   4.573  18.470  0.00  0.00    +0.000 C 
ATOM     23  O   UNL     1       4.422   3.855  18.258  0.00  0.00    +0.000 OA
ENDBRANCH   1  23
TORSDOF 3
ENDMDL
MODEL 2
REMARK VINA RESULT:      -6.9      0.113      1.232
REMARK  Name = 
REMARK  7 active torsions:
REMARK  status: ('A' for Active; 'I' for Inactive)
REMARK    1  A    between atoms: C_1  and  O_2
REMARK    2  A    between atoms: O_2  and  C_3
REMARK    3  A    between atoms: C_3  and  C_4
REMARK    4  A    between atoms: N_16  and  C_17
REMARK    5  A    between atoms: C_17  and  C_18
REMARK    6  A    between atoms: C_17  and  C_19
REMARK    7  A    between atoms: C_17  and  C_20
REMARK                            x       y       z     vdW  Elec       q    Type
REMARK                         _______ _______ _______ _____ _____    ______ ____
ROOT
ATOM      1  C   UNL     1       3.073   4.540  18.589  0.00  0.00    +0.000 C 
ATOM      2  C   UNL     1       2.929   5.117  20.027  0.00  0.00    +0.000 C 
ATOM      3  N   UNL     1       2.539   6.365  19.404  0.00  0.00    +0.000 N 
ATOM      4  C   UNL     1       1.930   7.442  19.987  0.00  0.00    +0.000 C 
ATOM      5  O   UNL     1       1.673   7.400  21.187  0.00  0.00    +0.000 OA
ATOM      6  N   UNL     1       1.631   8.466  19.131  0.00  0.00    +0.000 N 
ATOM      7  C   UNL     1       0.978   9.605  19.521  0.00  0.00    +0.000 A 
ATOM      8  N   UNL     1       0.853  10.006  20.817  0.00  0.00    +0.000 NA
ATOM      9  C   UNL     1       0.116  11.086  20.744  0.00  0.00    +0.000 A 
ATOM     10  N   UNL     1      -0.214  11.323  19.445  0.00  0.00    +0.000 N 
ATOM     11  N   UNL     1       0.403  10.428  18.635  0.00  0.00    +0.000 NA
ATOM     12  C   UNL     1       3.127   6.037  18.127  0.00  0.00    +0.000 C 
ATOM     13  H   UNL     1       1.644   8.320  18.139  0.00  0.00    +0.000 HD
ENDROOT
BRANCH   1  14
ATOM     14  C   UNL     1       1.821   3.828  18.067  0.00  0.00    +0.000 C 
ATOM     15  F   UNL     1       2.131   2.702  17.376  0.00  0.00    +0.000 F 
ATOM     16  F   UNL     1       0.995   3.450  19.074  0.00  0.00    +0.000 F 
ATOM     17  F   UNL     1       1.098   4.608  17.224  0.00  0.00    +0.000 F 
ENDBRANCH   1  14
BRANCH  10  18
ATOM     18  C   UNL     1      -1.108  12.363  18.915  0.00  0.00    +0.000 C 
ATOM     19  C   UNL     1      -2.069  12.833  20.020  0.00  0.00    +0.000 C 
ATOM     20  C   UNL     1      -0.303  13.576  18.398  0.00  0.00    +0.000 C 
ATOM     21  C   UNL     1      -1.942  11.829  17.728  0.00  0.00    +0.000 C 
ENDBRANCH  10  18
BRANCH   1  23
ATOM     22  C   UNL     1       5.541   4.462  18.652  0.00  0.00    +0.000 C 
ATOM     23  O   UNL     1       4.317   3.796  18.345  0.00  0.00    +0.000 OA
ENDBRANCH   1  23
TORSDOF 3
ENDMDL
MODEL 3
REMARK VINA RESULT:      -6.8      0.378      1.015
REMARK  Name = 
REMARK  7 active torsions:
REMARK  status: ('A' for Active; 'I' for Inactive)
REMARK    1  A    between atoms: C_1  and  O_2
REMARK    2  A    between atoms: O_2  and  C_3
REMARK    3  A    between atoms: C_3  and  C_4
REMARK    4  A    between atoms: N_16  and  C_17
REMARK    5  A    between atoms: C_17  and  C_18
REMARK    6  A    between atoms: C_17  and  C_19
REMARK    7  A    between atoms: C_17  and  C_20
REMARK                            x       y       z     vdW  Elec       q    Type
REMARK                         _______ _______ _______ _____ _____    ______ ____
ROOT
ATOM      1  C   UNL     1       3.446   4.690  18.493  0.00  0.00    +0.000 C 
ATOM      2  C   UNL     1       3.102   5.158  19.936  0.00  0.00    +0.000 C 
ATOM      3  N   UNL     1       2.717   6.426  19.350  0.00  0.00    +0.000 N 
ATOM      4  C   UNL     1       1.984   7.429  19.922  0.00  0.00    +0.000 C 
ATOM      5  O   UNL     1       1.592   7.292  21.078  0.00  0.00    +0.000 OA
ATOM      6  N   UNL     1       1.729   8.493  19.102  0.00  0.00    +0.000 N 
ATOM      7  C   UNL     1       0.971   9.569  19.481  0.00  0.00    +0.000 A 
ATOM      8  N   UNL     1       0.673   9.874  20.774  0.00  0.00    +0.000 NA
ATOM      9  C   UNL     1      -0.111  10.919  20.681  0.00  0.00    +0.000 A 
ATOM     10  N   UNL     1      -0.300  11.228  19.369  0.00  0.00    +0.000 N 
ATOM     11  N   UNL     1       0.458  10.422  18.585  0.00  0.00    +0.000 NA
ATOM     12  C   UNL     1       3.468   6.216  18.136  0.00  0.00    +0.000 C 
ATOM     13  H   UNL     1       1.866   8.416  18.112  0.00  0.00    +0.000 HD
ENDROOT
BRANCH   1  14
ATOM     14  C   UNL     1       2.306   3.954  17.781  0.00  0.00    +0.000 C 
ATOM     15  F   UNL     1       1.307   4.799  17.419  0.00  0.00    +0.000 F 
ATOM     16  F   UNL     1       2.727   3.342  16.647  0.00  0.00    +0.000 F 
ATOM     17  F   UNL     1       1.736   3.005  18.566  0.00  0.00    +0.000 F 
ENDBRANCH   1  14
BRANCH  10  18
ATOM     18  C   UNL     1      -1.184  12.257  18.801  0.00  0.00    +0.000 C 
ATOM     19  C   UNL     1      -2.010  11.653  17.653  0.00  0.00    +0.000 C 
ATOM     20  C   UNL     1      -2.144  12.816  19.873  0.00  0.00    +0.000 C 
ATOM     21  C   UNL     1      -0.369  13.449  18.251  0.00  0.00    +0.000 C 
ENDBRANCH  10  18
BRANCH   1  23
ATOM     22  C   UNL     1       5.786   4.763  17.707  0.00  0.00    +0.000 C 
ATOM     23  O   UNL     1       4.750   4.026  18.355  0.00  0.00    +0.000 OA
ENDBRANCH   1  23
TORSDOF 3
ENDMDL
MODEL 4
REMARK VINA RESULT:      -6.6      6.013      6.915
REMARK  Name = 
REMARK  7 active torsions:
REMARK  status: ('A' for Active; 'I' for Inactive)
REMARK    1  A    between atoms: C_1  and  O_2
REMARK    2  A    between atoms: O_2  and  C_3
REMARK    3  A    between atoms: C_3  and  C_4
REMARK    4  A    between atoms: N_16  and  C_17
REMARK    5  A    between atoms: C_17  and  C_18
REMARK    6  A    between atoms: C_17  and  C_19
REMARK    7  A    between atoms: C_17  and  C_20
REMARK                            x       y       z     vdW  Elec       q    Type
REMARK                         _______ _______ _______ _____ _____    ______ ____
ROOT
ATOM      1  C   UNL     1       5.726   4.850  16.795  0.00  0.00    +0.000 C 
ATOM      2  C   UNL     1       6.857   4.900  17.862  0.00  0.00    +0.000 C 
ATOM      3  N   UNL     1       7.092   6.265  17.438  0.00  0.00    +0.000 N 
ATOM      4  C   UNL     1       7.808   7.235  18.083  0.00  0.00    +0.000 C 
ATOM      5  O   UNL     1       8.350   6.960  19.150  0.00  0.00    +0.000 OA
ATOM      6  N   UNL     1       7.809   8.455  17.465  0.00  0.00    +0.000 N 
ATOM      7  C   UNL     1       8.431   9.560  17.984  0.00  0.00    +0.000 A 
ATOM      8  N   UNL     1       9.377   9.513  18.963  0.00  0.00    +0.000 NA
ATOM      9  C   UNL     1       9.648  10.771  19.201  0.00  0.00    +0.000 A 
ATOM     10  N   UNL     1       8.876  11.560  18.406  0.00  0.00    +0.000 N 
ATOM     11  N   UNL     1       8.148  10.796  17.556  0.00  0.00    +0.000 NA
ATOM     12  C   UNL     1       6.437   6.096  16.163  0.00  0.00    +0.000 C 
ATOM     13  H   UNL     1       7.146   8.659  16.742  0.00  0.00    +0.000 HD
ENDROOT
BRANCH   1  14
ATOM     14  C   UNL     1       4.335   5.200  17.334  0.00  0.00    +0.000 C 
ATOM     15  F   UNL     1       4.306   5.207  18.691  0.00  0.00    +0.000 F 
ATOM     16  F   UNL     1       3.930   6.429  16.930  0.00  0.00    +0.000 F 
ATOM     17  F   UNL     1       3.390   4.312  16.935  0.00  0.00    +0.000 F 
ENDBRANCH   1  14
BRANCH  10  18
ATOM     18  C   UNL     1       8.776  13.027  18.411  0.00  0.00    +0.000 C 
ATOM     19  C   UNL     1      10.042  13.634  17.782  0.00  0.00    +0.000 C 
ATOM     20  C   UNL     1       7.541  13.502  17.616  0.00  0.00    +0.000 C 
ATOM     21  C   UNL     1       8.630  13.571  19.850  0.00  0.00    +0.000 C 
ENDBRANCH  10  18
BRANCH   1  23
ATOM     22  C   UNL     1       6.147   3.838  14.581  0.00  0.00    +0.000 C 
ATOM     23  O   UNL     1       5.740   3.657  15.937  0.00  0.00    +0.000 OA
ENDBRANCH   1  23
TORSDOF 3
ENDMDL
MODEL 5
REMARK VINA RESULT:      -6.6      0.651      1.437
REMARK  Name = 
REMARK  7 active torsions:
REMARK  status: ('A' for Active; 'I' for Inactive)
REMARK    1  A    between atoms: C_1  and  O_2
REMARK    2  A    between atoms: O_2  and  C_3
REMARK    3  A    between atoms: C_3  and  C_4
REMARK    4  A    between atoms: N_16  and  C_17
REMARK    5  A    between atoms: C_17  and  C_18
REMARK    6  A    between atoms: C_17  and  C_19
REMARK    7  A    between atoms: C_17  and  C_20
REMARK                            x       y       z     vdW  Elec       q    Type
REMARK                         _______ _______ _______ _____ _____    ______ ____
ROOT
ATOM      1  C   UNL     1       3.037   4.541  18.773  0.00  0.00    +0.000 C 
ATOM      2  C   UNL     1       2.660   5.020  20.204  0.00  0.00    +0.000 C 
ATOM      3  N   UNL     1       2.435   6.328  19.623  0.00  0.00    +0.000 N 
ATOM      4  C   UNL     1       1.772   7.390  20.174  0.00  0.00    +0.000 C 
ATOM      5  O   UNL     1       1.304   7.276  21.303  0.00  0.00    +0.000 OA
ATOM      6  N   UNL     1       1.669   8.486  19.362  0.00  0.00    +0.000 N 
ATOM      7  C   UNL     1       1.000   9.626  19.720  0.00  0.00    +0.000 A 
ATOM      8  N   UNL     1       0.660   9.940  21.001  0.00  0.00    +0.000 NA
ATOM      9  C   UNL     1      -0.011  11.059  20.886  0.00  0.00    +0.000 A 
ATOM     10  N   UNL     1      -0.095  11.404  19.572  0.00  0.00    +0.000 N 
ATOM     11  N   UNL     1       0.623  10.539  18.815  0.00  0.00    +0.000 NA
ATOM     12  C   UNL     1       3.228   6.062  18.447  0.00  0.00    +0.000 C 
ATOM     13  H   UNL     1       1.853   8.410  18.380  0.00  0.00    +0.000 HD
ENDROOT
BRANCH   1  14
ATOM     14  C   UNL     1       1.872   3.932  17.985  0.00  0.00    +0.000 C 
ATOM     15  F   UNL     1       1.059   3.189  18.778  0.00  0.00    +0.000 F 
ATOM     16  F   UNL     1       1.094   4.884  17.414  0.00  0.00    +0.000 F 
ATOM     17  F   UNL     1       2.297   3.108  16.993  0.00  0.00    +0.000 F 
ENDBRANCH   1  14
BRANCH  10  18
ATOM     18  C   UNL     1      -0.840  12.523  18.978  0.00  0.00    +0.000 C 
ATOM     19  C   UNL     1      -1.829  11.987  17.928  0.00  0.00    +0.000 C 
ATOM     20  C   UNL     1      -1.623  13.303  20.056  0.00  0.00    +0.000 C 
ATOM     21  C   UNL     1       0.114  13.526  18.292  0.00  0.00    +0.000 C 
ENDBRANCH  10  18
BRANCH   1  23
ATOM     22  C   UNL     1       4.451   2.721  19.661  0.00  0.00    +0.000 C 
ATOM     23  O   UNL     1       4.275   3.754  18.693  0.00  0.00    +0.000 OA
ENDBRANCH   1  23
TORSDOF 3
ENDMDL
MODEL 6
REMARK VINA RESULT:      -6.6      1.231      1.674
REMARK  Name = 
REMARK  7 active torsions:
REMARK  status: ('A' for Active; 'I' for Inactive)
REMARK    1  A    between atoms: C_1  and  O_2
REMARK    2  A    between atoms: O_2  and  C_3
REMARK    3  A    between atoms: C_3  and  C_4
REMARK    4  A    between atoms: N_16  and  C_17
REMARK    5  A    between atoms: C_17  and  C_18
REMARK    6  A    between atoms: C_17  and  C_19
REMARK    7  A    between atoms: C_17  and  C_20
REMARK                            x       y       z     vdW  Elec       q    Type
REMARK                         _______ _______ _______ _____ _____    ______ ____
ROOT
ATOM      1  C   UNL     1       4.539   4.509  18.394  0.00  0.00    +0.000 C 
ATOM      2  C   UNL     1       3.800   4.644  19.756  0.00  0.00    +0.000 C 
ATOM      3  N   UNL     1       3.393   5.963  19.316  0.00  0.00    +0.000 N 
ATOM      4  C   UNL     1       2.412   6.759  19.840  0.00  0.00    +0.000 C 
ATOM      5  O   UNL     1       1.779   6.356  20.813  0.00  0.00    +0.000 OA
ATOM      6  N   UNL     1       2.213   7.938  19.177  0.00  0.00    +0.000 N 
ATOM      7  C   UNL     1       1.245   8.842  19.524  0.00  0.00    +0.000 A 
ATOM      8  N   UNL     1       0.607   8.852  20.728  0.00  0.00    +0.000 NA
ATOM      9  C   UNL     1      -0.269   9.817  20.614  0.00  0.00    +0.000 A 
ATOM     10  N   UNL     1      -0.182  10.365  19.371  0.00  0.00    +0.000 N 
ATOM     11  N   UNL     1       0.845   9.807  18.686  0.00  0.00    +0.000 NA
ATOM     12  C   UNL     1       4.433   6.071  18.321  0.00  0.00    +0.000 C 
ATOM     13  H   UNL     1       2.592   8.075  18.259  0.00  0.00    +0.000 HD
ENDROOT
BRANCH   1  14
ATOM     14  C   UNL     1       3.716   3.830  17.294  0.00  0.00    +0.000 C 
ATOM     15  F   UNL     1       4.256   4.025  16.064  0.00  0.00    +0.000 F 
ATOM     16  F   UNL     1       3.636   2.489  17.475  0.00  0.00    +0.000 F 
ATOM     17  F   UNL     1       2.446   4.306  17.234  0.00  0.00    +0.000 F 
ENDBRANCH   1  14
BRANCH  10  18
ATOM     18  C   UNL     1      -1.040  11.402  18.778  0.00  0.00    +0.000 C 
ATOM     19  C   UNL     1      -2.000  11.953  19.846  0.00  0.00    +0.000 C 
ATOM     20  C   UNL     1      -0.194  12.564  18.212  0.00  0.00    +0.000 C 
ATOM     21  C   UNL     1      -1.874  10.833  17.609  0.00  0.00    +0.000 C 
ENDBRANCH  10  18
BRANCH   1  23
ATOM     22  C   UNL     1       6.931   4.775  17.836  0.00  0.00    +0.000 C 
ATOM     23  O   UNL     1       5.918   4.009  18.488  0.00  0.00    +0.000 OA
ENDBRANCH   1  23
TORSDOF 3
ENDMDL
MODEL 7
REMARK VINA RESULT:      -6.6      3.239      7.684
REMARK  Name = 
REMARK  7 active torsions:
REMARK  status: ('A' for Active; 'I' for Inactive)
REMARK    1  A    between atoms: C_1  and  O_2
REMARK    2  A    between atoms: O_2  and  C_3
REMARK    3  A    between atoms: C_3  and  C_4
REMARK    4  A    between atoms: N_16  and  C_17
REMARK    5  A    between atoms: C_17  and  C_18
REMARK    6  A    between atoms: C_17  and  C_19
REMARK    7  A    between atoms: C_17  and  C_20
REMARK                            x       y       z     vdW  Elec       q    Type
REMARK                         _______ _______ _______ _____ _____    ______ ____
ROOT
ATOM      1  C   UNL     1      -0.282  11.048  18.944  0.00  0.00    +0.000 C 
ATOM      2  C   UNL     1       1.072  10.788  18.223  0.00  0.00    +0.000 C 
ATOM      3  N   UNL     1       1.176   9.582  19.020  0.00  0.00    +0.000 N 
ATOM      4  C   UNL     1       2.011   8.517  18.827  0.00  0.00    +0.000 C 
ATOM      5  O   UNL     1       2.799   8.543  17.885  0.00  0.00    +0.000 OA
ATOM      6  N   UNL     1       1.844   7.489  19.714  0.00  0.00    +0.000 N 
ATOM      7  C   UNL     1       2.555   6.319  19.652  0.00  0.00    +0.000 A 
ATOM      8  N   UNL     1       3.710   6.166  18.946  0.00  0.00    +0.000 NA
ATOM      9  C   UNL     1       4.011   4.902  19.103  0.00  0.00    +0.000 A 
ATOM     10  N   UNL     1       3.057   4.299  19.864  0.00  0.00    +0.000 N 
ATOM     11  N   UNL     1       2.157   5.215  20.297  0.00  0.00    +0.000 NA
ATOM     12  C   UNL     1       0.235  10.031  20.018  0.00  0.00    +0.000 C 
ATOM     13  H   UNL     1       1.022   7.439  20.287  0.00  0.00    +0.000 HD
ENDROOT
BRANCH   1  14
ATOM     14  C   UNL     1      -1.507  10.512  18.196  0.00  0.00    +0.000 C 
ATOM     15  F   UNL     1      -2.131   9.525  18.889  0.00  0.00    +0.000 F 
ATOM     16  F   UNL     1      -2.432  11.479  17.980  0.00  0.00    +0.000 F 
ATOM     17  F   UNL     1      -1.183   9.985  16.988  0.00  0.00    +0.000 F 
ENDBRANCH   1  14
BRANCH  10  18
ATOM     18  C   UNL     1       2.939   2.873  20.204  0.00  0.00    +0.000 C 
ATOM     19  C   UNL     1       2.351   2.725  21.617  0.00  0.00    +0.000 C 
ATOM     20  C   UNL     1       2.026   2.138  19.198  0.00  0.00    +0.000 C 
ATOM     21  C   UNL     1       4.317   2.175  20.164  0.00  0.00    +0.000 C 
ENDBRANCH  10  18
BRANCH   1  23
ATOM     22  C   UNL     1       0.094  13.474  18.669  0.00  0.00    +0.000 C 
ATOM     23  O   UNL     1      -0.456  12.416  19.453  0.00  0.00    +0.000 OA
ENDBRANCH   1  23
TORSDOF 3
ENDMDL
MODEL 8
REMARK VINA RESULT:      -6.5      3.437      7.707
REMARK  Name = 
REMARK  7 active torsions:
REMARK  status: ('A' for Active; 'I' for Inactive)
REMARK    1  A    between atoms: C_1  and  O_2
REMARK    2  A    between atoms: O_2  and  C_3
REMARK    3  A    between atoms: C_3  and  C_4
REMARK    4  A    between atoms: N_16  and  C_17
REMARK    5  A    between atoms: C_17  and  C_18
REMARK    6  A    between atoms: C_17  and  C_19
REMARK    7  A    between atoms: C_17  and  C_20
REMARK                            x       y       z     vdW  Elec       q    Type
REMARK                         _______ _______ _______ _____ _____    ______ ____
ROOT
ATOM      1  C   UNL     1      -1.342  11.250  19.104  0.00  0.00    +0.000 C 
ATOM      2  C   UNL     1       0.041  11.593  18.480  0.00  0.00    +0.000 C 
ATOM      3  N   UNL     1       0.432  10.233  18.789  0.00  0.00    +0.000 N 
ATOM      4  C   UNL     1       1.506   9.537  18.308  0.00  0.00    +0.000 C 
ATOM      5  O   UNL     1       2.272  10.094  17.526  0.00  0.00    +0.000 OA
ATOM      6  N   UNL     1       1.589   8.241  18.737  0.00  0.00    +0.000 N 
ATOM      7  C   UNL     1       2.567   7.374  18.326  0.00  0.00    +0.000 A 
ATOM      8  N   UNL     1       3.730   7.763  17.735  0.00  0.00    +0.000 NA
ATOM      9  C   UNL     1       4.333   6.636  17.450  0.00  0.00    +0.000 A 
ATOM     10  N   UNL     1       3.549   5.592  17.837  0.00  0.00    +0.000 N 
ATOM     11  N   UNL     1       2.447   6.049  18.480  0.00  0.00    +0.000 NA
ATOM     12  C   UNL     1      -0.600  10.047  19.781  0.00  0.00    +0.000 C 
ATOM     13  H   UNL     1       0.799   7.795  19.165  0.00  0.00    +0.000 HD
ENDROOT
BRANCH   1  14
ATOM     14  C   UNL     1      -2.390  10.777  18.091  0.00  0.00    +0.000 C 
ATOM     15  F   UNL     1      -2.623   9.443  18.191  0.00  0.00    +0.000 F 
ATOM     16  F   UNL     1      -3.583  11.394  18.269  0.00  0.00    +0.000 F 
ATOM     17  F   UNL     1      -2.005  11.002  16.809  0.00  0.00    +0.000 F 
ENDBRANCH   1  14
BRANCH  10  18
ATOM     18  C   UNL     1       3.783   4.157  17.620  0.00  0.00    +0.000 C 
ATOM     19  C   UNL     1       4.735   3.962  16.427  0.00  0.00    +0.000 C 
ATOM     20  C   UNL     1       4.404   3.501  18.872  0.00  0.00    +0.000 C 
ATOM     21  C   UNL     1       2.460   3.416  17.324  0.00  0.00    +0.000 C 
ENDBRANCH  10  18
BRANCH   1  23
ATOM     22  C   UNL     1      -1.482  12.086  21.424  0.00  0.00    +0.000 C 
ATOM     23  O   UNL     1      -1.853  12.246  20.056  0.00  0.00    +0.000 OA
ENDBRANCH   1  23
TORSDOF 3
ENDMDL
MODEL 9
REMARK VINA RESULT:      -6.5      3.277      7.667
REMARK  Name = 
REMARK  7 active torsions:
REMARK  status: ('A' for Active; 'I' for Inactive)
REMARK    1  A    between atoms: C_1  and  O_2
REMARK    2  A    between atoms: O_2  and  C_3
REMARK    3  A    between atoms: C_3  and  C_4
REMARK    4  A    between atoms: N_16  and  C_17
REMARK    5  A    between atoms: C_17  and  C_18
REMARK    6  A    between atoms: C_17  and  C_19
REMARK    7  A    between atoms: C_17  and  C_20
REMARK                            x       y       z     vdW  Elec       q    Type
REMARK                         _______ _______ _______ _____ _____    ______ ____
ROOT
ATOM      1  C   UNL     1      -0.090  11.093  18.987  0.00  0.00    +0.000 C 
ATOM      2  C   UNL     1       1.200  10.774  18.177  0.00  0.00    +0.000 C 
ATOM      3  N   UNL     1       1.322   9.581  18.990  0.00  0.00    +0.000 N 
ATOM      4  C   UNL     1       2.107   8.485  18.762  0.00  0.00    +0.000 C 
ATOM      5  O   UNL     1       2.825   8.467  17.766  0.00  0.00    +0.000 OA
ATOM      6  N   UNL     1       1.972   7.480  19.680  0.00  0.00    +0.000 N 
ATOM      7  C   UNL     1       2.638   6.287  19.593  0.00  0.00    +0.000 A 
ATOM      8  N   UNL     1       3.734   6.081  18.810  0.00  0.00    +0.000 NA
ATOM      9  C   UNL     1       4.005   4.811  18.973  0.00  0.00    +0.000 A 
ATOM     10  N   UNL     1       3.089   4.256  19.813  0.00  0.00    +0.000 N 
ATOM     11  N   UNL     1       2.253   5.210  20.289  0.00  0.00    +0.000 NA
ATOM     12  C   UNL     1       0.471  10.081  20.043  0.00  0.00    +0.000 C 
ATOM     13  H   UNL     1       1.192   7.470  20.311  0.00  0.00    +0.000 HD
ENDROOT
BRANCH   1  14
ATOM     14  C   UNL     1      -1.382  10.584  18.340  0.00  0.00    +0.000 C 
ATOM     15  F   UNL     1      -1.158  10.053  17.111  0.00  0.00    +0.000 F 
ATOM     16  F   UNL     1      -1.972   9.614  19.081  0.00  0.00    +0.000 F 
ATOM     17  F   UNL     1      -2.296  11.573  18.168  0.00  0.00    +0.000 F 
ENDBRANCH   1  14
BRANCH  10  18
ATOM     18  C   UNL     1       2.950   2.841  20.191  0.00  0.00    +0.000 C 
ATOM     19  C   UNL     1       2.035   2.124  19.184  0.00  0.00    +0.000 C 
ATOM     20  C   UNL     1       4.324   2.136  20.214  0.00  0.00    +0.000 C 
ATOM     21  C   UNL     1       2.340   2.700  21.603  0.00  0.00    +0.000 C 
ENDBRANCH  10  18
BRANCH   1  23
ATOM     22  C   UNL     1      -0.463  12.654  20.865  0.00  0.00    +0.000 C 
ATOM     23  O   UNL     1      -0.183  12.475  19.477  0.00  0.00    +0.000 OA
ENDBRANCH   1  23
TORSDOF 3
ENDMDL
