MODEL 1
REMARK VINA RESULT:      -7.0      0.000      0.000
REMARK  Name = 
REMARK  4 active torsions:
REMARK  status: ('A' for Active; 'I' for Inactive)
REMARK    1  A    between atoms: C_1  and  N_2
REMARK    2  A    between atoms: C_6  and  S_7
REMARK    3  A    between atoms: S_7  and  C_8
REMARK    4  A    between atoms: N_16  and  C_17
REMARK                            x       y       z     vdW  Elec       q    Type
REMARK                         _______ _______ _______ _____ _____    ______ ____
ROOT
ATOM      1  C   UNL     1       3.416   4.291  17.844  0.00  0.00    +0.000 A 
ATOM      2  N   UNL     1       3.208   3.179  17.096  0.00  0.00    +0.000 NA
ATOM      3  C   UNL     1       2.539   2.153  17.665  0.00  0.00    +0.000 A 
ATOM      4  N   UNL     1       2.029   2.079  18.911  0.00  0.00    +0.000 NA
ATOM      5  C   UNL     1       2.270   3.205  19.602  0.00  0.00    +0.000 A 
ATOM      6  C   UNL     1       2.942   4.333  19.158  0.00  0.00    +0.000 A 
ATOM      7  N   UNL     1       2.986   5.293  20.150  0.00  0.00    +0.000 NA
ATOM      8  C   UNL     1       2.372   4.748  21.179  0.00  0.00    +0.000 A 
ATOM      9  N   UNL     1       1.921   3.490  20.891  0.00  0.00    +0.000 N 
ATOM     10  C   UNL     1       1.210   2.616  21.787  0.00  0.00    +0.000 C 
ENDROOT
BRANCH   1  11
ATOM     11  S   UNL     1       4.393   5.627  17.240  0.00  0.00    +0.000 S 
BRANCH  11  17
ATOM     12  C   UNL     1       6.710   4.568  15.075  0.00  0.00    +0.000 C 
ATOM     13  N   UNL     1       6.857   4.629  16.500  0.00  0.00    +0.000 N 
ATOM     14  N   UNL     1       8.043   4.312  17.056  0.00  0.00    +0.000 NA
ATOM     15  N   UNL     1       7.881   4.510  18.357  0.00  0.00    +0.000 NA
ATOM     16  N   UNL     1       6.608   4.944  18.636  0.00  0.00    +0.000 NA
ATOM     17  C   UNL     1       5.980   4.995  17.481  0.00  0.00    +0.000 A 
ENDBRANCH  11  17
ENDBRANCH   1  11
TORSDOF 2
ENDMDL
MODEL 2
REMARK VINA RESULT:      -7.0      1.354      1.847
REMARK  Name = 
REMARK  4 active torsions:
REMARK  status: ('A' for Active; 'I' for Inactive)
REMARK    1  A    between atoms: C_1  and  N_2
REMARK    2  A    between atoms: C_6  and  S_7
REMARK    3  A    between atoms: S_7  and  C_8
REMARK    4  A    between atoms: N_16  and  C_17
REMARK                            x       y       z     vdW  Elec       q    Type
REMARK                         _______ _______ _______ _____ _____    ______ ____
ROOT
ATOM      1  C   UNL     1       3.730   5.025  17.903  0.00  0.00    +0.000 A 
ATOM      2  N   UNL     1       4.110   3.906  17.238  0.00  0.00    +0.000 NA
ATOM      3  C   UNL     1       3.756   2.712  17.760  0.00  0.00    +0.000 A 
ATOM      4  N   UNL     1       3.051   2.469  18.884  0.00  0.00    +0.000 NA
ATOM      5  C   UNL     1       2.709   3.613  19.499  0.00  0.00    +0.000 A 
ATOM      6  C   UNL     1       3.001   4.905  19.089  0.00  0.00    +0.000 A 
ATOM      7  N   UNL     1       2.475   5.825  19.975  0.00  0.00    +0.000 NA
ATOM      8  C   UNL     1       1.896   5.103  20.912  0.00  0.00    +0.000 A 
ATOM      9  N   UNL     1       2.009   3.763  20.662  0.00  0.00    +0.000 N 
ATOM     10  C   UNL     1       1.491   2.700  21.481  0.00  0.00    +0.000 C 
ENDROOT
BRANCH   1  11
ATOM     11  S   UNL     1       4.257   6.622  17.377  0.00  0.00    +0.000 S 
BRANCH  11  17
ATOM     12  C   UNL     1       7.428   5.829  18.080  0.00  0.00    +0.000 C 
ATOM     13  N   UNL     1       6.837   5.852  16.772  0.00  0.00    +0.000 N 
ATOM     14  N   UNL     1       7.565   5.456  15.711  0.00  0.00    +0.000 NA
ATOM     15  N   UNL     1       6.744   5.542  14.674  0.00  0.00    +0.000 NA
ATOM     16  N   UNL     1       5.505   5.993  15.061  0.00  0.00    +0.000 NA
ATOM     17  C   UNL     1       5.582   6.199  16.358  0.00  0.00    +0.000 A 
ENDBRANCH  11  17
ENDBRANCH   1  11
TORSDOF 2
ENDMDL
MODEL 3
REMARK VINA RESULT:      -6.8      2.112      2.765
REMARK  Name = 
REMARK  4 active torsions:
REMARK  status: ('A' for Active; 'I' for Inactive)
REMARK    1  A    between atoms: C_1  and  N_2
REMARK    2  A    between atoms: C_6  and  S_7
REMARK    3  A    between atoms: S_7  and  C_8
REMARK    4  A    between atoms: N_16  and  C_17
REMARK                            x       y       z     vdW  Elec       q    Type
REMARK                         _______ _______ _______ _____ _____    ______ ____
ROOT
ATOM      1  C   UNL     1       4.489   4.916  18.081  0.00  0.00    +0.000 A 
ATOM      2  N   UNL     1       3.606   5.906  17.800  0.00  0.00    +0.000 NA
ATOM      3  C   UNL     1       2.458   5.947  18.509  0.00  0.00    +0.000 A 
ATOM      4  N   UNL     1       2.054   5.116  19.492  0.00  0.00    +0.000 NA
ATOM      5  C   UNL     1       2.966   4.157  19.721  0.00  0.00    +0.000 A 
ATOM      6  C   UNL     1       4.181   3.984  19.076  0.00  0.00    +0.000 A 
ATOM      7  N   UNL     1       4.851   2.890  19.589  0.00  0.00    +0.000 NA
ATOM      8  C   UNL     1       4.047   2.399  20.510  0.00  0.00    +0.000 A 
ATOM      9  N   UNL     1       2.900   3.136  20.625  0.00  0.00    +0.000 N 
ATOM     10  C   UNL     1       1.813   2.878  21.533  0.00  0.00    +0.000 C 
ENDROOT
BRANCH   1  11
ATOM     11  S   UNL     1       5.950   4.697  17.122  0.00  0.00    +0.000 S 
BRANCH  11  17
ATOM     12  C   UNL     1       7.951   5.587  19.648  0.00  0.00    +0.000 C 
ATOM     13  N   UNL     1       7.608   6.404  18.519  0.00  0.00    +0.000 N 
ATOM     14  N   UNL     1       8.177   7.617  18.384  0.00  0.00    +0.000 NA
ATOM     15  N   UNL     1       7.707   8.097  17.241  0.00  0.00    +0.000 NA
ATOM     16  N   UNL     1       6.843   7.206  16.651  0.00  0.00    +0.000 NA
ATOM     17  C   UNL     1       6.776   6.172  17.461  0.00  0.00    +0.000 A 
ENDBRANCH  11  17
ENDBRANCH   1  11
TORSDOF 2
ENDMDL
MODEL 4
REMARK VINA RESULT:      -6.8      1.409      1.504
REMARK  Name = 
REMARK  4 active torsions:
REMARK  status: ('A' for Active; 'I' for Inactive)
REMARK    1  A    between atoms: C_1  and  N_2
REMARK    2  A    between atoms: C_6  and  S_7
REMARK    3  A    between atoms: S_7  and  C_8
REMARK    4  A    between atoms: N_16  and  C_17
REMARK                            x       y       z     vdW  Elec       q    Type
REMARK                         _______ _______ _______ _____ _____    ______ ____
ROOT
ATOM      1  C   UNL     1       3.946   4.280  17.950  0.00  0.00    +0.000 A 
ATOM      2  N   UNL     1       4.076   3.072  17.349  0.00  0.00    +0.000 NA
ATOM      3  C   UNL     1       3.487   2.008  17.936  0.00  0.00    +0.000 A 
ATOM      4  N   UNL     1       2.760   1.980  19.072  0.00  0.00    +0.000 NA
ATOM      5  C   UNL     1       2.670   3.202  19.622  0.00  0.00    +0.000 A 
ATOM      6  C   UNL     1       3.221   4.380  19.141  0.00  0.00    +0.000 A 
ATOM      7  N   UNL     1       2.908   5.437  19.974  0.00  0.00    +0.000 NA
ATOM      8  C   UNL     1       2.202   4.905  20.949  0.00  0.00    +0.000 A 
ATOM      9  N   UNL     1       2.031   3.559  20.775  0.00  0.00    +0.000 N 
ATOM     10  C   UNL     1       1.311   2.673  21.651  0.00  0.00    +0.000 C 
ENDROOT
BRANCH   1  11
ATOM     11  S   UNL     1       4.788   5.701  17.336  0.00  0.00    +0.000 S 
BRANCH  11  17
ATOM     12  C   UNL     1       7.530   7.614  17.310  0.00  0.00    +0.000 C 
ATOM     13  N   UNL     1       7.264   6.538  18.222  0.00  0.00    +0.000 N 
ATOM     14  N   UNL     1       8.133   6.288  19.220  0.00  0.00    +0.000 NA
ATOM     15  N   UNL     1       7.596   5.289  19.907  0.00  0.00    +0.000 NA
ATOM     16  N   UNL     1       6.399   4.899  19.355  0.00  0.00    +0.000 NA
ATOM     17  C   UNL     1       6.215   5.666  18.303  0.00  0.00    +0.000 A 
ENDBRANCH  11  17
ENDBRANCH   1  11
TORSDOF 2
ENDMDL
MODEL 5
REMARK VINA RESULT:      -6.6      1.201      2.456
REMARK  Name = 
REMARK  4 active torsions:
REMARK  status: ('A' for Active; 'I' for Inactive)
REMARK    1  A    between atoms: C_1  and  N_2
REMARK    2  A    between atoms: C_6  and  S_7
REMARK    3  A    between atoms: S_7  and  C_8
REMARK    4  A    between atoms: N_16  and  C_17
REMARK                            x       y       z     vdW  Elec       q    Type
REMARK                         _______ _______ _______ _____ _____    ______ ____
ROOT
ATOM      1  C   UNL     1       3.702   5.972  18.095  0.00  0.00    +0.000 A 
ATOM      2  N   UNL     1       3.235   6.778  19.080  0.00  0.00    +0.000 NA
ATOM      3  C   UNL     1       2.247   6.303  19.869  0.00  0.00    +0.000 A 
ATOM      4  N   UNL     1       1.643   5.098  19.814  0.00  0.00    +0.000 NA
ATOM      5  C   UNL     1       2.144   4.349  18.818  0.00  0.00    +0.000 A 
ATOM      6  C   UNL     1       3.149   4.699  17.930  0.00  0.00    +0.000 A 
ATOM      7  N   UNL     1       3.400   3.664  17.049  0.00  0.00    +0.000 NA
ATOM      8  C   UNL     1       2.548   2.718  17.384  0.00  0.00    +0.000 A 
ATOM      9  N   UNL     1       1.774   3.087  18.450  0.00  0.00    +0.000 N 
ATOM     10  C   UNL     1       0.747   2.292  19.070  0.00  0.00    +0.000 C 
ENDROOT
BRANCH   1  11
ATOM     11  S   UNL     1       4.893   6.548  16.931  0.00  0.00    +0.000 S 
BRANCH  11  17
ATOM     12  C   UNL     1       6.890   4.694  14.995  0.00  0.00    +0.000 C 
ATOM     13  N   UNL     1       7.002   4.845  16.417  0.00  0.00    +0.000 N 
ATOM     14  N   UNL     1       8.032   4.266  17.064  0.00  0.00    +0.000 NA
ATOM     15  N   UNL     1       7.890   4.621  18.333  0.00  0.00    +0.000 NA
ATOM     16  N   UNL     1       6.780   5.413  18.502  0.00  0.00    +0.000 NA
ATOM     17  C   UNL     1       6.230   5.528  17.313  0.00  0.00    +0.000 A 
ENDBRANCH  11  17
ENDBRANCH   1  11
TORSDOF 2
ENDMDL
MODEL 6
REMARK VINA RESULT:      -6.6      1.765      2.617
REMARK  Name = 
REMARK  4 active torsions:
REMARK  status: ('A' for Active; 'I' for Inactive)
REMARK    1  A    between atoms: C_1  and  N_2
REMARK    2  A    between atoms: C_6  and  S_7
REMARK    3  A    between atoms: S_7  and  C_8
REMARK    4  A    between atoms: N_16  and  C_17
REMARK                            x       y       z     vdW  Elec       q    Type
REMARK                         _______ _______ _______ _____ _____    ______ ____
ROOT
ATOM      1  C   UNL     1       3.176   4.294  18.544  0.00  0.00    +0.000 A 
ATOM      2  N   UNL     1       2.964   3.404  19.545  0.00  0.00    +0.000 NA
ATOM      3  C   UNL     1       2.413   3.863  20.689  0.00  0.00    +0.000 A 
ATOM      4  N   UNL     1       2.029   5.122  20.984  0.00  0.00    +0.000 NA
ATOM      5  C   UNL     1       2.268   5.955  19.958  0.00  0.00    +0.000 A 
ATOM      6  C   UNL     1       2.827   5.634  18.731  0.00  0.00    +0.000 A 
ATOM      7  N   UNL     1       2.909   6.755  17.927  0.00  0.00    +0.000 NA
ATOM      8  C   UNL     1       2.429   7.737  18.662  0.00  0.00    +0.000 A 
ATOM      9  N   UNL     1       2.027   7.298  19.894  0.00  0.00    +0.000 N 
ATOM     10  C   UNL     1       1.457   8.106  20.939  0.00  0.00    +0.000 C 
ENDROOT
BRANCH   1  11
ATOM     11  S   UNL     1       4.011   3.822  17.066  0.00  0.00    +0.000 S 
BRANCH  11  17
ATOM     12  C   UNL     1       6.732   4.422  15.217  0.00  0.00    +0.000 C 
ATOM     13  N   UNL     1       6.674   4.414  16.651  0.00  0.00    +0.000 N 
ATOM     14  N   UNL     1       7.772   4.746  17.358  0.00  0.00    +0.000 NA
ATOM     15  N   UNL     1       7.396   4.695  18.628  0.00  0.00    +0.000 NA
ATOM     16  N   UNL     1       6.076   4.331  18.738  0.00  0.00    +0.000 NA
ATOM     17  C   UNL     1       5.647   4.142  17.509  0.00  0.00    +0.000 A 
ENDBRANCH  11  17
ENDBRANCH   1  11
TORSDOF 2
ENDMDL
MODEL 7
REMARK VINA RESULT:      -6.6      1.873      2.710
REMARK  Name = 
REMARK  4 active torsions:
REMARK  status: ('A' for Active; 'I' for Inactive)
REMARK    1  A    between atoms: C_1  and  N_2
REMARK    2  A    between atoms: C_6  and  S_7
REMARK    3  A    between atoms: S_7  and  C_8
REMARK    4  A    between atoms: N_16  and  C_17
REMARK                            x       y       z     vdW  Elec       q    Type
REMARK                         _______ _______ _______ _____ _____    ______ ____
ROOT
ATOM      1  C   UNL     1       4.504   5.195  19.115  0.00  0.00    +0.000 A 
ATOM      2  N   UNL     1       3.794   6.322  18.861  0.00  0.00    +0.000 NA
ATOM      3  C   UNL     1       2.466   6.196  18.650  0.00  0.00    +0.000 A 
ATOM      4  N   UNL     1       1.723   5.070  18.659  0.00  0.00    +0.000 NA
ATOM      5  C   UNL     1       2.481   3.991  18.910  0.00  0.00    +0.000 A 
ATOM      6  C   UNL     1       3.848   3.961  19.143  0.00  0.00    +0.000 A 
ATOM      7  N   UNL     1       4.273   2.667  19.371  0.00  0.00    +0.000 NA
ATOM      8  C   UNL     1       3.190   1.927  19.257  0.00  0.00    +0.000 A 
ATOM      9  N   UNL     1       2.085   2.686  18.984  0.00  0.00    +0.000 N 
ATOM     10  C   UNL     1       0.743   2.198  18.799  0.00  0.00    +0.000 C 
ENDROOT
BRANCH   1  11
ATOM     11  S   UNL     1       6.259   5.237  19.270  0.00  0.00    +0.000 S 
BRANCH  11  17
ATOM     12  C   UNL     1       7.521   7.707  17.405  0.00  0.00    +0.000 C 
ATOM     13  N   UNL     1       7.271   6.365  16.964  0.00  0.00    +0.000 N 
ATOM     14  N   UNL     1       7.630   6.000  15.718  0.00  0.00    +0.000 NA
ATOM     15  N   UNL     1       7.321   4.714  15.629  0.00  0.00    +0.000 NA
ATOM     16  N   UNL     1       6.766   4.258  16.800  0.00  0.00    +0.000 NA
ATOM     17  C   UNL     1       6.723   5.293  17.610  0.00  0.00    +0.000 A 
ENDBRANCH  11  17
ENDBRANCH   1  11
TORSDOF 2
ENDMDL
MODEL 8
REMARK VINA RESULT:      -6.5      2.060      5.411
REMARK  Name = 
REMARK  4 active torsions:
REMARK  status: ('A' for Active; 'I' for Inactive)
REMARK    1  A    between atoms: C_1  and  N_2
REMARK    2  A    between atoms: C_6  and  S_7
REMARK    3  A    between atoms: S_7  and  C_8
REMARK    4  A    between atoms: N_16  and  C_17
REMARK                            x       y       z     vdW  Elec       q    Type
REMARK                         _______ _______ _______ _____ _____    ______ ____
ROOT
ATOM      1  C   UNL     1       2.734   4.487  17.874  0.00  0.00    +0.000 A 
ATOM      2  N   UNL     1       1.981   5.567  18.198  0.00  0.00    +0.000 NA
ATOM      3  C   UNL     1       2.568   6.782  18.152  0.00  0.00    +0.000 A 
ATOM      4  N   UNL     1       3.839   7.081  17.812  0.00  0.00    +0.000 NA
ATOM      5  C   UNL     1       4.533   5.973  17.506  0.00  0.00    +0.000 A 
ATOM      6  C   UNL     1       4.072   4.666  17.512  0.00  0.00    +0.000 A 
ATOM      7  N   UNL     1       5.075   3.796  17.132  0.00  0.00    +0.000 NA
ATOM      8  C   UNL     1       6.127   4.559  16.923  0.00  0.00    +0.000 A 
ATOM      9  N   UNL     1       5.844   5.881  17.133  0.00  0.00    +0.000 N 
ATOM     10  C   UNL     1       6.763   6.980  16.993  0.00  0.00    +0.000 C 
ENDROOT
BRANCH   1  11
ATOM     11  S   UNL     1       2.100   2.851  18.033  0.00  0.00    +0.000 S 
BRANCH  11  17
ATOM     12  C   UNL     1       4.510   2.156  20.243  0.00  0.00    +0.000 C 
ATOM     13  N   UNL     1       3.139   2.440  20.556  0.00  0.00    +0.000 N 
ATOM     14  N   UNL     1       2.758   2.517  21.846  0.00  0.00    +0.000 NA
ATOM     15  N   UNL     1       1.471   2.836  21.810  0.00  0.00    +0.000 NA
ATOM     16  N   UNL     1       1.029   2.956  20.515  0.00  0.00    +0.000 NA
ATOM     17  C   UNL     1       2.065   2.690  19.750  0.00  0.00    +0.000 A 
ENDBRANCH  11  17
ENDBRANCH   1  11
TORSDOF 2
ENDMDL
MODEL 9
REMARK VINA RESULT:      -6.5      1.020      2.140
REMARK  Name = 
REMARK  4 active torsions:
REMARK  status: ('A' for Active; 'I' for Inactive)
REMARK    1  A    between atoms: C_1  and  N_2
REMARK    2  A    between atoms: C_6  and  S_7
REMARK    3  A    between atoms: S_7  and  C_8
REMARK    4  A    between atoms: N_16  and  C_17
REMARK                            x       y       z     vdW  Elec       q    Type
REMARK                         _______ _______ _______ _____ _____    ______ ____
ROOT
ATOM      1  C   UNL     1       3.520   5.579  18.363  0.00  0.00    +0.000 A 
ATOM      2  N   UNL     1       3.063   6.724  18.929  0.00  0.00    +0.000 NA
ATOM      3  C   UNL     1       2.300   6.618  20.039  0.00  0.00    +0.000 A 
ATOM      4  N   UNL     1       1.920   5.497  20.686  0.00  0.00    +0.000 NA
ATOM      5  C   UNL     1       2.398   4.400  20.077  0.00  0.00    +0.000 A 
ATOM      6  C   UNL     1       3.185   4.349  18.937  0.00  0.00    +0.000 A 
ATOM      7  N   UNL     1       3.487   3.040  18.615  0.00  0.00    +0.000 NA
ATOM      8  C   UNL     1       2.876   2.314  19.528  0.00  0.00    +0.000 A 
ATOM      9  N   UNL     1       2.210   3.095  20.432  0.00  0.00    +0.000 N 
ATOM     10  C   UNL     1       1.442   2.626  21.556  0.00  0.00    +0.000 C 
ENDROOT
BRANCH   1  11
ATOM     11  S   UNL     1       4.407   5.603  16.842  0.00  0.00    +0.000 S 
BRANCH  11  17
ATOM     12  C   UNL     1       6.986   4.322  15.144  0.00  0.00    +0.000 C 
ATOM     13  N   UNL     1       6.946   4.560  16.558  0.00  0.00    +0.000 N 
ATOM     14  N   UNL     1       8.048   4.331  17.299  0.00  0.00    +0.000 NA
ATOM     15  N   UNL     1       7.718   4.686  18.533  0.00  0.00    +0.000 NA
ATOM     16  N   UNL     1       6.419   5.131  18.588  0.00  0.00    +0.000 NA
ATOM     17  C   UNL     1       5.947   5.030  17.364  0.00  0.00    +0.000 A 
ENDBRANCH  11  17
ENDBRANCH   1  11
TORSDOF 2
ENDMDL
