MODEL 1
REMARK VINA RESULT:      -7.3      0.000      0.000
REMARK  Name = 
REMARK  7 active torsions:
REMARK  status: ('A' for Active; 'I' for Inactive)
REMARK    1  A    between atoms: C_1  and  C_2
REMARK    2  A    between atoms: C_2  and  C_3
REMARK    3  A    between atoms: C_5  and  S_6
REMARK    4  A    between atoms: S_6  and  C_7
REMARK    5  A    between atoms: C_10  and  C_11
REMARK    6  A    between atoms: N_16  and  C_17
REMARK    7  A    between atoms: C_23  and  C_24
REMARK                            x       y       z     vdW  Elec       q    Type
REMARK                         _______ _______ _______ _____ _____    ______ ____
ROOT
ATOM      1  C   UNL     1       3.411   6.098  18.987  0.00  0.00    +0.000 C 
ATOM      2  O   UNL     1       3.568   5.440  20.013  0.00  0.00    +0.000 OA
ATOM      3  N   UNL     1       2.487   7.140  18.931  0.00  0.00    +0.000 N 
ATOM      4  C   UNL     1       1.725   7.499  20.148  0.00  0.00    +0.000 C 
ATOM      5  C   UNL     1       1.612   9.032  20.350  0.00  0.00    +0.000 C 
ATOM      6  N   UNL     1       1.165   9.681  19.090  0.00  0.00    +0.000 N 
ATOM      7  C   UNL     1       2.037   9.354  17.943  0.00  0.00    +0.000 C 
ATOM      8  C   UNL     1       1.991   7.827  17.728  0.00  0.00    +0.000 C 
ENDROOT
BRANCH   6   9
ATOM      9  C   UNL     1       0.558  10.933  19.118  0.00  0.00    +0.000 A 
ATOM     10  C   UNL     1       1.170  12.044  19.729  0.00  0.00    +0.000 A 
ATOM     11  C   UNL     1       0.521  13.284  19.819  0.00  0.00    +0.000 A 
ATOM     12 CL   UNL     1       1.310  14.606  20.596  0.00  0.00    +0.000 Cl
ATOM     13  C   UNL     1      -0.746  13.459  19.291  0.00  0.00    +0.000 A 
ATOM     14  C   UNL     1      -1.370  12.386  18.669  0.00  0.00    +0.000 A 
ATOM     15  C   UNL     1      -0.750  11.126  18.595  0.00  0.00    +0.000 A 
ATOM     16  C   UNL     1      -1.547  10.015  17.956  0.00  0.00    +0.000 C 
ENDBRANCH   6   9
BRANCH   1  22
ATOM     17  C   UNL     1       4.163   4.646  17.042  0.00  0.00    +0.000 A 
ATOM     18  N   UNL     1       5.012   4.391  16.009  0.00  0.00    +0.000 NA
ATOM     19  C   UNL     1       6.014   5.249  15.768  0.00  0.00    +0.000 A 
ATOM     20  N   UNL     1       6.247   6.348  16.498  0.00  0.00    +0.000 NA
ATOM     21  C   UNL     1       5.388   6.565  17.527  0.00  0.00    +0.000 A 
ATOM     22  C   UNL     1       4.286   5.784  17.827  0.00  0.00    +0.000 A 
BRANCH  17  24
ATOM     23  C   UNL     1       3.593   2.366  17.871  0.00  0.00    +0.000 C 
ATOM     24  C   UNL     1       3.075   3.613  17.176  0.00  0.00    +0.000 C 
ENDBRANCH  17  24
BRANCH  19  25
ATOM     25  S   UNL     1       7.045   4.827  14.388  0.00  0.00    +0.000 S 
ATOM     26  C   UNL     1       5.964   3.732  13.447  0.00  0.00    +0.000 C 
ENDBRANCH  19  25
ENDBRANCH   1  22
TORSDOF 4
ENDMDL
MODEL 2
REMARK VINA RESULT:      -7.0      2.225      3.303
REMARK  Name = 
REMARK  7 active torsions:
REMARK  status: ('A' for Active; 'I' for Inactive)
REMARK    1  A    between atoms: C_1  and  C_2
REMARK    2  A    between atoms: C_2  and  C_3
REMARK    3  A    between atoms: C_5  and  S_6
REMARK    4  A    between atoms: S_6  and  C_7
REMARK    5  A    between atoms: C_10  and  C_11
REMARK    6  A    between atoms: N_16  and  C_17
REMARK    7  A    between atoms: C_23  and  C_24
REMARK                            x       y       z     vdW  Elec       q    Type
REMARK                         _______ _______ _______ _____ _____    ______ ____
ROOT
ATOM      1  C   UNL     1       4.889   4.273  18.228  0.00  0.00    +0.000 C 
ATOM      2  O   UNL     1       5.235   3.360  18.975  0.00  0.00    +0.000 OA
ATOM      3  N   UNL     1       3.839   5.125  18.566  0.00  0.00    +0.000 N 
ATOM      4  C   UNL     1       3.169   4.965  19.876  0.00  0.00    +0.000 C 
ATOM      5  C   UNL     1       2.883   6.321  20.569  0.00  0.00    +0.000 C 
ATOM      6  N   UNL     1       2.228   7.254  19.615  0.00  0.00    +0.000 N 
ATOM      7  C   UNL     1       3.011   7.440  18.376  0.00  0.00    +0.000 C 
ATOM      8  C   UNL     1       3.138   6.068  17.681  0.00  0.00    +0.000 C 
ENDROOT
BRANCH   6   9
ATOM      9  C   UNL     1       1.472   8.326  20.082  0.00  0.00    +0.000 A 
ATOM     10  C   UNL     1       1.099   8.440  21.434  0.00  0.00    +0.000 A 
ATOM     11  C   UNL     1       0.276   9.482  21.885  0.00  0.00    +0.000 A 
ATOM     12 CL   UNL     1      -0.167   9.563  23.549  0.00  0.00    +0.000 Cl
ATOM     13  C   UNL     1      -0.187  10.448  21.008  0.00  0.00    +0.000 A 
ATOM     14  C   UNL     1       0.177  10.370  19.669  0.00  0.00    +0.000 A 
ATOM     15  C   UNL     1       0.976   9.317  19.191  0.00  0.00    +0.000 A 
ATOM     16  C   UNL     1       1.254   9.295  17.708  0.00  0.00    +0.000 C 
ENDBRANCH   6   9
BRANCH   1  22
ATOM     17  C   UNL     1       6.751   5.340  16.867  0.00  0.00    +0.000 A 
ATOM     18  N   UNL     1       7.415   5.509  15.691  0.00  0.00    +0.000 NA
ATOM     19  C   UNL     1       6.990   4.846  14.607  0.00  0.00    +0.000 A 
ATOM     20  N   UNL     1       5.929   4.028  14.601  0.00  0.00    +0.000 NA
ATOM     21  C   UNL     1       5.284   3.890  15.787  0.00  0.00    +0.000 A 
ATOM     22  C   UNL     1       5.672   4.474  16.980  0.00  0.00    +0.000 A 
BRANCH  17  24
ATOM     23  C   UNL     1       7.585   7.572  17.598  0.00  0.00    +0.000 C 
ATOM     24  C   UNL     1       7.356   6.125  18.001  0.00  0.00    +0.000 C 
ENDBRANCH  17  24
BRANCH  19  25
ATOM     25  S   UNL     1       7.940   5.129  13.135  0.00  0.00    +0.000 S 
ATOM     26  C   UNL     1       7.121   4.034  11.958  0.00  0.00    +0.000 C 
ENDBRANCH  19  25
ENDBRANCH   1  22
TORSDOF 4
ENDMDL
MODEL 3
REMARK VINA RESULT:      -6.7      1.230      1.686
REMARK  Name = 
REMARK  7 active torsions:
REMARK  status: ('A' for Active; 'I' for Inactive)
REMARK    1  A    between atoms: C_1  and  C_2
REMARK    2  A    between atoms: C_2  and  C_3
REMARK    3  A    between atoms: C_5  and  S_6
REMARK    4  A    between atoms: S_6  and  C_7
REMARK    5  A    between atoms: C_10  and  C_11
REMARK    6  A    between atoms: N_16  and  C_17
REMARK    7  A    between atoms: C_23  and  C_24
REMARK                            x       y       z     vdW  Elec       q    Type
REMARK                         _______ _______ _______ _____ _____    ______ ____
ROOT
ATOM      1  C   UNL     1       3.512   6.124  18.953  0.00  0.00    +0.000 C 
ATOM      2  O   UNL     1       3.762   5.541  20.005  0.00  0.00    +0.000 OA
ATOM      3  N   UNL     1       2.514   7.095  18.883  0.00  0.00    +0.000 N 
ATOM      4  C   UNL     1       1.785   7.473  20.115  0.00  0.00    +0.000 C 
ATOM      5  C   UNL     1       1.572   9.004  20.234  0.00  0.00    +0.000 C 
ATOM      6  N   UNL     1       1.023   9.543  18.964  0.00  0.00    +0.000 N 
ATOM      7  C   UNL     1       1.863   9.209  17.795  0.00  0.00    +0.000 C 
ATOM      8  C   UNL     1       1.916   7.672  17.669  0.00  0.00    +0.000 C 
ENDROOT
BRANCH   6   9
ATOM      9  C   UNL     1       0.329  10.750  18.951  0.00  0.00    +0.000 A 
ATOM     10  C   UNL     1      -1.063  10.810  19.150  0.00  0.00    +0.000 A 
ATOM     11  C   UNL     1      -1.768  12.020  19.062  0.00  0.00    +0.000 A 
ATOM     12 CL   UNL     1      -3.475  12.034  19.295  0.00  0.00    +0.000 Cl
ATOM     13  C   UNL     1      -1.106  13.205  18.789  0.00  0.00    +0.000 A 
ATOM     14  C   UNL     1       0.270  13.180  18.602  0.00  0.00    +0.000 A 
ATOM     15  C   UNL     1       0.990  11.974  18.656  0.00  0.00    +0.000 A 
ATOM     16  C   UNL     1       2.470  12.055  18.372  0.00  0.00    +0.000 C 
ENDBRANCH   6   9
BRANCH   1  22
ATOM     17  C   UNL     1       4.205   4.660  16.995  0.00  0.00    +0.000 A 
ATOM     18  N   UNL     1       5.025   4.398  15.940  0.00  0.00    +0.000 NA
ATOM     19  C   UNL     1       6.022   5.251  15.668  0.00  0.00    +0.000 A 
ATOM     20  N   UNL     1       6.279   6.352  16.386  0.00  0.00    +0.000 NA
ATOM     21  C   UNL     1       5.450   6.578  17.437  0.00  0.00    +0.000 A 
ATOM     22  C   UNL     1       4.354   5.801  17.771  0.00  0.00    +0.000 A 
BRANCH  17  24
ATOM     23  C   UNL     1       3.640   2.403  17.887  0.00  0.00    +0.000 C 
ATOM     24  C   UNL     1       3.118   3.633  17.163  0.00  0.00    +0.000 C 
ENDBRANCH  17  24
BRANCH  19  25
ATOM     25  S   UNL     1       7.014   4.820  14.261  0.00  0.00    +0.000 S 
ATOM     26  C   UNL     1       5.899   3.732  13.351  0.00  0.00    +0.000 C 
ENDBRANCH  19  25
ENDBRANCH   1  22
TORSDOF 4
ENDMDL
MODEL 4
REMARK VINA RESULT:      -6.6      1.421      1.680
REMARK  Name = 
REMARK  7 active torsions:
REMARK  status: ('A' for Active; 'I' for Inactive)
REMARK    1  A    between atoms: C_1  and  C_2
REMARK    2  A    between atoms: C_2  and  C_3
REMARK    3  A    between atoms: C_5  and  S_6
REMARK    4  A    between atoms: S_6  and  C_7
REMARK    5  A    between atoms: C_10  and  C_11
REMARK    6  A    between atoms: N_16  and  C_17
REMARK    7  A    between atoms: C_23  and  C_24
REMARK                            x       y       z     vdW  Elec       q    Type
REMARK                         _______ _______ _______ _____ _____    ______ ____
ROOT
ATOM      1  C   UNL     1       2.328   6.696  19.451  0.00  0.00    +0.000 C 
ATOM      2  O   UNL     1       2.174   6.136  20.533  0.00  0.00    +0.000 OA
ATOM      3  N   UNL     1       1.786   7.957  19.205  0.00  0.00    +0.000 N 
ATOM      4  C   UNL     1       1.065   8.659  20.290  0.00  0.00    +0.000 C 
ATOM      5  C   UNL     1       1.419  10.166  20.364  0.00  0.00    +0.000 C 
ATOM      6  N   UNL     1       1.319  10.780  19.015  0.00  0.00    +0.000 N 
ATOM      7  C   UNL     1       2.148  10.083  18.010  0.00  0.00    +0.000 C 
ATOM      8  C   UNL     1       1.646   8.628  17.903  0.00  0.00    +0.000 C 
ENDROOT
BRANCH   6   9
ATOM      9  C   UNL     1       1.134  12.154  18.876  0.00  0.00    +0.000 A 
ATOM     10  C   UNL     1       2.207  13.061  18.967  0.00  0.00    +0.000 A 
ATOM     11  C   UNL     1       2.005  14.447  18.901  0.00  0.00    +0.000 A 
ATOM     12 CL   UNL     1       3.351  15.514  19.038  0.00  0.00    +0.000 Cl
ATOM     13  C   UNL     1       0.734  14.970  18.726  0.00  0.00    +0.000 A 
ATOM     14  C   UNL     1      -0.342  14.098  18.618  0.00  0.00    +0.000 A 
ATOM     15  C   UNL     1      -0.165  12.707  18.712  0.00  0.00    +0.000 A 
ATOM     16  C   UNL     1      -1.412  11.859  18.648  0.00  0.00    +0.000 C 
ENDBRANCH   6   9
BRANCH   1  22
ATOM     17  C   UNL     1       2.801   4.836  17.785  0.00  0.00    +0.000 A 
ATOM     18  N   UNL     1       3.620   4.231  16.883  0.00  0.00    +0.000 NA
ATOM     19  C   UNL     1       4.825   4.765  16.642  0.00  0.00    +0.000 A 
ATOM     20  N   UNL     1       5.289   5.865  17.251  0.00  0.00    +0.000 NA
ATOM     21  C   UNL     1       4.451   6.437  18.153  0.00  0.00    +0.000 A 
ATOM     22  C   UNL     1       3.165   6.008  18.433  0.00  0.00    +0.000 A 
BRANCH  17  24
ATOM     23  C   UNL     1       1.653   2.747  18.514  0.00  0.00    +0.000 C 
ATOM     24  C   UNL     1       1.474   4.140  17.933  0.00  0.00    +0.000 C 
ENDBRANCH  17  24
BRANCH  19  25
ATOM     25  S   UNL     1       5.800   3.904  15.435  0.00  0.00    +0.000 S 
ATOM     26  C   UNL     1       7.235   4.988  15.286  0.00  0.00    +0.000 C 
ENDBRANCH  19  25
ENDBRANCH   1  22
TORSDOF 4
ENDMDL
MODEL 5
REMARK VINA RESULT:      -6.6      1.584      2.558
REMARK  Name = 
REMARK  7 active torsions:
REMARK  status: ('A' for Active; 'I' for Inactive)
REMARK    1  A    between atoms: C_1  and  C_2
REMARK    2  A    between atoms: C_2  and  C_3
REMARK    3  A    between atoms: C_5  and  S_6
REMARK    4  A    between atoms: S_6  and  C_7
REMARK    5  A    between atoms: C_10  and  C_11
REMARK    6  A    between atoms: N_16  and  C_17
REMARK    7  A    between atoms: C_23  and  C_24
REMARK                            x       y       z     vdW  Elec       q    Type
REMARK                         _______ _______ _______ _____ _____    ______ ____
ROOT
ATOM      1  C   UNL     1       4.252   4.982  18.447  0.00  0.00    +0.000 C 
ATOM      2  O   UNL     1       4.501   4.171  19.335  0.00  0.00    +0.000 OA
ATOM      3  N   UNL     1       3.250   5.940  18.601  0.00  0.00    +0.000 N 
ATOM      4  C   UNL     1       2.515   6.018  19.884  0.00  0.00    +0.000 C 
ATOM      5  C   UNL     1       2.295   7.477  20.356  0.00  0.00    +0.000 C 
ATOM      6  N   UNL     1       1.748   8.297  19.245  0.00  0.00    +0.000 N 
ATOM      7  C   UNL     1       2.594   8.247  18.034  0.00  0.00    +0.000 C 
ATOM      8  C   UNL     1       2.654   6.783  17.553  0.00  0.00    +0.000 C 
ENDROOT
BRANCH   6   9
ATOM      9  C   UNL     1       1.049   9.471  19.510  0.00  0.00    +0.000 A 
ATOM     10  C   UNL     1       1.304  10.664  18.807  0.00  0.00    +0.000 A 
ATOM     11  C   UNL     1       0.650  11.862  19.129  0.00  0.00    +0.000 A 
ATOM     12 CL   UNL     1       1.015  13.298  18.249  0.00  0.00    +0.000 Cl
ATOM     13  C   UNL     1      -0.286  11.905  20.148  0.00  0.00    +0.000 A 
ATOM     14  C   UNL     1      -0.570  10.741  20.850  0.00  0.00    +0.000 A 
ATOM     15  C   UNL     1       0.096   9.536  20.563  0.00  0.00    +0.000 A 
ATOM     16  C   UNL     1      -0.242   8.350  21.433  0.00  0.00    +0.000 C 
ENDBRANCH   6   9
BRANCH   1  22
ATOM     17  C   UNL     1       6.275   5.668  17.070  0.00  0.00    +0.000 A 
ATOM     18  N   UNL     1       6.997   5.622  15.918  0.00  0.00    +0.000 NA
ATOM     19  C   UNL     1       6.539   4.887  14.895  0.00  0.00    +0.000 A 
ATOM     20  N   UNL     1       5.392   4.196  14.928  0.00  0.00    +0.000 NA
ATOM     21  C   UNL     1       4.691   4.272  16.088  0.00  0.00    +0.000 A 
ATOM     22  C   UNL     1       5.099   4.947  17.226  0.00  0.00    +0.000 A 
BRANCH  17  24
ATOM     23  C   UNL     1       7.640   7.702  17.527  0.00  0.00    +0.000 C 
ATOM     24  C   UNL     1       6.923   6.509  18.137  0.00  0.00    +0.000 C 
ENDBRANCH  17  24
BRANCH  19  25
ATOM     25  S   UNL     1       7.570   4.886  13.451  0.00  0.00    +0.000 S 
ATOM     26  C   UNL     1       6.661   3.777  12.356  0.00  0.00    +0.000 C 
ENDBRANCH  19  25
ENDBRANCH   1  22
TORSDOF 4
ENDMDL
MODEL 6
REMARK VINA RESULT:      -6.4      0.732      1.950
REMARK  Name = 
REMARK  7 active torsions:
REMARK  status: ('A' for Active; 'I' for Inactive)
REMARK    1  A    between atoms: C_1  and  C_2
REMARK    2  A    between atoms: C_2  and  C_3
REMARK    3  A    between atoms: C_5  and  S_6
REMARK    4  A    between atoms: S_6  and  C_7
REMARK    5  A    between atoms: C_10  and  C_11
REMARK    6  A    between atoms: N_16  and  C_17
REMARK    7  A    between atoms: C_23  and  C_24
REMARK                            x       y       z     vdW  Elec       q    Type
REMARK                         _______ _______ _______ _____ _____    ______ ____
ROOT
ATOM      1  C   UNL     1       3.736   5.876  18.778  0.00  0.00    +0.000 C 
ATOM      2  O   UNL     1       3.959   5.240  19.806  0.00  0.00    +0.000 OA
ATOM      3  N   UNL     1       2.766   6.876  18.743  0.00  0.00    +0.000 N 
ATOM      4  C   UNL     1       2.034   7.219  19.983  0.00  0.00    +0.000 C 
ATOM      5  C   UNL     1       1.861   8.748  20.169  0.00  0.00    +0.000 C 
ATOM      6  N   UNL     1       1.341   9.359  18.919  0.00  0.00    +0.000 N 
ATOM      7  C   UNL     1       2.185   9.054  17.745  0.00  0.00    +0.000 C 
ATOM      8  C   UNL     1       2.198   7.524  17.550  0.00  0.00    +0.000 C 
ENDROOT
BRANCH   6   9
ATOM      9  C   UNL     1       0.681  10.584  18.954  0.00  0.00    +0.000 A 
ATOM     10  C   UNL     1       1.185  11.681  19.677  0.00  0.00    +0.000 A 
ATOM     11  C   UNL     1       0.479  12.890  19.769  0.00  0.00    +0.000 A 
ATOM     12 CL   UNL     1       1.134  14.195  20.685  0.00  0.00    +0.000 Cl
ATOM     13  C   UNL     1      -0.740  13.046  19.132  0.00  0.00    +0.000 A 
ATOM     14  C   UNL     1      -1.257  11.986  18.399  0.00  0.00    +0.000 A 
ATOM     15  C   UNL     1      -0.580  10.757  18.319  0.00  0.00    +0.000 A 
ATOM     16  C   UNL     1      -1.266   9.654  17.550  0.00  0.00    +0.000 C 
ENDBRANCH   6   9
BRANCH   1  22
ATOM     17  C   UNL     1       5.637   6.380  17.169  0.00  0.00    +0.000 A 
ATOM     18  N   UNL     1       6.360   6.081  16.055  0.00  0.00    +0.000 NA
ATOM     19  C   UNL     1       6.020   5.006  15.331  0.00  0.00    +0.000 A 
ATOM     20  N   UNL     1       4.990   4.203  15.627  0.00  0.00    +0.000 NA
ATOM     21  C   UNL     1       4.283   4.536  16.737  0.00  0.00    +0.000 A 
ATOM     22  C   UNL     1       4.582   5.583  17.591  0.00  0.00    +0.000 A 
BRANCH  17  24
ATOM     23  C   UNL     1       7.623   7.823  17.600  0.00  0.00    +0.000 C 
ATOM     24  C   UNL     1       6.149   7.597  17.893  0.00  0.00    +0.000 C 
ENDBRANCH  17  24
BRANCH  19  25
ATOM     25  S   UNL     1       7.043   4.703  13.913  0.00  0.00    +0.000 S 
ATOM     26  C   UNL     1       6.002   3.591  12.946  0.00  0.00    +0.000 C 
ENDBRANCH  19  25
ENDBRANCH   1  22
TORSDOF 4
ENDMDL
MODEL 7
REMARK VINA RESULT:      -6.4      1.282      1.529
REMARK  Name = 
REMARK  7 active torsions:
REMARK  status: ('A' for Active; 'I' for Inactive)
REMARK    1  A    between atoms: C_1  and  C_2
REMARK    2  A    between atoms: C_2  and  C_3
REMARK    3  A    between atoms: C_5  and  S_6
REMARK    4  A    between atoms: S_6  and  C_7
REMARK    5  A    between atoms: C_10  and  C_11
REMARK    6  A    between atoms: N_16  and  C_17
REMARK    7  A    between atoms: C_23  and  C_24
REMARK                            x       y       z     vdW  Elec       q    Type
REMARK                         _______ _______ _______ _____ _____    ______ ____
ROOT
ATOM      1  C   UNL     1       3.279   5.387  19.381  0.00  0.00    +0.000 C 
ATOM      2  O   UNL     1       3.398   4.569  20.290  0.00  0.00    +0.000 OA
ATOM      3  N   UNL     1       2.389   6.456  19.482  0.00  0.00    +0.000 N 
ATOM      4  C   UNL     1       1.619   6.641  20.732  0.00  0.00    +0.000 C 
ATOM      5  C   UNL     1       1.551   8.125  21.175  0.00  0.00    +0.000 C 
ATOM      6  N   UNL     1       1.146   8.981  20.031  0.00  0.00    +0.000 N 
ATOM      7  C   UNL     1       2.027   8.812  18.856  0.00  0.00    +0.000 C 
ATOM      8  C   UNL     1       1.936   7.342  18.398  0.00  0.00    +0.000 C 
ENDROOT
BRANCH   6   9
ATOM      9  C   UNL     1       0.578  10.233  20.252  0.00  0.00    +0.000 A 
ATOM     10  C   UNL     1       0.832  11.326  19.402  0.00  0.00    +0.000 A 
ATOM     11  C   UNL     1       0.317  12.602  19.671  0.00  0.00    +0.000 A 
ATOM     12 CL   UNL     1       0.677  13.910  18.607  0.00  0.00    +0.000 Cl
ATOM     13  C   UNL     1      -0.478  12.824  20.782  0.00  0.00    +0.000 A 
ATOM     14  C   UNL     1      -0.759  11.762  21.631  0.00  0.00    +0.000 A 
ATOM     15  C   UNL     1      -0.228  10.482  21.397  0.00  0.00    +0.000 A 
ATOM     16  C   UNL     1      -0.544   9.418  22.420  0.00  0.00    +0.000 C 
ENDBRANCH   6   9
BRANCH   1  22
ATOM     17  C   UNL     1       3.986   4.272  17.210  0.00  0.00    +0.000 A 
ATOM     18  N   UNL     1       4.844   4.154  16.160  0.00  0.00    +0.000 NA
ATOM     19  C   UNL     1       5.908   4.968  16.099  0.00  0.00    +0.000 A 
ATOM     20  N   UNL     1       6.194   5.892  17.025  0.00  0.00    +0.000 NA
ATOM     21  C   UNL     1       5.323   5.975  18.064  0.00  0.00    +0.000 A 
ATOM     22  C   UNL     1       4.163   5.232  18.196  0.00  0.00    +0.000 A 
BRANCH  17  24
ATOM     23  C   UNL     1       3.144   2.019  17.861  0.00  0.00    +0.000 C 
ATOM     24  C   UNL     1       2.827   3.313  17.131  0.00  0.00    +0.000 C 
ENDBRANCH  17  24
BRANCH  19  25
ATOM     25  S   UNL     1       6.947   4.738  14.680  0.00  0.00    +0.000 S 
ATOM     26  C   UNL     1       5.857   3.814  13.578  0.00  0.00    +0.000 C 
ENDBRANCH  19  25
ENDBRANCH   1  22
TORSDOF 4
ENDMDL
MODEL 8
REMARK VINA RESULT:      -6.1      1.863      2.690
REMARK  Name = 
REMARK  7 active torsions:
REMARK  status: ('A' for Active; 'I' for Inactive)
REMARK    1  A    between atoms: C_1  and  C_2
REMARK    2  A    between atoms: C_2  and  C_3
REMARK    3  A    between atoms: C_5  and  S_6
REMARK    4  A    between atoms: S_6  and  C_7
REMARK    5  A    between atoms: C_10  and  C_11
REMARK    6  A    between atoms: N_16  and  C_17
REMARK    7  A    between atoms: C_23  and  C_24
REMARK                            x       y       z     vdW  Elec       q    Type
REMARK                         _______ _______ _______ _____ _____    ______ ____
ROOT
ATOM      1  C   UNL     1       3.631   4.470  19.040  0.00  0.00    +0.000 C 
ATOM      2  O   UNL     1       3.723   3.558  19.858  0.00  0.00    +0.000 OA
ATOM      3  N   UNL     1       2.723   5.513  19.219  0.00  0.00    +0.000 N 
ATOM      4  C   UNL     1       1.898   5.553  20.448  0.00  0.00    +0.000 C 
ATOM      5  C   UNL     1       1.791   6.978  21.048  0.00  0.00    +0.000 C 
ATOM      6  N   UNL     1       1.422   7.951  19.988  0.00  0.00    +0.000 N 
ATOM      7  C   UNL     1       2.354   7.921  18.841  0.00  0.00    +0.000 C 
ATOM      8  C   UNL     1       2.303   6.510  18.221  0.00  0.00    +0.000 C 
ENDROOT
BRANCH   6   9
ATOM      9  C   UNL     1       0.828   9.165  20.320  0.00  0.00    +0.000 A 
ATOM     10  C   UNL     1       0.180   9.364  21.554  0.00  0.00    +0.000 A 
ATOM     11  C   UNL     1      -0.481  10.564  21.854  0.00  0.00    +0.000 A 
ATOM     12 CL   UNL     1      -1.275  10.746  23.373  0.00  0.00    +0.000 Cl
ATOM     13  C   UNL     1      -0.503  11.606  20.942  0.00  0.00    +0.000 A 
ATOM     14  C   UNL     1       0.140  11.445  19.722  0.00  0.00    +0.000 A 
ATOM     15  C   UNL     1       0.783  10.240  19.390  0.00  0.00    +0.000 A 
ATOM     16  C   UNL     1       1.391  10.152  18.011  0.00  0.00    +0.000 C 
ENDBRANCH   6   9
BRANCH   1  22
ATOM     17  C   UNL     1       5.850   4.982  17.913  0.00  0.00    +0.000 A 
ATOM     18  N   UNL     1       6.654   4.970  16.815  0.00  0.00    +0.000 NA
ATOM     19  C   UNL     1       6.178   4.464  15.669  0.00  0.00    +0.000 A 
ATOM     20  N   UNL     1       4.938   3.978  15.526  0.00  0.00    +0.000 NA
ATOM     21  C   UNL     1       4.158   4.016  16.637  0.00  0.00    +0.000 A 
ATOM     22  C   UNL     1       4.566   4.456  17.885  0.00  0.00    +0.000 A 
BRANCH  17  24
ATOM     23  C   UNL     1       7.858   6.187  18.765  0.00  0.00    +0.000 C 
ATOM     24  C   UNL     1       6.526   5.554  19.130  0.00  0.00    +0.000 C 
ENDBRANCH  17  24
BRANCH  19  25
ATOM     25  S   UNL     1       7.319   4.482  14.310  0.00  0.00    +0.000 S 
ATOM     26  C   UNL     1       6.331   3.738  12.997  0.00  0.00    +0.000 C 
ENDBRANCH  19  25
ENDBRANCH   1  22
TORSDOF 4
ENDMDL
MODEL 9
REMARK VINA RESULT:      -6.0      1.516      2.662
REMARK  Name = 
REMARK  7 active torsions:
REMARK  status: ('A' for Active; 'I' for Inactive)
REMARK    1  A    between atoms: C_1  and  C_2
REMARK    2  A    between atoms: C_2  and  C_3
REMARK    3  A    between atoms: C_5  and  S_6
REMARK    4  A    between atoms: S_6  and  C_7
REMARK    5  A    between atoms: C_10  and  C_11
REMARK    6  A    between atoms: N_16  and  C_17
REMARK    7  A    between atoms: C_23  and  C_24
REMARK                            x       y       z     vdW  Elec       q    Type
REMARK                         _______ _______ _______ _____ _____    ______ ____
ROOT
ATOM      1  C   UNL     1       3.857   5.983  18.771  0.00  0.00    +0.000 C 
ATOM      2  O   UNL     1       4.190   5.471  19.837  0.00  0.00    +0.000 OA
ATOM      3  N   UNL     1       2.794   6.882  18.700  0.00  0.00    +0.000 N 
ATOM      4  C   UNL     1       2.093   7.273  19.944  0.00  0.00    +0.000 C 
ATOM      5  C   UNL     1       1.782   8.790  20.001  0.00  0.00    +0.000 C 
ATOM      6  N   UNL     1       1.145   9.228  18.732  0.00  0.00    +0.000 N 
ATOM      7  C   UNL     1       1.956   8.892  17.544  0.00  0.00    +0.000 C 
ATOM      8  C   UNL     1       2.108   7.357  17.489  0.00  0.00    +0.000 C 
ENDROOT
BRANCH   6   9
ATOM      9  C   UNL     1       0.371  10.385  18.693  0.00  0.00    +0.000 A 
ATOM     10  C   UNL     1      -1.036  10.339  18.682  0.00  0.00    +0.000 A 
ATOM     11  C   UNL     1      -1.809  11.504  18.568  0.00  0.00    +0.000 A 
ATOM     12 CL   UNL     1      -3.529  11.388  18.540  0.00  0.00    +0.000 Cl
ATOM     13  C   UNL     1      -1.207  12.747  18.477  0.00  0.00    +0.000 A 
ATOM     14  C   UNL     1       0.180  12.825  18.500  0.00  0.00    +0.000 A 
ATOM     15  C   UNL     1       0.974  11.668  18.584  0.00  0.00    +0.000 A 
ATOM     16  C   UNL     1       2.469  11.867  18.533  0.00  0.00    +0.000 C 
ENDBRANCH   6   9
BRANCH   1  22
ATOM     17  C   UNL     1       5.690   6.458  17.075  0.00  0.00    +0.000 A 
ATOM     18  N   UNL     1       6.382   6.127  15.951  0.00  0.00    +0.000 NA
ATOM     19  C   UNL     1       6.043   5.013  15.287  0.00  0.00    +0.000 A 
ATOM     20  N   UNL     1       5.042   4.201  15.653  0.00  0.00    +0.000 NA
ATOM     21  C   UNL     1       4.366   4.567  16.772  0.00  0.00    +0.000 A 
ATOM     22  C   UNL     1       4.669   5.657  17.569  0.00  0.00    +0.000 A 
BRANCH  17  24
ATOM     23  C   UNL     1       7.714   7.779  17.681  0.00  0.00    +0.000 C 
ATOM     24  C   UNL     1       6.197   7.716  17.728  0.00  0.00    +0.000 C 
ENDBRANCH  17  24
BRANCH  19  25
ATOM     25  S   UNL     1       7.024   4.671  13.849  0.00  0.00    +0.000 S 
ATOM     26  C   UNL     1       5.939   3.565  12.924  0.00  0.00    +0.000 C 
ENDBRANCH  19  25
ENDBRANCH   1  22
TORSDOF 4
ENDMDL
