MODEL 1
REMARK VINA RESULT:      -8.5      0.000      0.000
REMARK  Name = 
REMARK  8 active torsions:
REMARK  status: ('A' for Active; 'I' for Inactive)
REMARK    1  A    between atoms: C_1  and  N_2
REMARK    2  A    between atoms: N_2  and  C_3
REMARK    3  A    between atoms: N_2  and  C_4
REMARK    4  A    between atoms: C_8  and  C_9
REMARK    5  A    between atoms: C_12  and  C_13
REMARK    6  A    between atoms: C_13  and  N_14
REMARK    7  A    between atoms: C_16  and  C_17
REMARK    8  A    between atoms: C_17  and  O_19
REMARK                            x       y       z     vdW  Elec       q    Type
REMARK                         _______ _______ _______ _____ _____    ______ ____
ROOT
ATOM      1  C   UNL     1       3.249   7.344  18.896  0.00  0.00    +0.000 C 
ENDROOT
BRANCH   1   2
ATOM      2  N   UNL     1       3.142   5.892  18.552  0.00  0.00    +0.000 N 
ATOM      3  C   UNL     1       3.976   5.364  17.527  0.00  0.00    +0.000 A 
ATOM      4  C   UNL     1       4.182   4.029  17.485  0.00  0.00    +0.000 A 
ATOM      5  C   UNL     1       2.797   3.534  17.187  0.00  0.00    +0.000 A 
ATOM      6  O   UNL     1       2.473   2.972  16.155  0.00  0.00    +0.000 OA
ATOM      7  C   UNL     1       1.886   3.806  18.334  0.00  0.00    +0.000 A 
ATOM      8  C   UNL     1       1.064   2.753  18.741  0.00  0.00    +0.000 A 
ATOM      9  C   UNL     1       0.721   2.685  20.078  0.00  0.00    +0.000 A 
ATOM     10  C   UNL     1       1.184   3.678  20.952  0.00  0.00    +0.000 A 
ATOM     11  C   UNL     1       1.895   4.811  20.483  0.00  0.00    +0.000 A 
ATOM     12  F   UNL     1       2.423   5.636  21.399  0.00  0.00    +0.000 F 
ATOM     13  C   UNL     1       2.242   4.941  19.137  0.00  0.00    +0.000 A 
BRANCH   4  14
ATOM     14  C   UNL     1       4.830   3.352  18.666  0.00  0.00    +0.000 C 
ATOM     15  O   UNL     1       5.641   3.916  19.387  0.00  0.00    +0.000 OA
BRANCH  14  16
ATOM     16  O   UNL     1       4.483   2.058  18.876  0.00  0.00    +0.000 OA
ATOM     17  H   UNL     1       4.552   1.773  19.809  0.00  0.00    +0.000 HD
ENDBRANCH  14  16
ENDBRANCH   4  14
ENDBRANCH   1   2
BRANCH   1  21
ATOM     18  C   UNL     1      -0.170  10.070  19.302  0.00  0.00    +0.000 A 
ATOM     19  C   UNL     1       0.369   9.815  18.035  0.00  0.00    +0.000 A 
ATOM     20  C   UNL     1       1.447   8.904  17.856  0.00  0.00    +0.000 A 
ATOM     21  C   UNL     1       1.975   8.207  18.949  0.00  0.00    +0.000 A 
ATOM     22  N   UNL     1       1.485   8.454  20.187  0.00  0.00    +0.000 NA
ATOM     23  C   UNL     1       0.463   9.357  20.325  0.00  0.00    +0.000 A 
BRANCH  18  28
ATOM     24  C   UNL     1      -3.540  12.008  18.981  0.00  0.00    +0.000 A 
ATOM     25  C   UNL     1      -3.397  12.874  20.081  0.00  0.00    +0.000 A 
ATOM     26  C   UNL     1      -2.277  12.816  20.914  0.00  0.00    +0.000 A 
ATOM     27  C   UNL     1      -1.257  11.895  20.668  0.00  0.00    +0.000 A 
ATOM     28  C   UNL     1      -1.307  11.010  19.578  0.00  0.00    +0.000 A 
ATOM     29  C   UNL     1      -2.470  11.093  18.769  0.00  0.00    +0.000 A 
BRANCH  24  31
ATOM     30  C   UNL     1      -4.688  11.525  16.817  0.00  0.00    +0.000 C 
ATOM     31  N   UNL     1      -4.668  12.070  18.175  0.00  0.00    +0.000 N 
ATOM     32  C   UNL     1      -5.906  12.650  18.673  0.00  0.00    +0.000 C 
ENDBRANCH  24  31
ENDBRANCH  18  28
ENDBRANCH   1  21
TORSDOF 6
ENDMDL
MODEL 2
REMARK VINA RESULT:      -8.4      1.117      2.066
REMARK  Name = 
REMARK  8 active torsions:
REMARK  status: ('A' for Active; 'I' for Inactive)
REMARK    1  A    between atoms: C_1  and  N_2
REMARK    2  A    between atoms: N_2  and  C_3
REMARK    3  A    between atoms: N_2  and  C_4
REMARK    4  A    between atoms: C_8  and  C_9
REMARK    5  A    between atoms: C_12  and  C_13
REMARK    6  A    between atoms: C_13  and  N_14
REMARK    7  A    between atoms: C_16  and  C_17
REMARK    8  A    between atoms: C_17  and  O_19
REMARK                            x       y       z     vdW  Elec       q    Type
REMARK                         _______ _______ _______ _____ _____    ______ ____
ROOT
ATOM      1  C   UNL     1       3.306   7.230  18.869  0.00  0.00    +0.000 C 
ENDROOT
BRANCH   1   2
ATOM      2  N   UNL     1       3.148   5.782  18.526  0.00  0.00    +0.000 N 
ATOM      3  C   UNL     1       3.961   5.225  17.500  0.00  0.00    +0.000 A 
ATOM      4  C   UNL     1       4.120   3.883  17.458  0.00  0.00    +0.000 A 
ATOM      5  C   UNL     1       2.718   3.437  17.162  0.00  0.00    +0.000 A 
ATOM      6  O   UNL     1       2.373   2.887  16.132  0.00  0.00    +0.000 OA
ATOM      7  C   UNL     1       1.819   3.741  18.311  0.00  0.00    +0.000 A 
ATOM      8  C   UNL     1       0.961   2.718  18.719  0.00  0.00    +0.000 A 
ATOM      9  C   UNL     1       0.618   2.662  20.057  0.00  0.00    +0.000 A 
ATOM     10  C   UNL     1       1.116   3.639  20.930  0.00  0.00    +0.000 A 
ATOM     11  C   UNL     1       1.866   4.747  20.460  0.00  0.00    +0.000 A 
ATOM     12  F   UNL     1       2.424   5.553  21.374  0.00  0.00    +0.000 F 
ATOM     13  C   UNL     1       2.215   4.864  19.113  0.00  0.00    +0.000 A 
BRANCH   4  14
ATOM     14  C   UNL     1       4.746   3.185  18.639  0.00  0.00    +0.000 C 
ATOM     15  O   UNL     1       5.526   3.742  19.398  0.00  0.00    +0.000 OA
BRANCH  14  16
ATOM     16  O   UNL     1       4.416   1.880  18.803  0.00  0.00    +0.000 OA
ATOM     17  H   UNL     1       5.171   1.264  18.717  0.00  0.00    +0.000 HD
ENDBRANCH  14  16
ENDBRANCH   4  14
ENDBRANCH   1   2
BRANCH   1  21
ATOM     18  C   UNL     1      -0.019  10.069  19.284  0.00  0.00    +0.000 A 
ATOM     19  C   UNL     1       0.530   9.821  18.019  0.00  0.00    +0.000 A 
ATOM     20  C   UNL     1       1.577   8.875  17.837  0.00  0.00    +0.000 A 
ATOM     21  C   UNL     1       2.063   8.137  18.922  0.00  0.00    +0.000 A 
ATOM     22  N   UNL     1       1.563   8.377  20.158  0.00  0.00    +0.000 NA
ATOM     23  C   UNL     1       0.573   9.313  20.301  0.00  0.00    +0.000 A 
BRANCH  18  28
ATOM     24  C   UNL     1      -2.193  12.823  20.989  0.00  0.00    +0.000 A 
ATOM     25  C   UNL     1      -3.289  12.809  20.106  0.00  0.00    +0.000 A 
ATOM     26  C   UNL     1      -3.316  11.972  18.989  0.00  0.00    +0.000 A 
ATOM     27  C   UNL     1      -2.248  11.112  18.722  0.00  0.00    +0.000 A 
ATOM     28  C   UNL     1      -1.125  11.044  19.563  0.00  0.00    +0.000 A 
ATOM     29  C   UNL     1      -1.134  11.924  20.676  0.00  0.00    +0.000 A 
BRANCH  24  31
ATOM     30  C   UNL     1      -2.912  14.940  22.099  0.00  0.00    +0.000 C 
ATOM     31  N   UNL     1      -2.178  13.675  22.085  0.00  0.00    +0.000 N 
ATOM     32  C   UNL     1      -1.456  13.315  23.295  0.00  0.00    +0.000 C 
ENDBRANCH  24  31
ENDBRANCH  18  28
ENDBRANCH   1  21
TORSDOF 6
ENDMDL
MODEL 3
REMARK VINA RESULT:      -7.9      4.686      9.855
REMARK  Name = 
REMARK  8 active torsions:
REMARK  status: ('A' for Active; 'I' for Inactive)
REMARK    1  A    between atoms: C_1  and  N_2
REMARK    2  A    between atoms: N_2  and  C_3
REMARK    3  A    between atoms: N_2  and  C_4
REMARK    4  A    between atoms: C_8  and  C_9
REMARK    5  A    between atoms: C_12  and  C_13
REMARK    6  A    between atoms: C_13  and  N_14
REMARK    7  A    between atoms: C_16  and  C_17
REMARK    8  A    between atoms: C_17  and  O_19
REMARK                            x       y       z     vdW  Elec       q    Type
REMARK                         _______ _______ _______ _____ _____    ______ ____
ROOT
ATOM      1  C   UNL     1       0.310  10.368  20.416  0.00  0.00    +0.000 C 
ENDROOT
BRANCH   1   2
ATOM      2  N   UNL     1       0.655  11.815  20.257  0.00  0.00    +0.000 N 
ATOM      3  C   UNL     1       1.318  12.239  19.072  0.00  0.00    +0.000 A 
ATOM      4  C   UNL     1       1.273  13.548  18.738  0.00  0.00    +0.000 A 
ATOM      5  C   UNL     1       2.030  14.162  19.878  0.00  0.00    +0.000 A 
ATOM      6  O   UNL     1       3.104  14.727  19.768  0.00  0.00    +0.000 OA
ATOM      7  C   UNL     1       1.275  14.003  21.154  0.00  0.00    +0.000 A 
ATOM      8  C   UNL     1       1.171  15.138  21.961  0.00  0.00    +0.000 A 
ATOM      9  C   UNL     1       0.037  15.269  22.740  0.00  0.00    +0.000 A 
ATOM     10  C   UNL     1      -0.934  14.258  22.708  0.00  0.00    +0.000 A 
ATOM     11  C   UNL     1      -0.731  13.053  21.990  0.00  0.00    +0.000 A 
ATOM     12  F   UNL     1      -1.765  12.205  21.895  0.00  0.00    +0.000 F 
ATOM     13  C   UNL     1       0.411  12.860  21.210  0.00  0.00    +0.000 A 
BRANCH   4  14
ATOM     14  C   UNL     1      -0.068  14.189  18.481  0.00  0.00    +0.000 C 
ATOM     15  O   UNL     1      -0.297  15.363  18.731  0.00  0.00    +0.000 OA
BRANCH  14  16
ATOM     16  O   UNL     1      -1.029  13.377  17.975  0.00  0.00    +0.000 OA
ATOM     17  H   UNL     1      -1.445  13.714  17.156  0.00  0.00    +0.000 HD
ENDBRANCH  14  16
ENDBRANCH   4  14
ENDBRANCH   1   2
BRANCH   1  21
ATOM     18  C   UNL     1       2.470   7.045  18.525  0.00  0.00    +0.000 A 
ATOM     19  C   UNL     1       2.075   8.145  17.754  0.00  0.00    +0.000 A 
ATOM     20  C   UNL     1       1.414   9.262  18.337  0.00  0.00    +0.000 A 
ATOM     21  C   UNL     1       1.172   9.302  19.716  0.00  0.00    +0.000 A 
ATOM     22  N   UNL     1       1.525   8.239  20.477  0.00  0.00    +0.000 NA
ATOM     23  C   UNL     1       2.138   7.170  19.878  0.00  0.00    +0.000 A 
BRANCH  18  28
ATOM     24  C   UNL     1       5.222   4.698  17.062  0.00  0.00    +0.000 A 
ATOM     25  C   UNL     1       4.446   3.536  16.892  0.00  0.00    +0.000 A 
ATOM     26  C   UNL     1       3.100   3.496  17.263  0.00  0.00    +0.000 A 
ATOM     27  C   UNL     1       2.481   4.624  17.809  0.00  0.00    +0.000 A 
ATOM     28  C   UNL     1       3.174   5.832  17.991  0.00  0.00    +0.000 A 
ATOM     29  C   UNL     1       4.543   5.821  17.616  0.00  0.00    +0.000 A 
BRANCH  24  31
ATOM     30  C   UNL     1       7.636   4.618  17.693  0.00  0.00    +0.000 C 
ATOM     31  N   UNL     1       6.562   4.712  16.703  0.00  0.00    +0.000 N 
ATOM     32  C   UNL     1       6.955   4.779  15.304  0.00  0.00    +0.000 C 
ENDBRANCH  24  31
ENDBRANCH  18  28
ENDBRANCH   1  21
TORSDOF 6
ENDMDL
MODEL 4
REMARK VINA RESULT:      -7.9      2.482      3.911
REMARK  Name = 
REMARK  8 active torsions:
REMARK  status: ('A' for Active; 'I' for Inactive)
REMARK    1  A    between atoms: C_1  and  N_2
REMARK    2  A    between atoms: N_2  and  C_3
REMARK    3  A    between atoms: N_2  and  C_4
REMARK    4  A    between atoms: C_8  and  C_9
REMARK    5  A    between atoms: C_12  and  C_13
REMARK    6  A    between atoms: C_13  and  N_14
REMARK    7  A    between atoms: C_16  and  C_17
REMARK    8  A    between atoms: C_17  and  O_19
REMARK                            x       y       z     vdW  Elec       q    Type
REMARK                         _______ _______ _______ _____ _____    ______ ____
ROOT
ATOM      1  C   UNL     1       3.164   7.473  17.143  0.00  0.00    +0.000 C 
ENDROOT
BRANCH   1   2
ATOM      2  N   UNL     1       4.055   6.322  17.491  0.00  0.00    +0.000 N 
ATOM      3  C   UNL     1       3.561   4.997  17.332  0.00  0.00    +0.000 A 
ATOM      4  C   UNL     1       4.448   3.981  17.252  0.00  0.00    +0.000 A 
ATOM      5  C   UNL     1       5.067   4.031  18.619  0.00  0.00    +0.000 A 
ATOM      6  O   UNL     1       4.958   3.154  19.457  0.00  0.00    +0.000 OA
ATOM      7  C   UNL     1       5.847   5.289  18.794  0.00  0.00    +0.000 A 
ATOM      8  C   UNL     1       7.122   5.160  19.347  0.00  0.00    +0.000 A 
ATOM      9  C   UNL     1       8.087   6.070  18.958  0.00  0.00    +0.000 A 
ATOM     10  C   UNL     1       7.741   7.087  18.058  0.00  0.00    +0.000 A 
ATOM     11  C   UNL     1       6.404   7.278  17.627  0.00  0.00    +0.000 A 
ATOM     12  F   UNL     1       6.187   8.180  16.659  0.00  0.00    +0.000 F 
ATOM     13  C   UNL     1       5.388   6.403  18.014  0.00  0.00    +0.000 A 
BRANCH   4  14
ATOM     14  C   UNL     1       5.453   3.978  16.128  0.00  0.00    +0.000 C 
ATOM     15  O   UNL     1       5.184   4.364  15.000  0.00  0.00    +0.000 OA
BRANCH  14  16
ATOM     16  O   UNL     1       6.683   3.491  16.429  0.00  0.00    +0.000 OA
ATOM     17  H   UNL     1       6.816   3.305  17.380  0.00  0.00    +0.000 HD
ENDBRANCH  14  16
ENDBRANCH   4  14
ENDBRANCH   1   2
BRANCH   1  21
ATOM     18  C   UNL     1       0.653   9.545  20.090  0.00  0.00    +0.000 A 
ATOM     19  C   UNL     1       1.308   8.359  20.446  0.00  0.00    +0.000 A 
ATOM     20  C   UNL     1       2.166   7.683  19.535  0.00  0.00    +0.000 A 
ATOM     21  C   UNL     1       2.406   8.212  18.261  0.00  0.00    +0.000 A 
ATOM     22  N   UNL     1       1.766   9.344  17.888  0.00  0.00    +0.000 NA
ATOM     23  C   UNL     1       0.927   9.956  18.782  0.00  0.00    +0.000 A 
BRANCH  18  28
ATOM     24  C   UNL     1      -1.929  12.168  21.382  0.00  0.00    +0.000 A 
ATOM     25  C   UNL     1      -1.912  11.833  22.749  0.00  0.00    +0.000 A 
ATOM     26  C   UNL     1      -1.127  10.784  23.233  0.00  0.00    +0.000 A 
ATOM     27  C   UNL     1      -0.324  10.040  22.365  0.00  0.00    +0.000 A 
ATOM     28  C   UNL     1      -0.262  10.322  20.990  0.00  0.00    +0.000 A 
ATOM     29  C   UNL     1      -1.089  11.385  20.541  0.00  0.00    +0.000 A 
BRANCH  24  31
ATOM     30  C   UNL     1      -2.339  14.608  21.047  0.00  0.00    +0.000 C 
ATOM     31  N   UNL     1      -2.729  13.203  20.918  0.00  0.00    +0.000 N 
ATOM     32  C   UNL     1      -3.984  12.924  20.237  0.00  0.00    +0.000 C 
ENDBRANCH  24  31
ENDBRANCH  18  28
ENDBRANCH   1  21
TORSDOF 6
ENDMDL
MODEL 5
REMARK VINA RESULT:      -7.9      3.269      4.619
REMARK  Name = 
REMARK  8 active torsions:
REMARK  status: ('A' for Active; 'I' for Inactive)
REMARK    1  A    between atoms: C_1  and  N_2
REMARK    2  A    between atoms: N_2  and  C_3
REMARK    3  A    between atoms: N_2  and  C_4
REMARK    4  A    between atoms: C_8  and  C_9
REMARK    5  A    between atoms: C_12  and  C_13
REMARK    6  A    between atoms: C_13  and  N_14
REMARK    7  A    between atoms: C_16  and  C_17
REMARK    8  A    between atoms: C_17  and  O_19
REMARK                            x       y       z     vdW  Elec       q    Type
REMARK                         _______ _______ _______ _____ _____    ______ ____
ROOT
ATOM      1  C   UNL     1       2.991   5.916  17.834  0.00  0.00    +0.000 C 
ENDROOT
BRANCH   1   2
ATOM      2  N   UNL     1       4.452   5.917  17.513  0.00  0.00    +0.000 N 
ATOM      3  C   UNL     1       5.360   6.500  18.440  0.00  0.00    +0.000 A 
ATOM      4  C   UNL     1       6.666   6.159  18.368  0.00  0.00    +0.000 A 
ATOM      5  C   UNL     1       7.034   6.715  17.023  0.00  0.00    +0.000 A 
ATOM      6  O   UNL     1       7.820   7.629  16.846  0.00  0.00    +0.000 OA
ATOM      7  C   UNL     1       6.323   5.978  15.940  0.00  0.00    +0.000 A 
ATOM      8  C   UNL     1       7.093   5.584  14.844  0.00  0.00    +0.000 A 
ATOM      9  C   UNL     1       6.726   4.427  14.183  0.00  0.00    +0.000 A 
ATOM     10  C   UNL     1       5.595   3.722  14.619  0.00  0.00    +0.000 A 
ATOM     11  C   UNL     1       4.752   4.225  15.642  0.00  0.00    +0.000 A 
ATOM     12  F   UNL     1       3.778   3.422  16.094  0.00  0.00    +0.000 F 
ATOM     13  C   UNL     1       5.063   5.404  16.321  0.00  0.00    +0.000 A 
BRANCH   4  14
ATOM     14  C   UNL     1       7.055   4.714  18.558  0.00  0.00    +0.000 C 
ATOM     15  O   UNL     1       8.138   4.270  18.206  0.00  0.00    +0.000 OA
BRANCH  14  16
ATOM     16  O   UNL     1       6.117   3.915  19.122  0.00  0.00    +0.000 OA
ATOM     17  H   UNL     1       6.318   3.653  20.043  0.00  0.00    +0.000 HD
ENDBRANCH  14  16
ENDBRANCH   4  14
ENDBRANCH   1   2
BRANCH   1  21
ATOM     18  C   UNL     1       1.057   8.872  20.443  0.00  0.00    +0.000 A 
ATOM     19  C   UNL     1       1.404   7.615  20.955  0.00  0.00    +0.000 A 
ATOM     20  C   UNL     1       2.072   6.647  20.155  0.00  0.00    +0.000 A 
ATOM     21  C   UNL     1       2.434   6.945  18.835  0.00  0.00    +0.000 A 
ATOM     22  N   UNL     1       2.088   8.145  18.313  0.00  0.00    +0.000 NA
ATOM     23  C   UNL     1       1.423   9.045  19.105  0.00  0.00    +0.000 A 
BRANCH  18  28
ATOM     24  C   UNL     1      -0.163  12.375  21.652  0.00  0.00    +0.000 A 
ATOM     25  C   UNL     1      -0.909  11.968  22.774  0.00  0.00    +0.000 A 
ATOM     26  C   UNL     1      -1.043  10.620  23.111  0.00  0.00    +0.000 A 
ATOM     27  C   UNL     1      -0.426   9.631  22.341  0.00  0.00    +0.000 A 
ATOM     28  C   UNL     1       0.357   9.949  21.219  0.00  0.00    +0.000 A 
ATOM     29  C   UNL     1       0.451  11.330  20.904  0.00  0.00    +0.000 A 
BRANCH  24  31
ATOM     30  C   UNL     1       0.602  14.173  20.098  0.00  0.00    +0.000 C 
ATOM     31  N   UNL     1      -0.056  13.719  21.324  0.00  0.00    +0.000 N 
ATOM     32  C   UNL     1      -0.642  14.741  22.178  0.00  0.00    +0.000 C 
ENDBRANCH  24  31
ENDBRANCH  18  28
ENDBRANCH   1  21
TORSDOF 6
ENDMDL
MODEL 6
REMARK VINA RESULT:      -7.8      0.849      1.315
REMARK  Name = 
REMARK  8 active torsions:
REMARK  status: ('A' for Active; 'I' for Inactive)
REMARK    1  A    between atoms: C_1  and  N_2
REMARK    2  A    between atoms: N_2  and  C_3
REMARK    3  A    between atoms: N_2  and  C_4
REMARK    4  A    between atoms: C_8  and  C_9
REMARK    5  A    between atoms: C_12  and  C_13
REMARK    6  A    between atoms: C_13  and  N_14
REMARK    7  A    between atoms: C_16  and  C_17
REMARK    8  A    between atoms: C_17  and  O_19
REMARK                            x       y       z     vdW  Elec       q    Type
REMARK                         _______ _______ _______ _____ _____    ______ ____
ROOT
ATOM      1  C   UNL     1       3.622   6.883  19.180  0.00  0.00    +0.000 C 
ENDROOT
BRANCH   1   2
ATOM      2  N   UNL     1       3.301   5.493  18.729  0.00  0.00    +0.000 N 
ATOM      3  C   UNL     1       4.065   4.918  17.674  0.00  0.00    +0.000 A 
ATOM      4  C   UNL     1       4.066   3.574  17.534  0.00  0.00    +0.000 A 
ATOM      5  C   UNL     1       2.627   3.319  17.190  0.00  0.00    +0.000 A 
ATOM      6  O   UNL     1       2.241   2.890  16.118  0.00  0.00    +0.000 OA
ATOM      7  C   UNL     1       1.747   3.645  18.348  0.00  0.00    +0.000 A 
ATOM      8  C   UNL     1       0.767   2.703  18.669  0.00  0.00    +0.000 A 
ATOM      9  C   UNL     1       0.392   2.592  19.995  0.00  0.00    +0.000 A 
ATOM     10  C   UNL     1       0.984   3.438  20.944  0.00  0.00    +0.000 A 
ATOM     11  C   UNL     1       1.868   4.479  20.566  0.00  0.00    +0.000 A 
ATOM     12  F   UNL     1       2.499   5.145  21.544  0.00  0.00    +0.000 F 
ATOM     13  C   UNL     1       2.256   4.651  19.236  0.00  0.00    +0.000 A 
BRANCH   4  14
ATOM     14  C   UNL     1       4.581   2.723  18.668  0.00  0.00    +0.000 C 
ATOM     15  O   UNL     1       4.153   1.601  18.899  0.00  0.00    +0.000 OA
BRANCH  14  16
ATOM     16  O   UNL     1       5.540   3.284  19.445  0.00  0.00    +0.000 OA
ATOM     17  H   UNL     1       6.444   2.957  19.263  0.00  0.00    +0.000 HD
ENDBRANCH  14  16
ENDBRANCH   4  14
ENDBRANCH   1   2
BRANCH   1  21
ATOM     18  C   UNL     1       0.171   9.596  19.300  0.00  0.00    +0.000 A 
ATOM     19  C   UNL     1       0.579   8.940  20.467  0.00  0.00    +0.000 A 
ATOM     20  C   UNL     1       1.719   8.088  20.481  0.00  0.00    +0.000 A 
ATOM     21  C   UNL     1       2.488   7.914  19.323  0.00  0.00    +0.000 A 
ATOM     22  N   UNL     1       2.098   8.521  18.177  0.00  0.00    +0.000 NA
ATOM     23  C   UNL     1       0.981   9.315  18.195  0.00  0.00    +0.000 A 
BRANCH  18  28
ATOM     24  C   UNL     1      -3.017  11.406  17.965  0.00  0.00    +0.000 A 
ATOM     25  C   UNL     1      -3.191  12.334  19.009  0.00  0.00    +0.000 A 
ATOM     26  C   UNL     1      -2.338  12.357  20.114  0.00  0.00    +0.000 A 
ATOM     27  C   UNL     1      -1.274  11.457  20.208  0.00  0.00    +0.000 A 
ATOM     28  C   UNL     1      -1.013  10.513  19.201  0.00  0.00    +0.000 A 
ATOM     29  C   UNL     1      -1.915  10.515  18.105  0.00  0.00    +0.000 A 
BRANCH  24  31
ATOM     30  C   UNL     1      -3.470  10.929  15.557  0.00  0.00    +0.000 C 
ATOM     31  N   UNL     1      -3.885  11.388  16.883  0.00  0.00    +0.000 N 
ATOM     32  C   UNL     1      -5.275  11.791  17.039  0.00  0.00    +0.000 C 
ENDBRANCH  24  31
ENDBRANCH  18  28
ENDBRANCH   1  21
TORSDOF 6
ENDMDL
MODEL 7
REMARK VINA RESULT:      -7.8      0.975      1.824
REMARK  Name = 
REMARK  8 active torsions:
REMARK  status: ('A' for Active; 'I' for Inactive)
REMARK    1  A    between atoms: C_1  and  N_2
REMARK    2  A    between atoms: N_2  and  C_3
REMARK    3  A    between atoms: N_2  and  C_4
REMARK    4  A    between atoms: C_8  and  C_9
REMARK    5  A    between atoms: C_12  and  C_13
REMARK    6  A    between atoms: C_13  and  N_14
REMARK    7  A    between atoms: C_16  and  C_17
REMARK    8  A    between atoms: C_17  and  O_19
REMARK                            x       y       z     vdW  Elec       q    Type
REMARK                         _______ _______ _______ _____ _____    ______ ____
ROOT
ATOM      1  C   UNL     1       3.412   7.323  18.923  0.00  0.00    +0.000 C 
ENDROOT
BRANCH   1   2
ATOM      2  N   UNL     1       3.205   5.888  18.551  0.00  0.00    +0.000 N 
ATOM      3  C   UNL     1       3.993   5.327  17.508  0.00  0.00    +0.000 A 
ATOM      4  C   UNL     1       4.109   3.982  17.437  0.00  0.00    +0.000 A 
ATOM      5  C   UNL     1       2.691   3.587  17.143  0.00  0.00    +0.000 A 
ATOM      6  O   UNL     1       2.321   3.069  16.104  0.00  0.00    +0.000 OA
ATOM      7  C   UNL     1       1.810   3.896  18.305  0.00  0.00    +0.000 A 
ATOM      8  C   UNL     1       0.923   2.892  18.699  0.00  0.00    +0.000 A 
ATOM      9  C   UNL     1       0.588   2.819  20.038  0.00  0.00    +0.000 A 
ATOM     10  C   UNL     1       1.123   3.762  20.927  0.00  0.00    +0.000 A 
ATOM     11  C   UNL     1       1.905   4.854  20.473  0.00  0.00    +0.000 A 
ATOM     12  F   UNL     1       2.495   5.623  21.400  0.00  0.00    +0.000 F 
ATOM     13  C   UNL     1       2.248   4.988  19.127  0.00  0.00    +0.000 A 
BRANCH   4  14
ATOM     14  C   UNL     1       4.720   3.240  18.599  0.00  0.00    +0.000 C 
ATOM     15  O   UNL     1       5.520   3.757  19.365  0.00  0.00    +0.000 OA
BRANCH  14  16
ATOM     16  O   UNL     1       4.353   1.942  18.736  0.00  0.00    +0.000 OA
ATOM     17  H   UNL     1       3.834   1.593  17.984  0.00  0.00    +0.000 HD
ENDBRANCH  14  16
ENDBRANCH   4  14
ENDBRANCH   1   2
BRANCH   1  21
ATOM     18  C   UNL     1      -0.260   9.732  18.935  0.00  0.00    +0.000 A 
ATOM     19  C   UNL     1       0.270   9.268  20.145  0.00  0.00    +0.000 A 
ATOM     20  C   UNL     1       1.482   8.523  20.187  0.00  0.00    +0.000 A 
ATOM     21  C   UNL     1       2.198   8.266  19.012  0.00  0.00    +0.000 A 
ATOM     22  N   UNL     1       1.692   8.686  17.828  0.00  0.00    +0.000 NA
ATOM     23  C   UNL     1       0.510   9.379  17.822  0.00  0.00    +0.000 A 
BRANCH  18  28
ATOM     24  C   UNL     1      -3.119  12.296  19.624  0.00  0.00    +0.000 A 
ATOM     25  C   UNL     1      -3.983  11.943  18.570  0.00  0.00    +0.000 A 
ATOM     26  C   UNL     1      -3.647  10.944  17.654  0.00  0.00    +0.000 A 
ATOM     27  C   UNL     1      -2.437  10.256  17.768  0.00  0.00    +0.000 A 
ATOM     28  C   UNL     1      -1.526  10.527  18.803  0.00  0.00    +0.000 A 
ATOM     29  C   UNL     1      -1.902  11.561  19.700  0.00  0.00    +0.000 A 
BRANCH  24  31
ATOM     30  C   UNL     1      -2.559  14.409  20.829  0.00  0.00    +0.000 C 
ATOM     31  N   UNL     1      -3.464  13.303  20.514  0.00  0.00    +0.000 N 
ATOM     32  C   UNL     1      -4.775  13.320  21.144  0.00  0.00    +0.000 C 
ENDBRANCH  24  31
ENDBRANCH  18  28
ENDBRANCH   1  21
TORSDOF 6
ENDMDL
MODEL 8
REMARK VINA RESULT:      -7.7      2.535      4.108
REMARK  Name = 
REMARK  8 active torsions:
REMARK  status: ('A' for Active; 'I' for Inactive)
REMARK    1  A    between atoms: C_1  and  N_2
REMARK    2  A    between atoms: N_2  and  C_3
REMARK    3  A    between atoms: N_2  and  C_4
REMARK    4  A    between atoms: C_8  and  C_9
REMARK    5  A    between atoms: C_12  and  C_13
REMARK    6  A    between atoms: C_13  and  N_14
REMARK    7  A    between atoms: C_16  and  C_17
REMARK    8  A    between atoms: C_17  and  O_19
REMARK                            x       y       z     vdW  Elec       q    Type
REMARK                         _______ _______ _______ _____ _____    ______ ____
ROOT
ATOM      1  C   UNL     1       3.137   5.847  17.947  0.00  0.00    +0.000 C 
ENDROOT
BRANCH   1   2
ATOM      2  N   UNL     1       4.575   5.844  17.533  0.00  0.00    +0.000 N 
ATOM      3  C   UNL     1       5.547   6.391  18.417  0.00  0.00    +0.000 A 
ATOM      4  C   UNL     1       6.842   6.041  18.250  0.00  0.00    +0.000 A 
ATOM      5  C   UNL     1       7.129   6.634  16.901  0.00  0.00    +0.000 A 
ATOM      6  O   UNL     1       7.911   7.546  16.702  0.00  0.00    +0.000 OA
ATOM      7  C   UNL     1       6.341   5.937  15.845  0.00  0.00    +0.000 A 
ATOM      8  C   UNL     1       7.035   5.570  14.690  0.00  0.00    +0.000 A 
ATOM      9  C   UNL     1       6.615   4.437  14.021  0.00  0.00    +0.000 A 
ATOM     10  C   UNL     1       5.506   3.729  14.507  0.00  0.00    +0.000 A 
ATOM     11  C   UNL     1       4.736   4.208  15.596  0.00  0.00    +0.000 A 
ATOM     12  F   UNL     1       3.784   3.401  16.086  0.00  0.00    +0.000 F 
ATOM     13  C   UNL     1       5.103   5.363  16.289  0.00  0.00    +0.000 A 
BRANCH   4  14
ATOM     14  C   UNL     1       7.227   4.588  18.371  0.00  0.00    +0.000 C 
ATOM     15  O   UNL     1       8.277   4.144  17.932  0.00  0.00    +0.000 OA
BRANCH  14  16
ATOM     16  O   UNL     1       6.321   3.781  18.977  0.00  0.00    +0.000 OA
ATOM     17  H   UNL     1       5.898   4.177  19.766  0.00  0.00    +0.000 HD
ENDBRANCH  14  16
ENDBRANCH   4  14
ENDBRANCH   1   2
BRANCH   1  21
ATOM     18  C   UNL     1       1.092   9.374  19.580  0.00  0.00    +0.000 A 
ATOM     19  C   UNL     1       1.459   8.326  20.434  0.00  0.00    +0.000 A 
ATOM     20  C   UNL     1       2.163   7.188  19.952  0.00  0.00    +0.000 A 
ATOM     21  C   UNL     1       2.540   7.104  18.606  0.00  0.00    +0.000 A 
ATOM     22  N   UNL     1       2.176   8.095  17.758  0.00  0.00    +0.000 NA
ATOM     23  C   UNL     1       1.477   9.165  18.252  0.00  0.00    +0.000 A 
BRANCH  18  28
ATOM     24  C   UNL     1      -1.706  12.056  20.023  0.00  0.00    +0.000 A 
ATOM     25  C   UNL     1      -0.976  13.010  20.756  0.00  0.00    +0.000 A 
ATOM     26  C   UNL     1       0.353  12.787  21.124  0.00  0.00    +0.000 A 
ATOM     27  C   UNL     1       1.001  11.604  20.760  0.00  0.00    +0.000 A 
ATOM     28  C   UNL     1       0.355  10.609  20.007  0.00  0.00    +0.000 A 
ATOM     29  C   UNL     1      -0.999  10.871  19.671  0.00  0.00    +0.000 A 
BRANCH  24  31
ATOM     30  C   UNL     1      -3.892  13.178  20.462  0.00  0.00    +0.000 C 
ATOM     31  N   UNL     1      -3.031  12.289  19.682  0.00  0.00    +0.000 N 
ATOM     32  C   UNL     1      -3.609  11.682  18.493  0.00  0.00    +0.000 C 
ENDBRANCH  24  31
ENDBRANCH  18  28
ENDBRANCH   1  21
TORSDOF 6
ENDMDL
MODEL 9
REMARK VINA RESULT:      -7.7      1.459      2.332
REMARK  Name = 
REMARK  8 active torsions:
REMARK  status: ('A' for Active; 'I' for Inactive)
REMARK    1  A    between atoms: C_1  and  N_2
REMARK    2  A    between atoms: N_2  and  C_3
REMARK    3  A    between atoms: N_2  and  C_4
REMARK    4  A    between atoms: C_8  and  C_9
REMARK    5  A    between atoms: C_12  and  C_13
REMARK    6  A    between atoms: C_13  and  N_14
REMARK    7  A    between atoms: C_16  and  C_17
REMARK    8  A    between atoms: C_17  and  O_19
REMARK                            x       y       z     vdW  Elec       q    Type
REMARK                         _______ _______ _______ _____ _____    ______ ____
ROOT
ATOM      1  C   UNL     1       3.102   7.986  17.935  0.00  0.00    +0.000 C 
ENDROOT
BRANCH   1   2
ATOM      2  N   UNL     1       3.158   6.492  17.991  0.00  0.00    +0.000 N 
ATOM      3  C   UNL     1       4.047   5.803  17.120  0.00  0.00    +0.000 A 
ATOM      4  C   UNL     1       4.400   4.534  17.426  0.00  0.00    +0.000 A 
ATOM      5  C   UNL     1       3.078   3.832  17.309  0.00  0.00    +0.000 A 
ATOM      6  O   UNL     1       2.820   2.985  16.472  0.00  0.00    +0.000 OA
ATOM      7  C   UNL     1       2.141   4.301  18.368  0.00  0.00    +0.000 A 
ATOM      8  C   UNL     1       1.440   3.312  19.062  0.00  0.00    +0.000 A 
ATOM      9  C   UNL     1       1.104   3.566  20.378  0.00  0.00    +0.000 A 
ATOM     10  C   UNL     1       1.452   4.800  20.945  0.00  0.00    +0.000 A 
ATOM     11  C   UNL     1       2.034   5.837  20.173  0.00  0.00    +0.000 A 
ATOM     12  F   UNL     1       2.466   6.927  20.823  0.00  0.00    +0.000 F 
ATOM     13  C   UNL     1       2.367   5.640  18.832  0.00  0.00    +0.000 A 
BRANCH   4  14
ATOM     14  C   UNL     1       5.117   4.271  18.727  0.00  0.00    +0.000 C 
ATOM     15  O   UNL     1       5.696   5.147  19.351  0.00  0.00    +0.000 OA
BRANCH  14  16
ATOM     16  O   UNL     1       5.109   2.986  19.161  0.00  0.00    +0.000 OA
ATOM     17  H   UNL     1       5.164   2.322  18.444  0.00  0.00    +0.000 HD
ENDBRANCH  14  16
ENDBRANCH   4  14
ENDBRANCH   1   2
BRANCH   1  21
ATOM     18  C   UNL     1      -0.322  10.409  19.232  0.00  0.00    +0.000 A 
ATOM     19  C   UNL     1      -0.322   9.835  17.955  0.00  0.00    +0.000 A 
ATOM     20  C   UNL     1       0.747   9.006  17.514  0.00  0.00    +0.000 A 
ATOM     21  C   UNL     1       1.817   8.714  18.369  0.00  0.00    +0.000 A 
ATOM     22  N   UNL     1       1.849   9.277  19.600  0.00  0.00    +0.000 NA
ATOM     23  C   UNL     1       0.814  10.090  19.982  0.00  0.00    +0.000 A 
BRANCH  18  28
ATOM     24  C   UNL     1      -2.493  12.546  21.670  0.00  0.00    +0.000 A 
ATOM     25  C   UNL     1      -3.542  12.877  20.791  0.00  0.00    +0.000 A 
ATOM     26  C   UNL     1      -3.537  12.458  19.459  0.00  0.00    +0.000 A 
ATOM     27  C   UNL     1      -2.485  11.685  18.962  0.00  0.00    +0.000 A 
ATOM     28  C   UNL     1      -1.410  11.289  19.776  0.00  0.00    +0.000 A 
ATOM     29  C   UNL     1      -1.449  11.751  21.117  0.00  0.00    +0.000 A 
BRANCH  24  31
ATOM     30  C   UNL     1      -3.589  12.643  23.911  0.00  0.00    +0.000 C 
ATOM     31  N   UNL     1      -2.508  12.986  22.986  0.00  0.00    +0.000 N 
ATOM     32  C   UNL     1      -1.411  13.780  23.516  0.00  0.00    +0.000 C 
ENDBRANCH  24  31
ENDBRANCH  18  28
ENDBRANCH   1  21
TORSDOF 6
ENDMDL
