MODEL 1
REMARK VINA RESULT:      -8.2      0.000      0.000
REMARK  Name = 
REMARK  8 active torsions:
REMARK  status: ('A' for Active; 'I' for Inactive)
REMARK    1  A    between atoms: C_1  and  O_2
REMARK    2  A    between atoms: O_2  and  C_3
REMARK    3  A    between atoms: C_5  and  O_6
REMARK    4  A    between atoms: O_6  and  C_7
REMARK    5  A    between atoms: C_9  and  N_10
REMARK    6  A    between atoms: N_16  and  C_17
REMARK    7  A    between atoms: C_27  and  O_28
REMARK    8  A    between atoms: O_28  and  C_29
REMARK                            x       y       z     vdW  Elec       q    Type
REMARK                         _______ _______ _______ _____ _____    ______ ____
ROOT
ATOM      1  N   UNL     1      -0.962  11.571  22.477  0.00  0.00    +0.000 N 
ATOM      2  C   UNL     1      -1.151  11.390  21.029  0.00  0.00    +0.000 C 
ATOM      3  C   UNL     1       0.147  10.840  20.425  0.00  0.00    +0.000 C 
ATOM      4  N   UNL     1       0.554   9.597  21.086  0.00  0.00    +0.000 N 
ATOM      5  C   UNL     1       1.347   8.719  20.344  0.00  0.00    +0.000 C 
ATOM      6  O   UNL     1       1.795   9.036  19.257  0.00  0.00    +0.000 OA
ATOM      7  N   UNL     1       1.381   7.451  20.869  0.00  0.00    +0.000 N 
ATOM      8  C   UNL     1       0.651   9.690  22.550  0.00  0.00    +0.000 C 
ATOM      9  C   UNL     1      -0.608  10.320  23.184  0.00  0.00    +0.000 C 
ATOM     10  H   UNL     1       0.519   7.174  21.315  0.00  0.00    +0.000 HD
ENDROOT
BRANCH   7  11
ATOM     11  C   UNL     1       1.983   6.407  20.160  0.00  0.00    +0.000 A 
ATOM     12  N   UNL     1       2.762   6.727  19.107  0.00  0.00    +0.000 NA
ATOM     13  C   UNL     1       3.052   5.680  18.309  0.00  0.00    +0.000 A 
ATOM     14  C   UNL     1       4.333   5.439  17.844  0.00  0.00    +0.000 A 
ATOM     15  C   UNL     1       4.589   4.283  17.111  0.00  0.00    +0.000 A 
ATOM     16 CL   UNL     1       6.199   3.700  16.962  0.00  0.00    +0.000 Cl
ATOM     17  C   UNL     1       3.536   3.513  16.627  0.00  0.00    +0.000 A 
ATOM     18  C   UNL     1       2.269   3.719  17.159  0.00  0.00    +0.000 A 
ATOM     19  C   UNL     1       2.161   4.612  18.200  0.00  0.00    +0.000 A 
ATOM     20  N   UNL     1       1.399   4.311  19.258  0.00  0.00    +0.000 NA
ATOM     21  C   UNL     1       1.648   5.066  20.358  0.00  0.00    +0.000 A 
BRANCH  21  22
ATOM     22  O   UNL     1       2.578   4.538  21.300  0.00  0.00    +0.000 OA
ATOM     23  C   UNL     1       2.444   3.183  21.710  0.00  0.00    +0.000 C 
ENDBRANCH  21  22
ENDBRANCH   7  11
BRANCH   1  28
ATOM     24  C   UNL     1      -3.999  12.666  24.270  0.00  0.00    +0.000 A 
ATOM     25  C   UNL     1      -3.655  13.965  24.638  0.00  0.00    +0.000 A 
ATOM     26  C   UNL     1      -2.420  14.504  24.272  0.00  0.00    +0.000 A 
ATOM     27  C   UNL     1      -1.516  13.726  23.539  0.00  0.00    +0.000 A 
ATOM     28  C   UNL     1      -1.838  12.415  23.158  0.00  0.00    +0.000 A 
ATOM     29  C   UNL     1      -3.094  11.911  23.524  0.00  0.00    +0.000 A 
BRANCH  24  31
ATOM     30  C   UNL     1      -6.356  12.792  24.029  0.00  0.00    +0.000 C 
ATOM     31  O   UNL     1      -5.227  12.242  24.700  0.00  0.00    +0.000 OA
ENDBRANCH  24  31
BRANCH  26  32
ATOM     32  O   UNL     1      -2.221  15.793  24.689  0.00  0.00    +0.000 OA
ATOM     33  C   UNL     1      -1.623  15.983  25.966  0.00  0.00    +0.000 C 
ENDBRANCH  26  32
ENDBRANCH   1  28
TORSDOF 5
ENDMDL
MODEL 2
REMARK VINA RESULT:      -8.2      4.134     10.931
REMARK  Name = 
REMARK  8 active torsions:
REMARK  status: ('A' for Active; 'I' for Inactive)
REMARK    1  A    between atoms: C_1  and  O_2
REMARK    2  A    between atoms: O_2  and  C_3
REMARK    3  A    between atoms: C_5  and  O_6
REMARK    4  A    between atoms: O_6  and  C_7
REMARK    5  A    between atoms: C_9  and  N_10
REMARK    6  A    between atoms: N_16  and  C_17
REMARK    7  A    between atoms: C_27  and  O_28
REMARK    8  A    between atoms: O_28  and  C_29
REMARK                            x       y       z     vdW  Elec       q    Type
REMARK                         _______ _______ _______ _____ _____    ______ ____
ROOT
ATOM      1  N   UNL     1       2.175   7.289  18.476  0.00  0.00    +0.000 N 
ATOM      2  C   UNL     1       2.336   8.510  17.671  0.00  0.00    +0.000 C 
ATOM      3  C   UNL     1       1.199   9.481  18.011  0.00  0.00    +0.000 C 
ATOM      4  N   UNL     1       1.159   9.769  19.448  0.00  0.00    +0.000 N 
ATOM      5  C   UNL     1       0.587  10.984  19.832  0.00  0.00    +0.000 C 
ATOM      6  O   UNL     1       0.022  11.700  19.025  0.00  0.00    +0.000 OA
ATOM      7  N   UNL     1       0.907  11.347  21.116  0.00  0.00    +0.000 N 
ATOM      8  C   UNL     1       1.110   8.577  20.306  0.00  0.00    +0.000 C 
ATOM      9  C   UNL     1       2.191   7.538  19.934  0.00  0.00    +0.000 C 
ATOM     10  H   UNL     1       1.832  11.057  21.400  0.00  0.00    +0.000 HD
ENDROOT
BRANCH   7  11
ATOM     11  C   UNL     1       0.564  12.612  21.601  0.00  0.00    +0.000 A 
ATOM     12  N   UNL     1      -0.514  12.707  22.405  0.00  0.00    +0.000 NA
ATOM     13  C   UNL     1      -0.951  13.971  22.578  0.00  0.00    +0.000 A 
ATOM     14  C   UNL     1      -1.286  14.472  23.825  0.00  0.00    +0.000 A 
ATOM     15  C   UNL     1      -1.629  15.815  23.953  0.00  0.00    +0.000 A 
ATOM     16 CL   UNL     1      -1.550  16.578  25.492  0.00  0.00    +0.000 Cl
ATOM     17  C   UNL     1      -1.887  16.583  22.823  0.00  0.00    +0.000 A 
ATOM     18  C   UNL     1      -1.479  16.097  21.587  0.00  0.00    +0.000 A 
ATOM     19  C   UNL     1      -0.759  14.924  21.579  0.00  0.00    +0.000 A 
ATOM     20  N   UNL     1       0.319  14.811  20.793  0.00  0.00    +0.000 NA
ATOM     21  C   UNL     1       1.146  13.789  21.126  0.00  0.00    +0.000 A 
BRANCH  21  22
ATOM     22  O   UNL     1       2.230  14.099  21.998  0.00  0.00    +0.000 OA
ATOM     23  C   UNL     1       2.985  15.280  21.759  0.00  0.00    +0.000 C 
ENDBRANCH  21  22
ENDBRANCH   7  11
BRANCH   1  28
ATOM     24  C   UNL     1       2.680   3.736  17.601  0.00  0.00    +0.000 A 
ATOM     25  C   UNL     1       3.995   3.744  17.141  0.00  0.00    +0.000 A 
ATOM     26  C   UNL     1       4.741   4.926  17.140  0.00  0.00    +0.000 A 
ATOM     27  C   UNL     1       4.155   6.112  17.594  0.00  0.00    +0.000 A 
ATOM     28  C   UNL     1       2.832   6.131  18.061  0.00  0.00    +0.000 A 
ATOM     29  C   UNL     1       2.118   4.925  18.068  0.00  0.00    +0.000 A 
BRANCH  24  31
ATOM     30  C   UNL     1       1.203   2.195  18.636  0.00  0.00    +0.000 C 
ATOM     31  O   UNL     1       2.046   2.525  17.538  0.00  0.00    +0.000 OA
ENDBRANCH  24  31
BRANCH  26  32
ATOM     32  O   UNL     1       6.020   4.785  16.673  0.00  0.00    +0.000 OA
ATOM     33  C   UNL     1       7.071   4.791  17.632  0.00  0.00    +0.000 C 
ENDBRANCH  26  32
ENDBRANCH   1  28
TORSDOF 5
ENDMDL
MODEL 3
REMARK VINA RESULT:      -8.1      3.834     10.893
REMARK  Name = 
REMARK  8 active torsions:
REMARK  status: ('A' for Active; 'I' for Inactive)
REMARK    1  A    between atoms: C_1  and  O_2
REMARK    2  A    between atoms: O_2  and  C_3
REMARK    3  A    between atoms: C_5  and  O_6
REMARK    4  A    between atoms: O_6  and  C_7
REMARK    5  A    between atoms: C_9  and  N_10
REMARK    6  A    between atoms: N_16  and  C_17
REMARK    7  A    between atoms: C_27  and  O_28
REMARK    8  A    between atoms: O_28  and  C_29
REMARK                            x       y       z     vdW  Elec       q    Type
REMARK                         _______ _______ _______ _____ _____    ______ ____
ROOT
ATOM      1  N   UNL     1       2.497   7.183  18.913  0.00  0.00    +0.000 N 
ATOM      2  C   UNL     1       1.846   6.942  20.210  0.00  0.00    +0.000 C 
ATOM      3  C   UNL     1       1.750   8.270  20.971  0.00  0.00    +0.000 C 
ATOM      4  N   UNL     1       1.046   9.285  20.182  0.00  0.00    +0.000 N 
ATOM      5  C   UNL     1       0.416  10.309  20.891  0.00  0.00    +0.000 C 
ATOM      6  O   UNL     1       0.565  10.432  22.093  0.00  0.00    +0.000 OA
ATOM      7  N   UNL     1      -0.508  10.993  20.140  0.00  0.00    +0.000 N 
ATOM      8  C   UNL     1       1.588   9.488  18.831  0.00  0.00    +0.000 C 
ATOM      9  C   UNL     1       1.777   8.160  18.066  0.00  0.00    +0.000 C 
ATOM     10  H   UNL     1      -0.983  10.417  19.460  0.00  0.00    +0.000 HD
ENDROOT
BRANCH   7  11
ATOM     11  C   UNL     1      -1.352  11.932  20.739  0.00  0.00    +0.000 A 
ATOM     12  N   UNL     1      -1.678  11.751  22.034  0.00  0.00    +0.000 NA
ATOM     13  C   UNL     1      -2.715  12.510  22.443  0.00  0.00    +0.000 A 
ATOM     14  C   UNL     1      -2.690  13.211  23.636  0.00  0.00    +0.000 A 
ATOM     15  C   UNL     1      -3.748  14.060  23.953  0.00  0.00    +0.000 A 
ATOM     16 CL   UNL     1      -3.532  15.298  25.126  0.00  0.00    +0.000 Cl
ATOM     17  C   UNL     1      -4.928  14.012  23.220  0.00  0.00    +0.000 A 
ATOM     18  C   UNL     1      -4.916  13.366  21.990  0.00  0.00    +0.000 A 
ATOM     19  C   UNL     1      -3.703  12.895  21.539  0.00  0.00    +0.000 A 
ATOM     20  N   UNL     1      -3.357  13.071  20.258  0.00  0.00    +0.000 NA
ATOM     21  C   UNL     1      -2.032  12.911  20.011  0.00  0.00    +0.000 A 
BRANCH  21  22
ATOM     22  O   UNL     1      -1.228  14.087  20.041  0.00  0.00    +0.000 OA
ATOM     23  C   UNL     1      -0.364  14.355  18.944  0.00  0.00    +0.000 C 
ENDBRANCH  21  22
ENDBRANCH   7  11
BRANCH   1  28
ATOM     24  C   UNL     1       2.772   3.780  17.505  0.00  0.00    +0.000 A 
ATOM     25  C   UNL     1       3.977   3.859  16.811  0.00  0.00    +0.000 A 
ATOM     26  C   UNL     1       4.728   5.037  16.823  0.00  0.00    +0.000 A 
ATOM     27  C   UNL     1       4.258   6.149  17.530  0.00  0.00    +0.000 A 
ATOM     28  C   UNL     1       3.046   6.096  18.236  0.00  0.00    +0.000 A 
ATOM     29  C   UNL     1       2.327   4.893  18.220  0.00  0.00    +0.000 A 
BRANCH  24  31
ATOM     30  C   UNL     1       1.279   2.228  18.500  0.00  0.00    +0.000 C 
ATOM     31  O   UNL     1       2.117   2.582  17.406  0.00  0.00    +0.000 OA
ENDBRANCH  24  31
BRANCH  26  32
ATOM     32  O   UNL     1       5.894   4.969  16.109  0.00  0.00    +0.000 OA
ATOM     33  C   UNL     1       7.080   4.638  16.822  0.00  0.00    +0.000 C 
ENDBRANCH  26  32
ENDBRANCH   1  28
TORSDOF 5
ENDMDL
MODEL 4
REMARK VINA RESULT:      -8.0      4.104     11.130
REMARK  Name = 
REMARK  8 active torsions:
REMARK  status: ('A' for Active; 'I' for Inactive)
REMARK    1  A    between atoms: C_1  and  O_2
REMARK    2  A    between atoms: O_2  and  C_3
REMARK    3  A    between atoms: C_5  and  O_6
REMARK    4  A    between atoms: O_6  and  C_7
REMARK    5  A    between atoms: C_9  and  N_10
REMARK    6  A    between atoms: N_16  and  C_17
REMARK    7  A    between atoms: C_27  and  O_28
REMARK    8  A    between atoms: O_28  and  C_29
REMARK                            x       y       z     vdW  Elec       q    Type
REMARK                         _______ _______ _______ _____ _____    ______ ____
ROOT
ATOM      1  N   UNL     1       2.160   7.365  18.457  0.00  0.00    +0.000 N 
ATOM      2  C   UNL     1       2.308   8.601  17.672  0.00  0.00    +0.000 C 
ATOM      3  C   UNL     1       1.141   9.540  18.003  0.00  0.00    +0.000 C 
ATOM      4  N   UNL     1       1.067   9.807  19.443  0.00  0.00    +0.000 N 
ATOM      5  C   UNL     1       0.459  11.003  19.831  0.00  0.00    +0.000 C 
ATOM      6  O   UNL     1      -0.108  11.716  19.023  0.00  0.00    +0.000 OA
ATOM      7  N   UNL     1       0.746  11.356  21.126  0.00  0.00    +0.000 N 
ATOM      8  C   UNL     1       1.030   8.602  20.284  0.00  0.00    +0.000 C 
ATOM      9  C   UNL     1       2.142   7.595  19.919  0.00  0.00    +0.000 C 
ATOM     10  H   UNL     1       1.672  11.083  21.424  0.00  0.00    +0.000 HD
ENDROOT
BRANCH   7  11
ATOM     11  C   UNL     1       0.364  12.605  21.621  0.00  0.00    +0.000 A 
ATOM     12  N   UNL     1      -0.695  12.656  22.454  0.00  0.00    +0.000 NA
ATOM     13  C   UNL     1      -1.179  13.901  22.640  0.00  0.00    +0.000 A 
ATOM     14  C   UNL     1      -1.501  14.388  23.895  0.00  0.00    +0.000 A 
ATOM     15  C   UNL     1      -1.896  15.716  24.034  0.00  0.00    +0.000 A 
ATOM     16 CL   UNL     1      -1.808  16.482  25.570  0.00  0.00    +0.000 Cl
ATOM     17  C   UNL     1      -2.217  16.472  22.911  0.00  0.00    +0.000 A 
ATOM     18  C   UNL     1      -1.822  16.003  21.665  0.00  0.00    +0.000 A 
ATOM     19  C   UNL     1      -1.054  14.861  21.636  0.00  0.00    +0.000 A 
ATOM     20  N   UNL     1       0.006  14.792  20.822  0.00  0.00    +0.000 NA
ATOM     21  C   UNL     1       0.884  13.805  21.131  0.00  0.00    +0.000 A 
BRANCH  21  22
ATOM     22  O   UNL     1       1.977  14.161  21.975  0.00  0.00    +0.000 OA
ATOM     23  C   UNL     1       3.274  14.279  21.404  0.00  0.00    +0.000 C 
ENDBRANCH  21  22
ENDBRANCH   7  11
BRANCH   1  28
ATOM     24  C   UNL     1       4.965   5.285  17.255  0.00  0.00    +0.000 A 
ATOM     25  C   UNL     1       4.404   4.011  17.285  0.00  0.00    +0.000 A 
ATOM     26  C   UNL     1       3.076   3.828  17.680  0.00  0.00    +0.000 A 
ATOM     27  C   UNL     1       2.310   4.935  18.060  0.00  0.00    +0.000 A 
ATOM     28  C   UNL     1       2.852   6.229  18.040  0.00  0.00    +0.000 A 
ATOM     29  C   UNL     1       4.181   6.380  17.619  0.00  0.00    +0.000 A 
BRANCH  24  31
ATOM     30  C   UNL     1       6.632   4.554  15.734  0.00  0.00    +0.000 C 
ATOM     31  O   UNL     1       6.277   5.337  16.868  0.00  0.00    +0.000 OA
ENDBRANCH  24  31
BRANCH  26  32
ATOM     32  O   UNL     1       2.653   2.526  17.650  0.00  0.00    +0.000 OA
ATOM     33  C   UNL     1       1.579   2.167  18.512  0.00  0.00    +0.000 C 
ENDBRANCH  26  32
ENDBRANCH   1  28
TORSDOF 5
ENDMDL
MODEL 5
REMARK VINA RESULT:      -8.0      3.776     10.929
REMARK  Name = 
REMARK  8 active torsions:
REMARK  status: ('A' for Active; 'I' for Inactive)
REMARK    1  A    between atoms: C_1  and  O_2
REMARK    2  A    between atoms: O_2  and  C_3
REMARK    3  A    between atoms: C_5  and  O_6
REMARK    4  A    between atoms: O_6  and  C_7
REMARK    5  A    between atoms: C_9  and  N_10
REMARK    6  A    between atoms: N_16  and  C_17
REMARK    7  A    between atoms: C_27  and  O_28
REMARK    8  A    between atoms: O_28  and  C_29
REMARK                            x       y       z     vdW  Elec       q    Type
REMARK                         _______ _______ _______ _____ _____    ______ ____
ROOT
ATOM      1  N   UNL     1       2.474   7.235  18.530  0.00  0.00    +0.000 N 
ATOM      2  C   UNL     1       2.590   8.511  17.808  0.00  0.00    +0.000 C 
ATOM      3  C   UNL     1       1.288   9.302  17.988  0.00  0.00    +0.000 C 
ATOM      4  N   UNL     1       0.978   9.497  19.407  0.00  0.00    +0.000 N 
ATOM      5  C   UNL     1       0.187  10.601  19.733  0.00  0.00    +0.000 C 
ATOM      6  O   UNL     1      -0.336  11.282  18.870  0.00  0.00    +0.000 OA
ATOM      7  N   UNL     1       0.243  10.928  21.065  0.00  0.00    +0.000 N 
ATOM      8  C   UNL     1       0.959   8.261  20.202  0.00  0.00    +0.000 C 
ATOM      9  C   UNL     1       2.220   7.398  19.978  0.00  0.00    +0.000 C 
ATOM     10  H   UNL     1       1.142  10.746  21.489  0.00  0.00    +0.000 HD
ENDROOT
BRANCH   7  11
ATOM     11  C   UNL     1      -0.347  12.106  21.531  0.00  0.00    +0.000 A 
ATOM     12  N   UNL     1       0.439  13.192  21.674  0.00  0.00    +0.000 NA
ATOM     13  C   UNL     1      -0.124  14.177  22.400  0.00  0.00    +0.000 A 
ATOM     14  C   UNL     1      -0.087  15.502  22.001  0.00  0.00    +0.000 A 
ATOM     15  C   UNL     1      -0.778  16.460  22.740  0.00  0.00    +0.000 A 
ATOM     16 CL   UNL     1      -1.178  17.971  22.025  0.00  0.00    +0.000 Cl
ATOM     17  C   UNL     1      -1.280  16.145  23.998  0.00  0.00    +0.000 A 
ATOM     18  C   UNL     1      -1.377  14.806  24.354  0.00  0.00    +0.000 A 
ATOM     19  C   UNL     1      -1.055  13.874  23.394  0.00  0.00    +0.000 A 
ATOM     20  N   UNL     1      -1.826  12.792  23.231  0.00  0.00    +0.000 NA
ATOM     21  C   UNL     1      -1.643  12.149  22.051  0.00  0.00    +0.000 A 
BRANCH  21  22
ATOM     22  O   UNL     1      -2.510  12.515  20.980  0.00  0.00    +0.000 OA
ATOM     23  C   UNL     1      -3.857  12.859  21.276  0.00  0.00    +0.000 C 
ENDBRANCH  21  22
ENDBRANCH   7  11
BRANCH   1  28
ATOM     24  C   UNL     1       3.715   3.789  18.049  0.00  0.00    +0.000 A 
ATOM     25  C   UNL     1       4.950   4.017  17.445  0.00  0.00    +0.000 A 
ATOM     26  C   UNL     1       5.399   5.319  17.214  0.00  0.00    +0.000 A 
ATOM     27  C   UNL     1       4.594   6.403  17.582  0.00  0.00    +0.000 A 
ATOM     28  C   UNL     1       3.345   6.201  18.190  0.00  0.00    +0.000 A 
ATOM     29  C   UNL     1       2.933   4.882  18.426  0.00  0.00    +0.000 A 
BRANCH  24  31
ATOM     30  C   UNL     1       2.033   2.210  18.601  0.00  0.00    +0.000 C 
ATOM     31  O   UNL     1       3.375   2.473  18.209  0.00  0.00    +0.000 OA
ENDBRANCH  24  31
BRANCH  26  32
ATOM     32  O   UNL     1       6.633   5.394  16.627  0.00  0.00    +0.000 OA
ATOM     33  C   UNL     1       6.837   4.648  15.433  0.00  0.00    +0.000 C 
ENDBRANCH  26  32
ENDBRANCH   1  28
TORSDOF 5
ENDMDL
MODEL 6
REMARK VINA RESULT:      -8.0      3.974     11.187
REMARK  Name = 
REMARK  8 active torsions:
REMARK  status: ('A' for Active; 'I' for Inactive)
REMARK    1  A    between atoms: C_1  and  O_2
REMARK    2  A    between atoms: O_2  and  C_3
REMARK    3  A    between atoms: C_5  and  O_6
REMARK    4  A    between atoms: O_6  and  C_7
REMARK    5  A    between atoms: C_9  and  N_10
REMARK    6  A    between atoms: N_16  and  C_17
REMARK    7  A    between atoms: C_27  and  O_28
REMARK    8  A    between atoms: O_28  and  C_29
REMARK                            x       y       z     vdW  Elec       q    Type
REMARK                         _______ _______ _______ _____ _____    ______ ____
ROOT
ATOM      1  N   UNL     1       1.986   8.130  19.666  0.00  0.00    +0.000 N 
ATOM      2  C   UNL     1       1.259   7.812  20.905  0.00  0.00    +0.000 C 
ATOM      3  C   UNL     1       1.130   9.089  21.744  0.00  0.00    +0.000 C 
ATOM      4  N   UNL     1       0.479  10.160  20.983  0.00  0.00    +0.000 N 
ATOM      5  C   UNL     1      -0.184  11.144  21.720  0.00  0.00    +0.000 C 
ATOM      6  O   UNL     1      -0.102  11.188  22.934  0.00  0.00    +0.000 OA
ATOM      7  N   UNL     1      -1.058  11.884  20.964  0.00  0.00    +0.000 N 
ATOM      8  C   UNL     1       1.099  10.444  19.681  0.00  0.00    +0.000 C 
ATOM      9  C   UNL     1       1.322   9.166  18.843  0.00  0.00    +0.000 C 
ATOM     10  H   UNL     1      -1.497  11.359  20.222  0.00  0.00    +0.000 HD
ENDROOT
BRANCH   7  11
ATOM     11  C   UNL     1      -1.928  12.792  21.573  0.00  0.00    +0.000 A 
ATOM     12  N   UNL     1      -1.449  14.015  21.881  0.00  0.00    +0.000 NA
ATOM     13  C   UNL     1      -2.240  14.710  22.724  0.00  0.00    +0.000 A 
ATOM     14  C   UNL     1      -2.554  16.041  22.511  0.00  0.00    +0.000 A 
ATOM     15  C   UNL     1      -3.460  16.674  23.358  0.00  0.00    +0.000 A 
ATOM     16 CL   UNL     1      -4.250  18.114  22.849  0.00  0.00    +0.000 Cl
ATOM     17  C   UNL     1      -3.845  16.069  24.550  0.00  0.00    +0.000 A 
ATOM     18  C   UNL     1      -3.586  14.715  24.716  0.00  0.00    +0.000 A 
ATOM     19  C   UNL     1      -3.046  14.041  23.645  0.00  0.00    +0.000 A 
ATOM     20  N   UNL     1      -3.511  12.829  23.317  0.00  0.00    +0.000 NA
ATOM     21  C   UNL     1      -3.183  12.425  22.064  0.00  0.00    +0.000 A 
BRANCH  21  22
ATOM     22  O   UNL     1      -4.130  12.698  21.034  0.00  0.00    +0.000 OA
ATOM     23  C   UNL     1      -5.514  12.531  21.313  0.00  0.00    +0.000 C 
ENDBRANCH  21  22
ENDBRANCH   7  11
BRANCH   1  28
ATOM     24  C   UNL     1       4.109   6.411  17.180  0.00  0.00    +0.000 A 
ATOM     25  C   UNL     1       3.893   5.073  17.503  0.00  0.00    +0.000 A 
ATOM     26  C   UNL     1       3.019   4.723  18.535  0.00  0.00    +0.000 A 
ATOM     27  C   UNL     1       2.364   5.727  19.256  0.00  0.00    +0.000 A 
ATOM     28  C   UNL     1       2.565   7.082  18.951  0.00  0.00    +0.000 A 
ATOM     29  C   UNL     1       3.434   7.399  17.897  0.00  0.00    +0.000 A 
BRANCH  24  31
ATOM     30  C   UNL     1       5.506   5.475  15.507  0.00  0.00    +0.000 C 
ATOM     31  O   UNL     1       4.999   6.631  16.164  0.00  0.00    +0.000 OA
ENDBRANCH  24  31
BRANCH  26  32
ATOM     32  O   UNL     1       2.893   3.374  18.734  0.00  0.00    +0.000 OA
ATOM     33  C   UNL     1       2.523   2.578  17.615  0.00  0.00    +0.000 C 
ENDBRANCH  26  32
ENDBRANCH   1  28
TORSDOF 5
ENDMDL
MODEL 7
REMARK VINA RESULT:      -8.0      3.811     11.078
REMARK  Name = 
REMARK  8 active torsions:
REMARK  status: ('A' for Active; 'I' for Inactive)
REMARK    1  A    between atoms: C_1  and  O_2
REMARK    2  A    between atoms: O_2  and  C_3
REMARK    3  A    between atoms: C_5  and  O_6
REMARK    4  A    between atoms: O_6  and  C_7
REMARK    5  A    between atoms: C_9  and  N_10
REMARK    6  A    between atoms: N_16  and  C_17
REMARK    7  A    between atoms: C_27  and  O_28
REMARK    8  A    between atoms: O_28  and  C_29
REMARK                            x       y       z     vdW  Elec       q    Type
REMARK                         _______ _______ _______ _____ _____    ______ ____
ROOT
ATOM      1  N   UNL     1       2.580   7.378  18.604  0.00  0.00    +0.000 N 
ATOM      2  C   UNL     1       2.617   8.652  17.869  0.00  0.00    +0.000 C 
ATOM      3  C   UNL     1       1.280   9.376  18.067  0.00  0.00    +0.000 C 
ATOM      4  N   UNL     1       0.986   9.569  19.490  0.00  0.00    +0.000 N 
ATOM      5  C   UNL     1       0.145  10.634  19.821  0.00  0.00    +0.000 C 
ATOM      6  O   UNL     1      -0.428  11.279  18.961  0.00  0.00    +0.000 OA
ATOM      7  N   UNL     1       0.209  10.976  21.149  0.00  0.00    +0.000 N 
ATOM      8  C   UNL     1       1.045   8.341  20.295  0.00  0.00    +0.000 C 
ATOM      9  C   UNL     1       2.345   7.542  20.056  0.00  0.00    +0.000 C 
ATOM     10  H   UNL     1       1.123  10.845  21.557  0.00  0.00    +0.000 HD
ENDROOT
BRANCH   7  11
ATOM     11  C   UNL     1      -0.433  12.127  21.615  0.00  0.00    +0.000 A 
ATOM     12  N   UNL     1       0.298  13.254  21.730  0.00  0.00    +0.000 NA
ATOM     13  C   UNL     1      -0.301  14.217  22.459  0.00  0.00    +0.000 A 
ATOM     14  C   UNL     1      -0.341  15.537  22.045  0.00  0.00    +0.000 A 
ATOM     15  C   UNL     1      -1.066  16.465  22.789  0.00  0.00    +0.000 A 
ATOM     16 CL   UNL     1      -1.559  17.946  22.068  0.00  0.00    +0.000 Cl
ATOM     17  C   UNL     1      -1.524  16.139  24.061  0.00  0.00    +0.000 A 
ATOM     18  C   UNL     1      -1.544  14.801  24.432  0.00  0.00    +0.000 A 
ATOM     19  C   UNL     1      -1.193  13.876  23.475  0.00  0.00    +0.000 A 
ATOM     20  N   UNL     1      -1.910  12.754  23.339  0.00  0.00    +0.000 NA
ATOM     21  C   UNL     1      -1.718  12.108  22.162  0.00  0.00    +0.000 A 
BRANCH  21  22
ATOM     22  O   UNL     1      -2.624  12.416  21.106  0.00  0.00    +0.000 OA
ATOM     23  C   UNL     1      -3.805  13.148  21.408  0.00  0.00    +0.000 C 
ENDBRANCH  21  22
ENDBRANCH   7  11
BRANCH   1  28
ATOM     24  C   UNL     1       5.223   5.642  16.696  0.00  0.00    +0.000 A 
ATOM     25  C   UNL     1       5.462   4.527  17.496  0.00  0.00    +0.000 A 
ATOM     26  C   UNL     1       4.729   4.323  18.667  0.00  0.00    +0.000 A 
ATOM     27  C   UNL     1       3.755   5.254  19.044  0.00  0.00    +0.000 A 
ATOM     28  C   UNL     1       3.497   6.386  18.257  0.00  0.00    +0.000 A 
ATOM     29  C   UNL     1       4.236   6.552  17.077  0.00  0.00    +0.000 A 
BRANCH  24  31
ATOM     30  C   UNL     1       6.229   4.544  14.849  0.00  0.00    +0.000 C 
ATOM     31  O   UNL     1       6.015   5.744  15.584  0.00  0.00    +0.000 OA
ENDBRANCH  24  31
BRANCH  26  32
ATOM     32  O   UNL     1       5.059   3.181  19.347  0.00  0.00    +0.000 OA
ATOM     33  C   UNL     1       3.994   2.419  19.904  0.00  0.00    +0.000 C 
ENDBRANCH  26  32
ENDBRANCH   1  28
TORSDOF 5
ENDMDL
MODEL 8
REMARK VINA RESULT:      -8.0      3.848     11.117
REMARK  Name = 
REMARK  8 active torsions:
REMARK  status: ('A' for Active; 'I' for Inactive)
REMARK    1  A    between atoms: C_1  and  O_2
REMARK    2  A    between atoms: O_2  and  C_3
REMARK    3  A    between atoms: C_5  and  O_6
REMARK    4  A    between atoms: O_6  and  C_7
REMARK    5  A    between atoms: C_9  and  N_10
REMARK    6  A    between atoms: N_16  and  C_17
REMARK    7  A    between atoms: C_27  and  O_28
REMARK    8  A    between atoms: O_28  and  C_29
REMARK                            x       y       z     vdW  Elec       q    Type
REMARK                         _______ _______ _______ _____ _____    ______ ____
ROOT
ATOM      1  N   UNL     1       2.573   7.266  18.805  0.00  0.00    +0.000 N 
ATOM      2  C   UNL     1       1.913   6.985  20.089  0.00  0.00    +0.000 C 
ATOM      3  C   UNL     1       1.797   8.293  20.883  0.00  0.00    +0.000 C 
ATOM      4  N   UNL     1       1.090   9.320  20.112  0.00  0.00    +0.000 N 
ATOM      5  C   UNL     1       0.443  10.320  20.841  0.00  0.00    +0.000 C 
ATOM      6  O   UNL     1       0.580  10.414  22.047  0.00  0.00    +0.000 OA
ATOM      7  N   UNL     1      -0.480  11.014  20.099  0.00  0.00    +0.000 N 
ATOM      8  C   UNL     1       1.642   9.563  18.772  0.00  0.00    +0.000 C 
ATOM      9  C   UNL     1       1.851   8.257  17.975  0.00  0.00    +0.000 C 
ATOM     10  H   UNL     1      -0.944  10.451  19.400  0.00  0.00    +0.000 HD
ENDROOT
BRANCH   7  11
ATOM     11  C   UNL     1      -1.339  11.929  20.713  0.00  0.00    +0.000 A 
ATOM     12  N   UNL     1      -1.614  11.756  22.022  0.00  0.00    +0.000 NA
ATOM     13  C   UNL     1      -2.665  12.480  22.456  0.00  0.00    +0.000 A 
ATOM     14  C   UNL     1      -2.627  13.201  23.638  0.00  0.00    +0.000 A 
ATOM     15  C   UNL     1      -3.705  14.013  23.979  0.00  0.00    +0.000 A 
ATOM     16 CL   UNL     1      -3.497  15.277  25.126  0.00  0.00    +0.000 Cl
ATOM     17  C   UNL     1      -4.907  13.909  23.287  0.00  0.00    +0.000 A 
ATOM     18  C   UNL     1      -4.911  13.245  22.068  0.00  0.00    +0.000 A 
ATOM     19  C   UNL     1      -3.698  12.814  21.581  0.00  0.00    +0.000 A 
ATOM     20  N   UNL     1      -3.402  12.983  20.287  0.00  0.00    +0.000 NA
ATOM     21  C   UNL     1      -2.082  12.870  19.996  0.00  0.00    +0.000 A 
BRANCH  21  22
ATOM     22  O   UNL     1      -1.323  14.077  19.981  0.00  0.00    +0.000 OA
ATOM     23  C   UNL     1      -0.386  14.284  18.933  0.00  0.00    +0.000 C 
ENDBRANCH  21  22
ENDBRANCH   7  11
BRANCH   1  28
ATOM     24  C   UNL     1       4.920   5.438  16.617  0.00  0.00    +0.000 A 
ATOM     25  C   UNL     1       4.452   4.131  16.731  0.00  0.00    +0.000 A 
ATOM     26  C   UNL     1       3.333   3.844  17.516  0.00  0.00    +0.000 A 
ATOM     27  C   UNL     1       2.686   4.877  18.202  0.00  0.00    +0.000 A 
ATOM     28  C   UNL     1       3.139   6.201  18.105  0.00  0.00    +0.000 A 
ATOM     29  C   UNL     1       4.253   6.459  17.293  0.00  0.00    +0.000 A 
BRANCH  24  31
ATOM     30  C   UNL     1       6.917   4.482  15.765  0.00  0.00    +0.000 C 
ATOM     31  O   UNL     1       6.033   5.594  15.834  0.00  0.00    +0.000 OA
ENDBRANCH  24  31
BRANCH  26  32
ATOM     32  O   UNL     1       2.977   2.521  17.528  0.00  0.00    +0.000 OA
ATOM     33  C   UNL     1       2.059   2.099  18.529  0.00  0.00    +0.000 C 
ENDBRANCH  26  32
ENDBRANCH   1  28
TORSDOF 5
ENDMDL
MODEL 9
REMARK VINA RESULT:      -7.9      4.011     10.919
REMARK  Name = 
REMARK  8 active torsions:
REMARK  status: ('A' for Active; 'I' for Inactive)
REMARK    1  A    between atoms: C_1  and  O_2
REMARK    2  A    between atoms: O_2  and  C_3
REMARK    3  A    between atoms: C_5  and  O_6
REMARK    4  A    between atoms: O_6  and  C_7
REMARK    5  A    between atoms: C_9  and  N_10
REMARK    6  A    between atoms: N_16  and  C_17
REMARK    7  A    between atoms: C_27  and  O_28
REMARK    8  A    between atoms: O_28  and  C_29
REMARK                            x       y       z     vdW  Elec       q    Type
REMARK                         _______ _______ _______ _____ _____    ______ ____
ROOT
ATOM      1  N   UNL     1       2.418   7.466  18.943  0.00  0.00    +0.000 N 
ATOM      2  C   UNL     1       1.658   7.310  20.193  0.00  0.00    +0.000 C 
ATOM      3  C   UNL     1       1.593   8.667  20.905  0.00  0.00    +0.000 C 
ATOM      4  N   UNL     1       1.016   9.696  20.034  0.00  0.00    +0.000 N 
ATOM      5  C   UNL     1       0.402  10.781  20.663  0.00  0.00    +0.000 C 
ATOM      6  O   UNL     1       0.470  10.936  21.869  0.00  0.00    +0.000 OA
ATOM      7  N   UNL     1      -0.417  11.495  19.824  0.00  0.00    +0.000 N 
ATOM      8  C   UNL     1       1.668   9.818  18.723  0.00  0.00    +0.000 C 
ATOM      9  C   UNL     1       1.827   8.455  18.014  0.00  0.00    +0.000 C 
ATOM     10  H   UNL     1      -0.877  10.927  19.127  0.00  0.00    +0.000 HD
ENDROOT
BRANCH   7  11
ATOM     11  C   UNL     1      -1.241  12.505  20.329  0.00  0.00    +0.000 A 
ATOM     12  N   UNL     1      -0.688  13.712  20.561  0.00  0.00    +0.000 NA
ATOM     13  C   UNL     1      -1.454  14.524  21.317  0.00  0.00    +0.000 A 
ATOM     14  C   UNL     1      -1.667  15.852  20.992  0.00  0.00    +0.000 A 
ATOM     15  C   UNL     1      -2.553  16.610  21.753  0.00  0.00    +0.000 A 
ATOM     16 CL   UNL     1      -3.222  18.056  21.106  0.00  0.00    +0.000 Cl
ATOM     17  C   UNL     1      -3.018  16.128  22.972  0.00  0.00    +0.000 A 
ATOM     18  C   UNL     1      -2.861  14.777  23.251  0.00  0.00    +0.000 A 
ATOM     19  C   UNL     1      -2.335  13.985  22.255  0.00  0.00    +0.000 A 
ATOM     20  N   UNL     1      -2.874  12.786  22.003  0.00  0.00    +0.000 NA
ATOM     21  C   UNL     1      -2.534  12.264  20.798  0.00  0.00    +0.000 A 
BRANCH  21  22
ATOM     22  O   UNL     1      -3.425  12.518  19.715  0.00  0.00    +0.000 OA
ATOM     23  C   UNL     1      -4.823  12.550  19.971  0.00  0.00    +0.000 C 
ENDBRANCH  21  22
ENDBRANCH   7  11
BRANCH   1  28
ATOM     24  C   UNL     1       2.590   3.993  17.700  0.00  0.00    +0.000 A 
ATOM     25  C   UNL     1       3.829   3.983  17.063  0.00  0.00    +0.000 A 
ATOM     26  C   UNL     1       4.636   5.123  17.061  0.00  0.00    +0.000 A 
ATOM     27  C   UNL     1       4.189   6.287  17.694  0.00  0.00    +0.000 A 
ATOM     28  C   UNL     1       2.944   6.324  18.341  0.00  0.00    +0.000 A 
ATOM     29  C   UNL     1       2.167   5.157  18.342  0.00  0.00    +0.000 A 
BRANCH  24  31
ATOM     30  C   UNL     1       1.007   2.540  18.706  0.00  0.00    +0.000 C 
ATOM     31  O   UNL     1       1.883   2.823  17.621  0.00  0.00    +0.000 OA
ENDBRANCH  24  31
BRANCH  26  32
ATOM     32  O   UNL     1       5.831   4.967  16.410  0.00  0.00    +0.000 OA
ATOM     33  C   UNL     1       6.973   4.660  17.201  0.00  0.00    +0.000 C 
ENDBRANCH  26  32
ENDBRANCH   1  28
TORSDOF 5
ENDMDL
