MODEL 1
REMARK VINA RESULT:      -9.0      0.000      0.000
REMARK  Name = 
REMARK  7 active torsions:
REMARK  status: ('A' for Active; 'I' for Inactive)
REMARK    1  A    between atoms: C_1  and  C_2
REMARK    2  A    between atoms: C_2  and  C_3
REMARK    3  A    between atoms: C_3  and  C_4
REMARK    4  A    between atoms: C_4  and  C_5
REMARK    5  A    between atoms: C_5  and  N_6
REMARK    6  A    between atoms: N_14  and  C_15
REMARK    7  A    between atoms: C_20  and  C_21
REMARK                            x       y       z     vdW  Elec       q    Type
REMARK                         _______ _______ _______ _____ _____    ______ ____
ROOT
ATOM      1  N   UNL     1       3.427   2.935  20.625  0.00  0.00    +0.000 N 
ATOM      2  C   UNL     1       4.637   2.603  20.087  0.00  0.00    +0.000 C 
ATOM      3  O   UNL     1       5.304   1.632  20.428  0.00  0.00    +0.000 OA
ATOM      4  N   UNL     1       5.048   3.412  19.049  0.00  0.00    +0.000 N 
ATOM      5  C   UNL     1       4.543   4.646  18.688  0.00  0.00    +0.000 A 
ATOM      6  N   UNL     1       3.691   5.316  19.422  0.00  0.00    +0.000 NA
ATOM      7  C   UNL     1       3.276   6.543  18.877  0.00  0.00    +0.000 A 
ATOM      8  N   UNL     1       2.399   7.346  19.462  0.00  0.00    +0.000 NA
ATOM      9  N   UNL     1       2.278   8.361  18.568  0.00  0.00    +0.000 N 
ATOM     10  C   UNL     1       1.374   9.455  18.830  0.00  0.00    +0.000 C 
ATOM     11  C   UNL     1       3.048   8.210  17.439  0.00  0.00    +0.000 A 
ATOM     12  C   UNL     1       3.701   7.034  17.639  0.00  0.00    +0.000 A 
ATOM     13  C   UNL     1       4.639   6.246  16.871  0.00  0.00    +0.000 A 
ATOM     14  N   UNL     1       5.171   6.404  15.694  0.00  0.00    +0.000 NA
ATOM     15  C   UNL     1       5.891   5.232  15.543  0.00  0.00    +0.000 A 
ATOM     16  N   UNL     1       5.849   4.387  16.599  0.00  0.00    +0.000 NA
ATOM     17  N   UNL     1       5.034   5.070  17.435  0.00  0.00    +0.000 N 
ATOM     18  H   UNL     1       3.066   3.862  20.409  0.00  0.00    +0.000 HD
ATOM     19  H   UNL     1       5.827   3.036  18.515  0.00  0.00    +0.000 HD
ENDROOT
BRANCH  15  20
ATOM     20  C   UNL     1       6.626   4.969  14.271  0.00  0.00    +0.000 A 
ATOM     21  C   UNL     1       6.266   4.000  13.349  0.00  0.00    +0.000 A 
ATOM     22  C   UNL     1       7.204   4.067  12.293  0.00  0.00    +0.000 A 
ATOM     23  C   UNL     1       8.092   5.058  12.641  0.00  0.00    +0.000 A 
ATOM     24  O   UNL     1       7.747   5.615  13.832  0.00  0.00    +0.000 OA
ENDBRANCH  15  20
BRANCH   1  25
ATOM     25  C   UNL     1       2.748   2.182  21.654  0.00  0.00    +0.000 C 
BRANCH  25  26
ATOM     26  C   UNL     1       1.252   2.483  21.723  0.00  0.00    +0.000 C 
BRANCH  26  27
ATOM     27  C   UNL     1       0.762   3.371  20.573  0.00  0.00    +0.000 C 
BRANCH  27  29
ATOM     28  C   UNL     1       1.103   3.440  18.070  0.00  0.00    +0.000 C 
ATOM     29  C   UNL     1       0.699   2.585  19.262  0.00  0.00    +0.000 C 
ENDBRANCH  27  29
ENDBRANCH  26  27
ENDBRANCH  25  26
ENDBRANCH   1  25
TORSDOF 5
ENDMDL
MODEL 2
REMARK VINA RESULT:      -8.5      3.548      6.869
REMARK  Name = 
REMARK  7 active torsions:
REMARK  status: ('A' for Active; 'I' for Inactive)
REMARK    1  A    between atoms: C_1  and  C_2
REMARK    2  A    between atoms: C_2  and  C_3
REMARK    3  A    between atoms: C_3  and  C_4
REMARK    4  A    between atoms: C_4  and  C_5
REMARK    5  A    between atoms: C_5  and  N_6
REMARK    6  A    between atoms: N_14  and  C_15
REMARK    7  A    between atoms: C_20  and  C_21
REMARK                            x       y       z     vdW  Elec       q    Type
REMARK                         _______ _______ _______ _____ _____    ______ ____
ROOT
ATOM      1  N   UNL     1       5.828   3.852  13.178  0.00  0.00    +0.000 N 
ATOM      2  C   UNL     1       7.003   4.542  13.254  0.00  0.00    +0.000 C 
ATOM      3  O   UNL     1       7.768   4.714  12.311  0.00  0.00    +0.000 OA
ATOM      4  N   UNL     1       7.256   5.119  14.481  0.00  0.00    +0.000 N 
ATOM      5  C   UNL     1       6.631   4.854  15.684  0.00  0.00    +0.000 A 
ATOM      6  N   UNL     1       5.804   3.853  15.859  0.00  0.00    +0.000 NA
ATOM      7  C   UNL     1       5.252   3.760  17.148  0.00  0.00    +0.000 A 
ATOM      8  N   UNL     1       4.377   2.830  17.505  0.00  0.00    +0.000 NA
ATOM      9  N   UNL     1       4.099   3.158  18.793  0.00  0.00    +0.000 N 
ATOM     10  C   UNL     1       3.146   2.383  19.550  0.00  0.00    +0.000 C 
ATOM     11  C   UNL     1       4.769   4.269  19.247  0.00  0.00    +0.000 A 
ATOM     12  C   UNL     1       5.522   4.659  18.183  0.00  0.00    +0.000 A 
ATOM     13  C   UNL     1       6.439   5.748  17.928  0.00  0.00    +0.000 A 
ATOM     14  N   UNL     1       6.846   6.749  18.652  0.00  0.00    +0.000 NA
ATOM     15  C   UNL     1       7.632   7.452  17.756  0.00  0.00    +0.000 A 
ATOM     16  N   UNL     1       7.750   6.895  16.529  0.00  0.00    +0.000 NA
ATOM     17  N   UNL     1       6.969   5.800  16.674  0.00  0.00    +0.000 N 
ATOM     18  H   UNL     1       5.382   3.605  14.059  0.00  0.00    +0.000 HD
ATOM     19  H   UNL     1       8.007   5.803  14.470  0.00  0.00    +0.000 HD
ENDROOT
BRANCH  15  20
ATOM     20  C   UNL     1       8.262   8.741  18.171  0.00  0.00    +0.000 A 
ATOM     21  C   UNL     1       8.144   9.927  17.467  0.00  0.00    +0.000 A 
ATOM     22  C   UNL     1       8.878  10.904  18.179  0.00  0.00    +0.000 A 
ATOM     23  C   UNL     1       9.417  10.252  19.264  0.00  0.00    +0.000 A 
ATOM     24  O   UNL     1       9.044   8.944  19.273  0.00  0.00    +0.000 OA
ENDBRANCH  15  20
BRANCH   1  25
ATOM     25  C   UNL     1       5.305   3.244  11.977  0.00  0.00    +0.000 C 
BRANCH  25  26
ATOM     26  C   UNL     1       4.229   4.091  11.301  0.00  0.00    +0.000 C 
BRANCH  26  27
ATOM     27  C   UNL     1       3.229   3.260  10.487  0.00  0.00    +0.000 C 
BRANCH  27  29
ATOM     28  C   UNL     1       2.164   5.076   9.088  0.00  0.00    +0.000 C 
ATOM     29  C   UNL     1       3.051   3.839   9.082  0.00  0.00    +0.000 C 
ENDBRANCH  27  29
ENDBRANCH  26  27
ENDBRANCH  25  26
ENDBRANCH   1  25
TORSDOF 5
ENDMDL
MODEL 3
REMARK VINA RESULT:      -7.9      2.445      7.169
REMARK  Name = 
REMARK  7 active torsions:
REMARK  status: ('A' for Active; 'I' for Inactive)
REMARK    1  A    between atoms: C_1  and  C_2
REMARK    2  A    between atoms: C_2  and  C_3
REMARK    3  A    between atoms: C_3  and  C_4
REMARK    4  A    between atoms: C_4  and  C_5
REMARK    5  A    between atoms: C_5  and  N_6
REMARK    6  A    between atoms: N_14  and  C_15
REMARK    7  A    between atoms: C_20  and  C_21
REMARK                            x       y       z     vdW  Elec       q    Type
REMARK                         _______ _______ _______ _____ _____    ______ ____
ROOT
ATOM      1  N   UNL     1       5.235   4.741  15.933  0.00  0.00    +0.000 N 
ATOM      2  C   UNL     1       5.379   6.098  15.966  0.00  0.00    +0.000 C 
ATOM      3  O   UNL     1       6.082   6.739  15.192  0.00  0.00    +0.000 OA
ATOM      4  N   UNL     1       4.603   6.738  16.910  0.00  0.00    +0.000 N 
ATOM      5  C   UNL     1       3.939   6.174  17.981  0.00  0.00    +0.000 A 
ATOM      6  N   UNL     1       4.110   4.932  18.359  0.00  0.00    +0.000 NA
ATOM      7  C   UNL     1       3.329   4.535  19.458  0.00  0.00    +0.000 A 
ATOM      8  N   UNL     1       3.346   3.310  19.965  0.00  0.00    +0.000 NA
ATOM      9  N   UNL     1       2.421   3.382  20.956  0.00  0.00    +0.000 N 
ATOM     10  C   UNL     1       2.119   2.218  21.753  0.00  0.00    +0.000 C 
ATOM     11  C   UNL     1       1.822   4.614  21.077  0.00  0.00    +0.000 A 
ATOM     12  C   UNL     1       2.413   5.366  20.109  0.00  0.00    +0.000 A 
ATOM     13  C   UNL     1       2.265   6.726  19.642  0.00  0.00    +0.000 A 
ATOM     14  N   UNL     1       1.482   7.703  20.000  0.00  0.00    +0.000 NA
ATOM     15  C   UNL     1       1.799   8.680  19.072  0.00  0.00    +0.000 A 
ATOM     16  N   UNL     1       2.771   8.348  18.192  0.00  0.00    +0.000 NA
ATOM     17  N   UNL     1       3.048   7.084  18.587  0.00  0.00    +0.000 N 
ATOM     18  H   UNL     1       4.793   4.306  16.740  0.00  0.00    +0.000 HD
ATOM     19  H   UNL     1       4.547   7.745  16.784  0.00  0.00    +0.000 HD
ENDROOT
BRANCH  15  20
ATOM     20  C   UNL     1       1.068   9.981  19.083  0.00  0.00    +0.000 A 
ATOM     21  C   UNL     1      -0.179  10.169  19.656  0.00  0.00    +0.000 A 
ATOM     22  C   UNL     1      -0.523  11.526  19.457  0.00  0.00    +0.000 A 
ATOM     23  C   UNL     1       0.524  12.081  18.758  0.00  0.00    +0.000 A 
ATOM     24  O   UNL     1       1.495  11.157  18.533  0.00  0.00    +0.000 OA
ENDBRANCH  15  20
BRANCH   1  25
ATOM     25  C   UNL     1       5.869   3.867  14.973  0.00  0.00    +0.000 C 
BRANCH  25  26
ATOM     26  C   UNL     1       5.296   4.014  13.565  0.00  0.00    +0.000 C 
BRANCH  26  27
ATOM     27  C   UNL     1       6.201   3.420  12.479  0.00  0.00    +0.000 C 
BRANCH  27  29
ATOM     28  C   UNL     1       4.074   3.095  11.155  0.00  0.00    +0.000 C 
ATOM     29  C   UNL     1       5.412   2.491  11.555  0.00  0.00    +0.000 C 
ENDBRANCH  27  29
ENDBRANCH  26  27
ENDBRANCH  25  26
ENDBRANCH   1  25
TORSDOF 5
ENDMDL
MODEL 4
REMARK VINA RESULT:      -7.6      2.540      5.149
REMARK  Name = 
REMARK  7 active torsions:
REMARK  status: ('A' for Active; 'I' for Inactive)
REMARK    1  A    between atoms: C_1  and  C_2
REMARK    2  A    between atoms: C_2  and  C_3
REMARK    3  A    between atoms: C_3  and  C_4
REMARK    4  A    between atoms: C_4  and  C_5
REMARK    5  A    between atoms: C_5  and  N_6
REMARK    6  A    between atoms: N_14  and  C_15
REMARK    7  A    between atoms: C_20  and  C_21
REMARK                            x       y       z     vdW  Elec       q    Type
REMARK                         _______ _______ _______ _____ _____    ______ ____
ROOT
ATOM      1  N   UNL     1       1.741   9.038  19.506  0.00  0.00    +0.000 N 
ATOM      2  C   UNL     1       1.976   9.120  18.164  0.00  0.00    +0.000 C 
ATOM      3  O   UNL     1       1.740  10.109  17.477  0.00  0.00    +0.000 OA
ATOM      4  N   UNL     1       2.584   8.010  17.615  0.00  0.00    +0.000 N 
ATOM      5  C   UNL     1       2.718   6.755  18.178  0.00  0.00    +0.000 A 
ATOM      6  N   UNL     1       2.105   6.392  19.277  0.00  0.00    +0.000 NA
ATOM      7  C   UNL     1       2.384   5.083  19.705  0.00  0.00    +0.000 A 
ATOM      8  N   UNL     1       1.878   4.549  20.808  0.00  0.00    +0.000 NA
ATOM      9  N   UNL     1       2.451   3.318  20.836  0.00  0.00    +0.000 N 
ATOM     10  C   UNL     1       2.169   2.410  21.921  0.00  0.00    +0.000 C 
ATOM     11  C   UNL     1       3.304   3.071  19.786  0.00  0.00    +0.000 A 
ATOM     12  C   UNL     1       3.259   4.213  19.048  0.00  0.00    +0.000 A 
ATOM     13  C   UNL     1       3.910   4.674  17.841  0.00  0.00    +0.000 A 
ATOM     14  N   UNL     1       4.791   4.133  17.051  0.00  0.00    +0.000 NA
ATOM     15  C   UNL     1       5.046   5.159  16.159  0.00  0.00    +0.000 A 
ATOM     16  N   UNL     1       4.326   6.287  16.353  0.00  0.00    +0.000 NA
ATOM     17  N   UNL     1       3.606   5.941  17.445  0.00  0.00    +0.000 N 
ATOM     18  H   UNL     1       1.786   8.112  19.925  0.00  0.00    +0.000 HD
ATOM     19  H   UNL     1       2.951   8.159  16.680  0.00  0.00    +0.000 HD
ENDROOT
BRANCH  15  20
ATOM     20  C   UNL     1       6.072   4.978  15.090  0.00  0.00    +0.000 A 
ATOM     21  C   UNL     1       5.926   4.129  14.006  0.00  0.00    +0.000 A 
ATOM     22  C   UNL     1       7.105   4.241  13.232  0.00  0.00    +0.000 A 
ATOM     23  C   UNL     1       7.908   5.136  13.900  0.00  0.00    +0.000 A 
ATOM     24  O   UNL     1       7.290   5.594  15.021  0.00  0.00    +0.000 OA
ENDBRANCH  15  20
BRANCH   1  25
ATOM     25  C   UNL     1       1.203  10.107  20.316  0.00  0.00    +0.000 C 
BRANCH  25  26
ATOM     26  C   UNL     1      -0.241   9.859  20.746  0.00  0.00    +0.000 C 
BRANCH  26  27
ATOM     27  C   UNL     1      -0.359   8.919  21.951  0.00  0.00    +0.000 C 
BRANCH  27  29
ATOM     28  C   UNL     1      -1.247  10.971  23.128  0.00  0.00    +0.000 C 
ATOM     29  C   UNL     1      -0.407   9.709  23.261  0.00  0.00    +0.000 C 
ENDBRANCH  27  29
ENDBRANCH  26  27
ENDBRANCH  25  26
ENDBRANCH   1  25
TORSDOF 5
ENDMDL
MODEL 5
REMARK VINA RESULT:      -7.1      2.473      5.432
REMARK  Name = 
REMARK  7 active torsions:
REMARK  status: ('A' for Active; 'I' for Inactive)
REMARK    1  A    between atoms: C_1  and  C_2
REMARK    2  A    between atoms: C_2  and  C_3
REMARK    3  A    between atoms: C_3  and  C_4
REMARK    4  A    between atoms: C_4  and  C_5
REMARK    5  A    between atoms: C_5  and  N_6
REMARK    6  A    between atoms: N_14  and  C_15
REMARK    7  A    between atoms: C_20  and  C_21
REMARK                            x       y       z     vdW  Elec       q    Type
REMARK                         _______ _______ _______ _____ _____    ______ ____
ROOT
ATOM      1  N   UNL     1       1.568   9.022  19.775  0.00  0.00    +0.000 N 
ATOM      2  C   UNL     1       1.832   9.140  18.441  0.00  0.00    +0.000 C 
ATOM      3  O   UNL     1       1.623  10.153  17.780  0.00  0.00    +0.000 OA
ATOM      4  N   UNL     1       2.437   8.039  17.872  0.00  0.00    +0.000 N 
ATOM      5  C   UNL     1       2.543   6.766  18.399  0.00  0.00    +0.000 A 
ATOM      6  N   UNL     1       1.904   6.379  19.474  0.00  0.00    +0.000 NA
ATOM      7  C   UNL     1       2.157   5.054  19.868  0.00  0.00    +0.000 A 
ATOM      8  N   UNL     1       1.622   4.494  20.944  0.00  0.00    +0.000 NA
ATOM      9  N   UNL     1       2.178   3.255  20.946  0.00  0.00    +0.000 N 
ATOM     10  C   UNL     1       1.862   2.319  21.998  0.00  0.00    +0.000 C 
ATOM     11  C   UNL     1       3.050   3.029  19.907  0.00  0.00    +0.000 A 
ATOM     12  C   UNL     1       3.034   4.193  19.203  0.00  0.00    +0.000 A 
ATOM     13  C   UNL     1       3.716   4.680  18.024  0.00  0.00    +0.000 A 
ATOM     14  N   UNL     1       4.606   4.151  17.236  0.00  0.00    +0.000 NA
ATOM     15  C   UNL     1       4.893   5.200  16.380  0.00  0.00    +0.000 A 
ATOM     16  N   UNL     1       4.183   6.332  16.594  0.00  0.00    +0.000 NA
ATOM     17  N   UNL     1       3.436   5.963  17.660  0.00  0.00    +0.000 N 
ATOM     18  H   UNL     1       1.593   8.083  20.167  0.00  0.00    +0.000 HD
ATOM     19  H   UNL     1       2.826   8.211  16.949  0.00  0.00    +0.000 HD
ENDROOT
BRANCH  15  20
ATOM     20  C   UNL     1       5.938   5.037  15.327  0.00  0.00    +0.000 A 
ATOM     21  C   UNL     1       5.797   4.236  14.207  0.00  0.00    +0.000 A 
ATOM     22  C   UNL     1       6.995   4.351  13.465  0.00  0.00    +0.000 A 
ATOM     23  C   UNL     1       7.804   5.199  14.185  0.00  0.00    +0.000 A 
ATOM     24  O   UNL     1       7.172   5.626  15.310  0.00  0.00    +0.000 OA
ENDBRANCH  15  20
BRANCH   1  25
ATOM     25  C   UNL     1       1.028  10.073  20.605  0.00  0.00    +0.000 C 
BRANCH  25  26
ATOM     26  C   UNL     1      -0.499  10.119  20.589  0.00  0.00    +0.000 C 
BRANCH  26  27
ATOM     27  C   UNL     1      -1.059  11.538  20.439  0.00  0.00    +0.000 C 
BRANCH  27  29
ATOM     28  C   UNL     1      -0.666  12.876  18.332  0.00  0.00    +0.000 C 
ATOM     29  C   UNL     1      -1.510  11.801  19.001  0.00  0.00    +0.000 C 
ENDBRANCH  27  29
ENDBRANCH  26  27
ENDBRANCH  25  26
ENDBRANCH   1  25
TORSDOF 5
ENDMDL
MODEL 6
REMARK VINA RESULT:      -6.9      3.422      7.008
REMARK  Name = 
REMARK  7 active torsions:
REMARK  status: ('A' for Active; 'I' for Inactive)
REMARK    1  A    between atoms: C_1  and  C_2
REMARK    2  A    between atoms: C_2  and  C_3
REMARK    3  A    between atoms: C_3  and  C_4
REMARK    4  A    between atoms: C_4  and  C_5
REMARK    5  A    between atoms: C_5  and  N_6
REMARK    6  A    between atoms: N_14  and  C_15
REMARK    7  A    between atoms: C_20  and  C_21
REMARK                            x       y       z     vdW  Elec       q    Type
REMARK                         _______ _______ _______ _____ _____    ______ ____
ROOT
ATOM      1  N   UNL     1       6.095   3.954  13.366  0.00  0.00    +0.000 N 
ATOM      2  C   UNL     1       7.243   4.691  13.414  0.00  0.00    +0.000 C 
ATOM      3  O   UNL     1       8.009   4.844  12.468  0.00  0.00    +0.000 OA
ATOM      4  N   UNL     1       7.465   5.336  14.613  0.00  0.00    +0.000 N 
ATOM      5  C   UNL     1       6.841   5.107  15.824  0.00  0.00    +0.000 A 
ATOM      6  N   UNL     1       6.051   4.086  16.043  0.00  0.00    +0.000 NA
ATOM      7  C   UNL     1       5.492   4.035  17.332  0.00  0.00    +0.000 A 
ATOM      8  N   UNL     1       4.650   3.092  17.729  0.00  0.00    +0.000 NA
ATOM      9  N   UNL     1       4.350   3.472  18.998  0.00  0.00    +0.000 N 
ATOM     10  C   UNL     1       3.421   2.699  19.787  0.00  0.00    +0.000 C 
ATOM     11  C   UNL     1       4.975   4.628  19.400  0.00  0.00    +0.000 A 
ATOM     12  C   UNL     1       5.721   4.994  18.323  0.00  0.00    +0.000 A 
ATOM     13  C   UNL     1       6.599   6.102  18.019  0.00  0.00    +0.000 A 
ATOM     14  N   UNL     1       6.962   7.153  18.696  0.00  0.00    +0.000 NA
ATOM     15  C   UNL     1       7.729   7.840  17.771  0.00  0.00    +0.000 A 
ATOM     16  N   UNL     1       7.877   7.228  16.574  0.00  0.00    +0.000 NA
ATOM     17  N   UNL     1       7.136   6.113  16.767  0.00  0.00    +0.000 N 
ATOM     18  H   UNL     1       5.651   3.734  14.255  0.00  0.00    +0.000 HD
ATOM     19  H   UNL     1       8.190   6.047  14.572  0.00  0.00    +0.000 HD
ENDROOT
BRANCH  15  20
ATOM     20  C   UNL     1       8.307   9.170  18.125  0.00  0.00    +0.000 A 
ATOM     21  C   UNL     1       9.116   9.399  19.225  0.00  0.00    +0.000 A 
ATOM     22  C   UNL     1       9.453  10.772  19.210  0.00  0.00    +0.000 A 
ATOM     23  C   UNL     1       8.814  11.304  18.114  0.00  0.00    +0.000 A 
ATOM     24  O   UNL     1       8.124  10.341  17.446  0.00  0.00    +0.000 OA
ENDBRANCH  15  20
BRANCH   1  25
ATOM     25  C   UNL     1       5.604   3.268  12.193  0.00  0.00    +0.000 C 
BRANCH  25  26
ATOM     26  C   UNL     1       6.706   2.948  11.185  0.00  0.00    +0.000 C 
BRANCH  26  27
ATOM     27  C   UNL     1       7.066   1.458  11.138  0.00  0.00    +0.000 C 
BRANCH  27  29
ATOM     28  C   UNL     1       6.097  -0.861  11.398  0.00  0.00    +0.000 C 
ATOM     29  C   UNL     1       5.808   0.593  11.053  0.00  0.00    +0.000 C 
ENDBRANCH  27  29
ENDBRANCH  26  27
ENDBRANCH  25  26
ENDBRANCH   1  25
TORSDOF 5
ENDMDL
MODEL 7
REMARK VINA RESULT:      -6.9      2.801      5.408
REMARK  Name = 
REMARK  7 active torsions:
REMARK  status: ('A' for Active; 'I' for Inactive)
REMARK    1  A    between atoms: C_1  and  C_2
REMARK    2  A    between atoms: C_2  and  C_3
REMARK    3  A    between atoms: C_3  and  C_4
REMARK    4  A    between atoms: C_4  and  C_5
REMARK    5  A    between atoms: C_5  and  N_6
REMARK    6  A    between atoms: N_14  and  C_15
REMARK    7  A    between atoms: C_20  and  C_21
REMARK                            x       y       z     vdW  Elec       q    Type
REMARK                         _______ _______ _______ _____ _____    ______ ____
ROOT
ATOM      1  N   UNL     1       1.592   8.718  20.136  0.00  0.00    +0.000 N 
ATOM      2  C   UNL     1       1.804   8.871  18.796  0.00  0.00    +0.000 C 
ATOM      3  O   UNL     1       1.592   9.907  18.174  0.00  0.00    +0.000 OA
ATOM      4  N   UNL     1       2.359   7.774  18.170  0.00  0.00    +0.000 N 
ATOM      5  C   UNL     1       2.457   6.484  18.655  0.00  0.00    +0.000 A 
ATOM      6  N   UNL     1       1.853   6.078  19.744  0.00  0.00    +0.000 NA
ATOM      7  C   UNL     1       2.091   4.737  20.088  0.00  0.00    +0.000 A 
ATOM      8  N   UNL     1       1.588   4.157  21.169  0.00  0.00    +0.000 NA
ATOM      9  N   UNL     1       2.114   2.906  21.111  0.00  0.00    +0.000 N 
ATOM     10  C   UNL     1       1.819   1.946  22.147  0.00  0.00    +0.000 C 
ATOM     11  C   UNL     1       2.937   2.692  20.031  0.00  0.00    +0.000 A 
ATOM     12  C   UNL     1       2.920   3.877  19.362  0.00  0.00    +0.000 A 
ATOM     13  C   UNL     1       3.564   4.385  18.171  0.00  0.00    +0.000 A 
ATOM     14  N   UNL     1       4.409   3.860  17.331  0.00  0.00    +0.000 NA
ATOM     15  C   UNL     1       4.685   4.928  16.496  0.00  0.00    +0.000 A 
ATOM     16  N   UNL     1       4.011   6.068  16.772  0.00  0.00    +0.000 NA
ATOM     17  N   UNL     1       3.300   5.684  17.857  0.00  0.00    +0.000 N 
ATOM     18  H   UNL     1       1.611   7.767  20.499  0.00  0.00    +0.000 HD
ATOM     19  H   UNL     1       2.714   7.966  17.238  0.00  0.00    +0.000 HD
ENDROOT
BRANCH  15  20
ATOM     20  C   UNL     1       5.683   4.774  15.396  0.00  0.00    +0.000 A 
ATOM     21  C   UNL     1       6.966   5.292  15.431  0.00  0.00    +0.000 A 
ATOM     22  C   UNL     1       7.589   4.933  14.213  0.00  0.00    +0.000 A 
ATOM     23  C   UNL     1       6.642   4.236  13.498  0.00  0.00    +0.000 A 
ATOM     24  O   UNL     1       5.488   4.127  14.208  0.00  0.00    +0.000 OA
ENDBRANCH  15  20
BRANCH   1  25
ATOM     25  C   UNL     1       1.111   9.755  21.018  0.00  0.00    +0.000 C 
BRANCH  25  26
ATOM     26  C   UNL     1       0.772   9.239  22.415  0.00  0.00    +0.000 C 
BRANCH  26  27
ATOM     27  C   UNL     1      -0.430   9.951  23.047  0.00  0.00    +0.000 C 
BRANCH  27  29
ATOM     28  C   UNL     1      -1.260  12.338  22.999  0.00  0.00    +0.000 C 
ATOM     29  C   UNL     1      -0.902  11.113  22.169  0.00  0.00    +0.000 C 
ENDBRANCH  27  29
ENDBRANCH  26  27
ENDBRANCH  25  26
ENDBRANCH   1  25
TORSDOF 5
ENDMDL
MODEL 8
REMARK VINA RESULT:      -6.7      2.712      7.288
REMARK  Name = 
REMARK  7 active torsions:
REMARK  status: ('A' for Active; 'I' for Inactive)
REMARK    1  A    between atoms: C_1  and  C_2
REMARK    2  A    between atoms: C_2  and  C_3
REMARK    3  A    between atoms: C_3  and  C_4
REMARK    4  A    between atoms: C_4  and  C_5
REMARK    5  A    between atoms: C_5  and  N_6
REMARK    6  A    between atoms: N_14  and  C_15
REMARK    7  A    between atoms: C_20  and  C_21
REMARK                            x       y       z     vdW  Elec       q    Type
REMARK                         _______ _______ _______ _____ _____    ______ ____
ROOT
ATOM      1  N   UNL     1       4.745   5.228  15.906  0.00  0.00    +0.000 N 
ATOM      2  C   UNL     1       4.833   6.588  15.993  0.00  0.00    +0.000 C 
ATOM      3  O   UNL     1       5.444   7.296  15.199  0.00  0.00    +0.000 OA
ATOM      4  N   UNL     1       4.109   7.147  17.026  0.00  0.00    +0.000 N 
ATOM      5  C   UNL     1       3.558   6.505  18.117  0.00  0.00    +0.000 A 
ATOM      6  N   UNL     1       3.811   5.256  18.419  0.00  0.00    +0.000 NA
ATOM      7  C   UNL     1       3.139   4.773  19.554  0.00  0.00    +0.000 A 
ATOM      8  N   UNL     1       3.250   3.528  19.997  0.00  0.00    +0.000 NA
ATOM      9  N   UNL     1       2.405   3.512  21.061  0.00  0.00    +0.000 N 
ATOM     10  C   UNL     1       2.218   2.300  21.821  0.00  0.00    +0.000 C 
ATOM     11  C   UNL     1       1.766   4.708  21.289  0.00  0.00    +0.000 A 
ATOM     12  C   UNL     1       2.244   5.530  20.316  0.00  0.00    +0.000 A 
ATOM     13  C   UNL     1       2.000   6.902  19.929  0.00  0.00    +0.000 A 
ATOM     14  N   UNL     1       1.208   7.824  20.394  0.00  0.00    +0.000 NA
ATOM     15  C   UNL     1       1.407   8.855  19.494  0.00  0.00    +0.000 A 
ATOM     16  N   UNL     1       2.318   8.610  18.525  0.00  0.00    +0.000 NA
ATOM     17  N   UNL     1       2.680   7.344  18.834  0.00  0.00    +0.000 N 
ATOM     18  H   UNL     1       4.388   4.737  16.723  0.00  0.00    +0.000 HD
ATOM     19  H   UNL     1       4.000   8.155  16.955  0.00  0.00    +0.000 HD
ENDROOT
BRANCH  15  20
ATOM     20  C   UNL     1       0.624  10.120  19.626  0.00  0.00    +0.000 A 
ATOM     21  C   UNL     1      -0.218  10.407  20.687  0.00  0.00    +0.000 A 
ATOM     22  C   UNL     1      -0.768  11.687  20.443  0.00  0.00    +0.000 A 
ATOM     23  C   UNL     1      -0.244  12.096  19.238  0.00  0.00    +0.000 A 
ATOM     24  O   UNL     1       0.605  11.159  18.740  0.00  0.00    +0.000 OA
ENDBRANCH  15  20
BRANCH   1  25
ATOM     25  C   UNL     1       5.336   4.430  14.857  0.00  0.00    +0.000 C 
BRANCH  25  26
ATOM     26  C   UNL     1       6.654   3.779  15.275  0.00  0.00    +0.000 C 
BRANCH  26  27
ATOM     27  C   UNL     1       7.596   4.742  16.006  0.00  0.00    +0.000 C 
BRANCH  27  29
ATOM     28  C   UNL     1       7.570   5.768  18.316  0.00  0.00    +0.000 C 
ATOM     29  C   UNL     1       7.591   4.475  17.513  0.00  0.00    +0.000 C 
ENDBRANCH  27  29
ENDBRANCH  26  27
ENDBRANCH  25  26
ENDBRANCH   1  25
TORSDOF 5
ENDMDL
MODEL 9
REMARK VINA RESULT:      -6.7      2.447      7.000
REMARK  Name = 
REMARK  7 active torsions:
REMARK  status: ('A' for Active; 'I' for Inactive)
REMARK    1  A    between atoms: C_1  and  C_2
REMARK    2  A    between atoms: C_2  and  C_3
REMARK    3  A    between atoms: C_3  and  C_4
REMARK    4  A    between atoms: C_4  and  C_5
REMARK    5  A    between atoms: C_5  and  N_6
REMARK    6  A    between atoms: N_14  and  C_15
REMARK    7  A    between atoms: C_20  and  C_21
REMARK                            x       y       z     vdW  Elec       q    Type
REMARK                         _______ _______ _______ _____ _____    ______ ____
ROOT
ATOM      1  N   UNL     1       6.489   5.282  16.188  0.00  0.00    +0.000 N 
ATOM      2  C   UNL     1       6.586   6.561  16.655  0.00  0.00    +0.000 C 
ATOM      3  O   UNL     1       7.546   7.300  16.458  0.00  0.00    +0.000 OA
ATOM      4  N   UNL     1       5.471   7.017  17.327  0.00  0.00    +0.000 N 
ATOM      5  C   UNL     1       4.418   6.271  17.820  0.00  0.00    +0.000 A 
ATOM      6  N   UNL     1       4.426   4.963  17.871  0.00  0.00    +0.000 NA
ATOM      7  C   UNL     1       3.254   4.383  18.385  0.00  0.00    +0.000 A 
ATOM      8  N   UNL     1       3.068   3.074  18.489  0.00  0.00    +0.000 NA
ATOM      9  N   UNL     1       1.805   2.989  18.981  0.00  0.00    +0.000 N 
ATOM     10  C   UNL     1       1.205   1.699  19.220  0.00  0.00    +0.000 C 
ATOM     11  C   UNL     1       1.196   4.205  19.180  0.00  0.00    +0.000 A 
ATOM     12  C   UNL     1       2.136   5.112  18.799  0.00  0.00    +0.000 A 
ATOM     13  C   UNL     1       2.184   6.555  18.714  0.00  0.00    +0.000 A 
ATOM     14  N   UNL     1       1.311   7.485  18.969  0.00  0.00    +0.000 NA
ATOM     15  C   UNL     1       1.983   8.628  18.572  0.00  0.00    +0.000 A 
ATOM     16  N   UNL     1       3.244   8.431  18.123  0.00  0.00    +0.000 NA
ATOM     17  N   UNL     1       3.341   7.085  18.226  0.00  0.00    +0.000 N 
ATOM     18  H   UNL     1       5.748   4.704  16.580  0.00  0.00    +0.000 HD
ATOM     19  H   UNL     1       5.461   8.022  17.477  0.00  0.00    +0.000 HD
ENDROOT
BRANCH  15  20
ATOM     20  C   UNL     1       1.301   9.954  18.640  0.00  0.00    +0.000 A 
ATOM     21  C   UNL     1      -0.071  10.120  18.716  0.00  0.00    +0.000 A 
ATOM     22  C   UNL     1      -0.316  11.513  18.763  0.00  0.00    +0.000 A 
ATOM     23  C   UNL     1       0.920  12.114  18.691  0.00  0.00    +0.000 A 
ATOM     24  O   UNL     1       1.905  11.179  18.625  0.00  0.00    +0.000 OA
ENDBRANCH  15  20
BRANCH   1  25
ATOM     25  C   UNL     1       7.486   4.622  15.378  0.00  0.00    +0.000 C 
BRANCH  25  26
ATOM     26  C   UNL     1       7.129   4.603  13.893  0.00  0.00    +0.000 C 
BRANCH  26  27
ATOM     27  C   UNL     1       5.824   3.854  13.595  0.00  0.00    +0.000 C 
BRANCH  27  29
ATOM     28  C   UNL     1       4.483   3.222  11.549  0.00  0.00    +0.000 C 
ATOM     29  C   UNL     1       5.858   3.226  12.201  0.00  0.00    +0.000 C 
ENDBRANCH  27  29
ENDBRANCH  26  27
ENDBRANCH  25  26
ENDBRANCH   1  25
TORSDOF 5
ENDMDL
