MODEL 1
REMARK VINA RESULT:      -5.6      0.000      0.000
REMARK  Name = 
REMARK  18 active torsions:
REMARK  status: ('A' for Active; 'I' for Inactive)
REMARK    1  A    between atoms: C_1  and  C_2
REMARK    2  A    between atoms: C_2  and  C_3
REMARK    3  A    between atoms: C_3  and  C_4
REMARK    4  A    between atoms: C_4  and  C_5
REMARK    5  A    between atoms: C_5  and  C_6
REMARK    6  A    between atoms: C_6  and  C_7
REMARK    7  A    between atoms: C_7  and  C_8
REMARK    8  A    between atoms: C_8  and  C_9
REMARK    9  A    between atoms: C_9  and  N_10
REMARK   10  A    between atoms: C_11  and  C_13
REMARK   11  A    between atoms: C_13  and  C_14
REMARK   12  A    between atoms: C_14  and  C_15
REMARK   13  A    between atoms: C_15  and  C_16
REMARK   14  A    between atoms: C_16  and  O_17
REMARK   15  A    between atoms: O_17  and  C_18
REMARK   16  A    between atoms: C_18  and  O_20
REMARK   17  A    between atoms: O_20  and  C_21
REMARK   18  A    between atoms: C_21  and  C_22
REMARK                            x       y       z     vdW  Elec       q    Type
REMARK                         _______ _______ _______ _____ _____    ______ ____
ROOT
ATOM      1  N   UNL     1       4.659   2.706  18.825  0.00  0.00    +0.000 N 
ATOM      2  C   UNL     1       4.955   3.906  18.224  0.00  0.00    +0.000 C 
ATOM      3  O   UNL     1       4.583   4.193  17.091  0.00  0.00    +0.000 OA
ATOM      4  H   UNL     1       5.010   2.501  19.753  0.00  0.00    +0.000 HD
ENDROOT
BRANCH   1   5
ATOM      5  C   UNL     1       3.917   1.678  18.112  0.00  0.00    +0.000 C 
BRANCH   5   6
ATOM      6  C   UNL     1       2.422   1.757  18.384  0.00  0.00    +0.000 C 
BRANCH   6   7
ATOM      7  C   UNL     1       2.146   2.395  19.740  0.00  0.00    +0.000 C 
BRANCH   7   8
ATOM      8  C   UNL     1       0.781   3.061  19.749  0.00  0.00    +0.000 C 
BRANCH   8   9
ATOM      9  C   UNL     1       0.854   4.385  20.493  0.00  0.00    +0.000 C 
BRANCH   9  10
ATOM     10  C   UNL     1       2.293   4.872  20.547  0.00  0.00    +0.000 C 
BRANCH  10  11
ATOM     11  C   UNL     1       2.384   6.292  20.016  0.00  0.00    +0.000 C 
BRANCH  11  13
ATOM     12  C   UNL     1       3.066   7.449  17.917  0.00  0.00    +0.000 C 
ATOM     13  C   UNL     1       2.269   6.300  18.499  0.00  0.00    +0.000 C 
ENDBRANCH  11  13
ENDBRANCH  10  11
ENDBRANCH   9  10
ENDBRANCH   8   9
ENDBRANCH   7   8
ENDBRANCH   6   7
ENDBRANCH   5   6
ENDBRANCH   1   5
BRANCH   2  14
ATOM     14  C   UNL     1       5.773   4.880  19.049  0.00  0.00    +0.000 C 
BRANCH  14  15
ATOM     15  C   UNL     1       7.166   5.119  18.477  0.00  0.00    +0.000 C 
BRANCH  15  16
ATOM     16  C   UNL     1       7.300   6.514  17.858  0.00  0.00    +0.000 C 
BRANCH  16  17
ATOM     17  C   UNL     1       7.302   6.469  16.329  0.00  0.00    +0.000 C 
BRANCH  17  18
ATOM     18  O   UNL     1       7.119   5.132  15.832  0.00  0.00    +0.000 OA
BRANCH  18  19
ATOM     19  C   UNL     1       7.172   4.998  14.478  0.00  0.00    +0.000 C 
ATOM     20  O   UNL     1       7.907   5.633  13.746  0.00  0.00    +0.000 OA
BRANCH  19  21
ATOM     21  O   UNL     1       6.314   4.027  14.066  0.00  0.00    +0.000 OA
BRANCH  21  22
ATOM     22  C   UNL     1       6.520   3.560  12.721  0.00  0.00    +0.000 C 
ATOM     23  C   UNL     1       5.191   3.327  12.015  0.00  0.00    +0.000 C 
ENDBRANCH  21  22
ENDBRANCH  19  21
ENDBRANCH  18  19
ENDBRANCH  17  18
ENDBRANCH  16  17
ENDBRANCH  15  16
ENDBRANCH  14  15
ENDBRANCH   2  14
TORSDOF 16
ENDMDL
MODEL 2
REMARK VINA RESULT:      -5.5      2.007      6.722
REMARK  Name = 
REMARK  18 active torsions:
REMARK  status: ('A' for Active; 'I' for Inactive)
REMARK    1  A    between atoms: C_1  and  C_2
REMARK    2  A    between atoms: C_2  and  C_3
REMARK    3  A    between atoms: C_3  and  C_4
REMARK    4  A    between atoms: C_4  and  C_5
REMARK    5  A    between atoms: C_5  and  C_6
REMARK    6  A    between atoms: C_6  and  C_7
REMARK    7  A    between atoms: C_7  and  C_8
REMARK    8  A    between atoms: C_8  and  C_9
REMARK    9  A    between atoms: C_9  and  N_10
REMARK   10  A    between atoms: C_11  and  C_13
REMARK   11  A    between atoms: C_13  and  C_14
REMARK   12  A    between atoms: C_14  and  C_15
REMARK   13  A    between atoms: C_15  and  C_16
REMARK   14  A    between atoms: C_16  and  O_17
REMARK   15  A    between atoms: O_17  and  C_18
REMARK   16  A    between atoms: C_18  and  O_20
REMARK   17  A    between atoms: O_20  and  C_21
REMARK   18  A    between atoms: C_21  and  C_22
REMARK                            x       y       z     vdW  Elec       q    Type
REMARK                         _______ _______ _______ _____ _____    ______ ____
ROOT
ATOM      1  N   UNL     1       6.016   4.618  16.306  0.00  0.00    +0.000 N 
ATOM      2  C   UNL     1       6.886   5.681  16.271  0.00  0.00    +0.000 C 
ATOM      3  O   UNL     1       7.707   5.840  15.374  0.00  0.00    +0.000 OA
ATOM      4  H   UNL     1       5.372   4.512  17.081  0.00  0.00    +0.000 HD
ENDROOT
BRANCH   1   5
ATOM      5  C   UNL     1       6.061   3.583  15.285  0.00  0.00    +0.000 C 
BRANCH   5   6
ATOM      6  C   UNL     1       5.655   4.109  13.916  0.00  0.00    +0.000 C 
BRANCH   6   7
ATOM      7  C   UNL     1       6.698   3.753  12.863  0.00  0.00    +0.000 C 
BRANCH   7   8
ATOM      8  C   UNL     1       6.058   3.658  11.489  0.00  0.00    +0.000 C 
BRANCH   8   9
ATOM      9  C   UNL     1       5.168   2.427  11.414  0.00  0.00    +0.000 C 
BRANCH   9  10
ATOM     10  C   UNL     1       3.713   2.844  11.290  0.00  0.00    +0.000 C 
BRANCH  10  11
ATOM     11  C   UNL     1       3.607   4.141  10.505  0.00  0.00    +0.000 C 
BRANCH  11  13
ATOM     12  C   UNL     1       2.108   5.182   8.809  0.00  0.00    +0.000 C 
ATOM     13  C   UNL     1       2.837   3.917   9.212  0.00  0.00    +0.000 C 
ENDBRANCH  11  13
ENDBRANCH  10  11
ENDBRANCH   9  10
ENDBRANCH   8   9
ENDBRANCH   7   8
ENDBRANCH   6   7
ENDBRANCH   5   6
ENDBRANCH   1   5
BRANCH   2  14
ATOM     14  C   UNL     1       6.775   6.670  17.414  0.00  0.00    +0.000 C 
BRANCH  14  15
ATOM     15  C   UNL     1       7.787   6.412  18.524  0.00  0.00    +0.000 C 
BRANCH  15  16
ATOM     16  C   UNL     1       7.220   5.502  19.619  0.00  0.00    +0.000 C 
BRANCH  16  17
ATOM     17  C   UNL     1       5.704   5.337  19.502  0.00  0.00    +0.000 C 
BRANCH  17  18
ATOM     18  O   UNL     1       5.323   3.955  19.383  0.00  0.00    +0.000 OA
BRANCH  18  19
ATOM     19  C   UNL     1       4.129   3.728  18.769  0.00  0.00    +0.000 C 
ATOM     20  O   UNL     1       3.539   4.537  18.078  0.00  0.00    +0.000 OA
BRANCH  19  21
ATOM     21  O   UNL     1       3.710   2.457  19.008  0.00  0.00    +0.000 OA
BRANCH  21  22
ATOM     22  C   UNL     1       2.522   2.061  18.300  0.00  0.00    +0.000 C 
ATOM     23  C   UNL     1       1.284   2.234  19.170  0.00  0.00    +0.000 C 
ENDBRANCH  21  22
ENDBRANCH  19  21
ENDBRANCH  18  19
ENDBRANCH  17  18
ENDBRANCH  16  17
ENDBRANCH  15  16
ENDBRANCH  14  15
ENDBRANCH   2  14
TORSDOF 16
ENDMDL
MODEL 3
REMARK VINA RESULT:      -5.4      1.390      1.756
REMARK  Name = 
REMARK  18 active torsions:
REMARK  status: ('A' for Active; 'I' for Inactive)
REMARK    1  A    between atoms: C_1  and  C_2
REMARK    2  A    between atoms: C_2  and  C_3
REMARK    3  A    between atoms: C_3  and  C_4
REMARK    4  A    between atoms: C_4  and  C_5
REMARK    5  A    between atoms: C_5  and  C_6
REMARK    6  A    between atoms: C_6  and  C_7
REMARK    7  A    between atoms: C_7  and  C_8
REMARK    8  A    between atoms: C_8  and  C_9
REMARK    9  A    between atoms: C_9  and  N_10
REMARK   10  A    between atoms: C_11  and  C_13
REMARK   11  A    between atoms: C_13  and  C_14
REMARK   12  A    between atoms: C_14  and  C_15
REMARK   13  A    between atoms: C_15  and  C_16
REMARK   14  A    between atoms: C_16  and  O_17
REMARK   15  A    between atoms: O_17  and  C_18
REMARK   16  A    between atoms: C_18  and  O_20
REMARK   17  A    between atoms: O_20  and  C_21
REMARK   18  A    between atoms: C_21  and  C_22
REMARK                            x       y       z     vdW  Elec       q    Type
REMARK                         _______ _______ _______ _____ _____    ______ ____
ROOT
ATOM      1  N   UNL     1       4.248   4.042  17.895  0.00  0.00    +0.000 N 
ATOM      2  C   UNL     1       5.109   4.122  18.963  0.00  0.00    +0.000 C 
ATOM      3  O   UNL     1       5.409   3.152  19.650  0.00  0.00    +0.000 OA
ATOM      4  H   UNL     1       4.007   4.875  17.372  0.00  0.00    +0.000 HD
ENDROOT
BRANCH   1   5
ATOM      5  C   UNL     1       3.600   2.786  17.552  0.00  0.00    +0.000 C 
BRANCH   5   6
ATOM      6  C   UNL     1       2.770   2.236  18.703  0.00  0.00    +0.000 C 
BRANCH   6   7
ATOM      7  C   UNL     1       1.296   2.587  18.530  0.00  0.00    +0.000 C 
BRANCH   7   8
ATOM      8  C   UNL     1       0.722   3.135  19.825  0.00  0.00    +0.000 C 
BRANCH   8   9
ATOM      9  C   UNL     1       1.772   3.078  20.924  0.00  0.00    +0.000 C 
BRANCH   9  10
ATOM     10  C   UNL     1       2.265   4.478  21.244  0.00  0.00    +0.000 C 
BRANCH  10  11
ATOM     11  C   UNL     1       1.463   5.505  20.463  0.00  0.00    +0.000 C 
BRANCH  11  13
ATOM     12  C   UNL     1       2.282   7.042  18.680  0.00  0.00    +0.000 C 
ATOM     13  C   UNL     1       2.318   6.728  20.162  0.00  0.00    +0.000 C 
ENDBRANCH  11  13
ENDBRANCH  10  11
ENDBRANCH   9  10
ENDBRANCH   8   9
ENDBRANCH   7   8
ENDBRANCH   6   7
ENDBRANCH   5   6
ENDBRANCH   1   5
BRANCH   2  14
ATOM     14  C   UNL     1       5.687   5.494  19.251  0.00  0.00    +0.000 C 
BRANCH  14  15
ATOM     15  C   UNL     1       7.203   5.478  19.416  0.00  0.00    +0.000 C 
BRANCH  15  16
ATOM     16  C   UNL     1       7.890   6.500  18.505  0.00  0.00    +0.000 C 
BRANCH  16  17
ATOM     17  C   UNL     1       6.914   7.139  17.516  0.00  0.00    +0.000 C 
BRANCH  17  18
ATOM     18  O   UNL     1       6.822   6.389  16.292  0.00  0.00    +0.000 OA
BRANCH  18  19
ATOM     19  C   UNL     1       5.581   6.323  15.737  0.00  0.00    +0.000 C 
ATOM     20  O   UNL     1       4.562   6.722  16.267  0.00  0.00    +0.000 OA
BRANCH  19  21
ATOM     21  O   UNL     1       5.649   5.783  14.491  0.00  0.00    +0.000 OA
BRANCH  21  22
ATOM     22  C   UNL     1       5.612   4.346  14.444  0.00  0.00    +0.000 C 
ATOM     23  C   UNL     1       6.483   3.814  13.315  0.00  0.00    +0.000 C 
ENDBRANCH  21  22
ENDBRANCH  19  21
ENDBRANCH  18  19
ENDBRANCH  17  18
ENDBRANCH  16  17
ENDBRANCH  15  16
ENDBRANCH  14  15
ENDBRANCH   2  14
TORSDOF 16
ENDMDL
MODEL 4
REMARK VINA RESULT:      -5.4      2.435      7.023
REMARK  Name = 
REMARK  18 active torsions:
REMARK  status: ('A' for Active; 'I' for Inactive)
REMARK    1  A    between atoms: C_1  and  C_2
REMARK    2  A    between atoms: C_2  and  C_3
REMARK    3  A    between atoms: C_3  and  C_4
REMARK    4  A    between atoms: C_4  and  C_5
REMARK    5  A    between atoms: C_5  and  C_6
REMARK    6  A    between atoms: C_6  and  C_7
REMARK    7  A    between atoms: C_7  and  C_8
REMARK    8  A    between atoms: C_8  and  C_9
REMARK    9  A    between atoms: C_9  and  N_10
REMARK   10  A    between atoms: C_11  and  C_13
REMARK   11  A    between atoms: C_13  and  C_14
REMARK   12  A    between atoms: C_14  and  C_15
REMARK   13  A    between atoms: C_15  and  C_16
REMARK   14  A    between atoms: C_16  and  O_17
REMARK   15  A    between atoms: O_17  and  C_18
REMARK   16  A    between atoms: C_18  and  O_20
REMARK   17  A    between atoms: O_20  and  C_21
REMARK   18  A    between atoms: C_21  and  C_22
REMARK                            x       y       z     vdW  Elec       q    Type
REMARK                         _______ _______ _______ _____ _____    ______ ____
ROOT
ATOM      1  N   UNL     1       4.436   5.083  16.747  0.00  0.00    +0.000 N 
ATOM      2  C   UNL     1       4.630   6.423  16.507  0.00  0.00    +0.000 C 
ATOM      3  O   UNL     1       5.071   6.852  15.447  0.00  0.00    +0.000 OA
ATOM      4  H   UNL     1       4.095   4.772  17.648  0.00  0.00    +0.000 HD
ENDROOT
BRANCH   1   5
ATOM      5  C   UNL     1       4.799   4.087  15.751  0.00  0.00    +0.000 C 
BRANCH   5   6
ATOM      6  C   UNL     1       6.306   3.995  15.554  0.00  0.00    +0.000 C 
BRANCH   6   7
ATOM      7  C   UNL     1       6.680   4.215  14.093  0.00  0.00    +0.000 C 
BRANCH   7   8
ATOM      8  C   UNL     1       5.468   4.027  13.197  0.00  0.00    +0.000 C 
BRANCH   8   9
ATOM      9  C   UNL     1       5.776   3.004  12.116  0.00  0.00    +0.000 C 
BRANCH   9  10
ATOM     10  C   UNL     1       4.509   2.658  11.352  0.00  0.00    +0.000 C 
BRANCH  10  11
ATOM     11  C   UNL     1       3.826   3.927  10.873  0.00  0.00    +0.000 C 
BRANCH  11  13
ATOM     12  C   UNL     1       2.402   4.903   9.075  0.00  0.00    +0.000 C 
ATOM     13  C   UNL     1       2.883   3.619   9.719  0.00  0.00    +0.000 C 
ENDBRANCH  11  13
ENDBRANCH  10  11
ENDBRANCH   9  10
ENDBRANCH   8   9
ENDBRANCH   7   8
ENDBRANCH   6   7
ENDBRANCH   5   6
ENDBRANCH   1   5
BRANCH   2  14
ATOM     14  C   UNL     1       4.258   7.362  17.637  0.00  0.00    +0.000 C 
BRANCH  14  15
ATOM     15  C   UNL     1       2.825   7.872  17.539  0.00  0.00    +0.000 C 
BRANCH  15  16
ATOM     16  C   UNL     1       2.094   7.793  18.883  0.00  0.00    +0.000 C 
BRANCH  16  17
ATOM     17  C   UNL     1       2.603   6.639  19.749  0.00  0.00    +0.000 C 
BRANCH  17  18
ATOM     18  O   UNL     1       2.263   5.359  19.190  0.00  0.00    +0.000 OA
BRANCH  18  19
ATOM     19  C   UNL     1       1.885   4.408  20.089  0.00  0.00    +0.000 C 
ATOM     20  O   UNL     1       2.153   4.430  21.275  0.00  0.00    +0.000 OA
BRANCH  19  21
ATOM     21  O   UNL     1       1.135   3.453  19.478  0.00  0.00    +0.000 OA
BRANCH  21  22
ATOM     22  C   UNL     1       1.421   3.249  18.084  0.00  0.00    +0.000 C 
ATOM     23  C   UNL     1       2.434   2.127  17.893  0.00  0.00    +0.000 C 
ENDBRANCH  21  22
ENDBRANCH  19  21
ENDBRANCH  18  19
ENDBRANCH  17  18
ENDBRANCH  16  17
ENDBRANCH  15  16
ENDBRANCH  14  15
ENDBRANCH   2  14
TORSDOF 16
ENDMDL
MODEL 5
REMARK VINA RESULT:      -5.3      2.315      7.196
REMARK  Name = 
REMARK  18 active torsions:
REMARK  status: ('A' for Active; 'I' for Inactive)
REMARK    1  A    between atoms: C_1  and  C_2
REMARK    2  A    between atoms: C_2  and  C_3
REMARK    3  A    between atoms: C_3  and  C_4
REMARK    4  A    between atoms: C_4  and  C_5
REMARK    5  A    between atoms: C_5  and  C_6
REMARK    6  A    between atoms: C_6  and  C_7
REMARK    7  A    between atoms: C_7  and  C_8
REMARK    8  A    between atoms: C_8  and  C_9
REMARK    9  A    between atoms: C_9  and  N_10
REMARK   10  A    between atoms: C_11  and  C_13
REMARK   11  A    between atoms: C_13  and  C_14
REMARK   12  A    between atoms: C_14  and  C_15
REMARK   13  A    between atoms: C_15  and  C_16
REMARK   14  A    between atoms: C_16  and  O_17
REMARK   15  A    between atoms: O_17  and  C_18
REMARK   16  A    between atoms: C_18  and  O_20
REMARK   17  A    between atoms: O_20  and  C_21
REMARK   18  A    between atoms: C_21  and  C_22
REMARK                            x       y       z     vdW  Elec       q    Type
REMARK                         _______ _______ _______ _____ _____    ______ ____
ROOT
ATOM      1  N   UNL     1       5.187   5.519  16.734  0.00  0.00    +0.000 N 
ATOM      2  C   UNL     1       5.998   5.522  17.843  0.00  0.00    +0.000 C 
ATOM      3  O   UNL     1       7.219   5.615  17.774  0.00  0.00    +0.000 OA
ATOM      4  H   UNL     1       4.185   5.413  16.837  0.00  0.00    +0.000 HD
ENDROOT
BRANCH   1   5
ATOM      5  C   UNL     1       5.753   5.578  15.396  0.00  0.00    +0.000 C 
BRANCH   5   6
ATOM      6  C   UNL     1       6.157   4.203  14.882  0.00  0.00    +0.000 C 
BRANCH   6   7
ATOM      7  C   UNL     1       7.250   4.315  13.826  0.00  0.00    +0.000 C 
BRANCH   7   8
ATOM      8  C   UNL     1       6.642   4.425  12.438  0.00  0.00    +0.000 C 
BRANCH   8   9
ATOM      9  C   UNL     1       6.672   3.070  11.749  0.00  0.00    +0.000 C 
BRANCH   9  10
ATOM     10  C   UNL     1       5.272   2.484  11.695  0.00  0.00    +0.000 C 
BRANCH  10  11
ATOM     11  C   UNL     1       4.256   3.583  11.434  0.00  0.00    +0.000 C 
BRANCH  11  13
ATOM     12  C   UNL     1       2.809   4.243   9.515  0.00  0.00    +0.000 C 
ATOM     13  C   UNL     1       3.207   3.109  10.438  0.00  0.00    +0.000 C 
ENDBRANCH  11  13
ENDBRANCH  10  11
ENDBRANCH   9  10
ENDBRANCH   8   9
ENDBRANCH   7   8
ENDBRANCH   6   7
ENDBRANCH   5   6
ENDBRANCH   1   5
BRANCH   2  14
ATOM     14  C   UNL     1       5.296   5.409  19.182  0.00  0.00    +0.000 C 
BRANCH  14  15
ATOM     15  C   UNL     1       3.777   5.449  19.062  0.00  0.00    +0.000 C 
BRANCH  15  16
ATOM     16  C   UNL     1       3.088   5.209  20.409  0.00  0.00    +0.000 C 
BRANCH  16  17
ATOM     17  C   UNL     1       1.565   5.170  20.279  0.00  0.00    +0.000 C 
BRANCH  17  18
ATOM     18  O   UNL     1       1.136   4.234  19.275  0.00  0.00    +0.000 OA
BRANCH  18  19
ATOM     19  C   UNL     1       1.122   2.928  19.660  0.00  0.00    +0.000 C 
ATOM     20  O   UNL     1       1.004   2.544  20.808  0.00  0.00    +0.000 OA
BRANCH  19  21
ATOM     21  O   UNL     1       1.220   2.115  18.575  0.00  0.00    +0.000 OA
BRANCH  21  22
ATOM     22  C   UNL     1       2.437   2.247  17.820  0.00  0.00    +0.000 C 
ATOM     23  C   UNL     1       3.606   1.601  18.552  0.00  0.00    +0.000 C 
ENDBRANCH  21  22
ENDBRANCH  19  21
ENDBRANCH  18  19
ENDBRANCH  17  18
ENDBRANCH  16  17
ENDBRANCH  15  16
ENDBRANCH  14  15
ENDBRANCH   2  14
TORSDOF 16
ENDMDL
MODEL 6
REMARK VINA RESULT:      -5.2      1.660      3.184
REMARK  Name = 
REMARK  18 active torsions:
REMARK  status: ('A' for Active; 'I' for Inactive)
REMARK    1  A    between atoms: C_1  and  C_2
REMARK    2  A    between atoms: C_2  and  C_3
REMARK    3  A    between atoms: C_3  and  C_4
REMARK    4  A    between atoms: C_4  and  C_5
REMARK    5  A    between atoms: C_5  and  C_6
REMARK    6  A    between atoms: C_6  and  C_7
REMARK    7  A    between atoms: C_7  and  C_8
REMARK    8  A    between atoms: C_8  and  C_9
REMARK    9  A    between atoms: C_9  and  N_10
REMARK   10  A    between atoms: C_11  and  C_13
REMARK   11  A    between atoms: C_13  and  C_14
REMARK   12  A    between atoms: C_14  and  C_15
REMARK   13  A    between atoms: C_15  and  C_16
REMARK   14  A    between atoms: C_16  and  O_17
REMARK   15  A    between atoms: O_17  and  C_18
REMARK   16  A    between atoms: C_18  and  O_20
REMARK   17  A    between atoms: O_20  and  C_21
REMARK   18  A    between atoms: C_21  and  C_22
REMARK                            x       y       z     vdW  Elec       q    Type
REMARK                         _______ _______ _______ _____ _____    ______ ____
ROOT
ATOM      1  N   UNL     1       4.087   6.640  17.666  0.00  0.00    +0.000 N 
ATOM      2  C   UNL     1       5.254   6.043  18.077  0.00  0.00    +0.000 C 
ATOM      3  O   UNL     1       5.414   5.607  19.211  0.00  0.00    +0.000 OA
ATOM      4  H   UNL     1       4.008   7.011  16.726  0.00  0.00    +0.000 HD
ENDROOT
BRANCH   1   5
ATOM      5  C   UNL     1       2.981   6.832  18.590  0.00  0.00    +0.000 C 
BRANCH   5   6
ATOM      6  C   UNL     1       2.174   5.557  18.793  0.00  0.00    +0.000 C 
BRANCH   6   7
ATOM      7  C   UNL     1       1.932   5.294  20.274  0.00  0.00    +0.000 C 
BRANCH   7   8
ATOM      8  C   UNL     1       1.082   4.050  20.464  0.00  0.00    +0.000 C 
BRANCH   8   9
ATOM      9  C   UNL     1       0.880   3.351  19.128  0.00  0.00    +0.000 C 
BRANCH   9  10
ATOM     10  C   UNL     1       1.642   2.037  19.110  0.00  0.00    +0.000 C 
BRANCH  10  11
ATOM     11  C   UNL     1       2.523   1.961  17.875  0.00  0.00    +0.000 C 
BRANCH  11  13
ATOM     12  C   UNL     1       4.355   2.233  19.542  0.00  0.00    +0.000 C 
ATOM     13  C   UNL     1       3.878   2.596  18.151  0.00  0.00    +0.000 C 
ENDBRANCH  11  13
ENDBRANCH  10  11
ENDBRANCH   9  10
ENDBRANCH   8   9
ENDBRANCH   7   8
ENDBRANCH   6   7
ENDBRANCH   5   6
ENDBRANCH   1   5
BRANCH   2  14
ATOM     14  C   UNL     1       6.352   5.941  17.037  0.00  0.00    +0.000 C 
BRANCH  14  15
ATOM     15  C   UNL     1       6.995   4.560  16.985  0.00  0.00    +0.000 C 
BRANCH  15  16
ATOM     16  C   UNL     1       6.464   3.723  15.817  0.00  0.00    +0.000 C 
BRANCH  16  17
ATOM     17  C   UNL     1       5.489   4.510  14.940  0.00  0.00    +0.000 C 
BRANCH  17  18
ATOM     18  O   UNL     1       5.552   4.098  13.564  0.00  0.00    +0.000 OA
BRANCH  18  19
ATOM     19  C   UNL     1       6.737   4.334  12.935  0.00  0.00    +0.000 C 
ATOM     20  O   UNL     1       7.524   5.208  13.245  0.00  0.00    +0.000 OA
BRANCH  19  21
ATOM     21  O   UNL     1       6.931   3.431  11.938  0.00  0.00    +0.000 OA
BRANCH  21  22
ATOM     22  C   UNL     1       5.859   2.491  11.747  0.00  0.00    +0.000 C 
ATOM     23  C   UNL     1       6.372   1.194  11.137  0.00  0.00    +0.000 C 
ENDBRANCH  21  22
ENDBRANCH  19  21
ENDBRANCH  18  19
ENDBRANCH  17  18
ENDBRANCH  16  17
ENDBRANCH  15  16
ENDBRANCH  14  15
ENDBRANCH   2  14
TORSDOF 16
ENDMDL
MODEL 7
REMARK VINA RESULT:      -5.2      5.312      9.076
REMARK  Name = 
REMARK  18 active torsions:
REMARK  status: ('A' for Active; 'I' for Inactive)
REMARK    1  A    between atoms: C_1  and  C_2
REMARK    2  A    between atoms: C_2  and  C_3
REMARK    3  A    between atoms: C_3  and  C_4
REMARK    4  A    between atoms: C_4  and  C_5
REMARK    5  A    between atoms: C_5  and  C_6
REMARK    6  A    between atoms: C_6  and  C_7
REMARK    7  A    between atoms: C_7  and  C_8
REMARK    8  A    between atoms: C_8  and  C_9
REMARK    9  A    between atoms: C_9  and  N_10
REMARK   10  A    between atoms: C_11  and  C_13
REMARK   11  A    between atoms: C_13  and  C_14
REMARK   12  A    between atoms: C_14  and  C_15
REMARK   13  A    between atoms: C_15  and  C_16
REMARK   14  A    between atoms: C_16  and  O_17
REMARK   15  A    between atoms: O_17  and  C_18
REMARK   16  A    between atoms: C_18  and  O_20
REMARK   17  A    between atoms: O_20  and  C_21
REMARK   18  A    between atoms: C_21  and  C_22
REMARK                            x       y       z     vdW  Elec       q    Type
REMARK                         _______ _______ _______ _____ _____    ______ ____
ROOT
ATOM      1  N   UNL     1       8.423   8.186  18.788  0.00  0.00    +0.000 N 
ATOM      2  C   UNL     1       7.843   7.228  17.992  0.00  0.00    +0.000 C 
ATOM      3  O   UNL     1       7.462   7.454  16.848  0.00  0.00    +0.000 OA
ATOM      4  H   UNL     1       8.697   7.961  19.737  0.00  0.00    +0.000 HD
ENDROOT
BRANCH   1   5
ATOM      5  C   UNL     1       8.571   9.555  18.321  0.00  0.00    +0.000 C 
BRANCH   5   6
ATOM      6  C   UNL     1       9.425  10.393  19.261  0.00  0.00    +0.000 C 
BRANCH   6   7
ATOM      7  C   UNL     1      10.401  11.266  18.481  0.00  0.00    +0.000 C 
BRANCH   7   8
ATOM      8  C   UNL     1      11.540  11.724  19.375  0.00  0.00    +0.000 C 
BRANCH   8   9
ATOM      9  C   UNL     1      11.088  12.893  20.235  0.00  0.00    +0.000 C 
BRANCH   9  10
ATOM     10  C   UNL     1      10.943  14.141  19.380  0.00  0.00    +0.000 C 
BRANCH  10  11
ATOM     11  C   UNL     1      12.244  14.427  18.650  0.00  0.00    +0.000 C 
BRANCH  11  13
ATOM     12  C   UNL     1      10.561  15.732  17.356  0.00  0.00    +0.000 C 
ATOM     13  C   UNL     1      11.971  15.179  17.355  0.00  0.00    +0.000 C 
ENDBRANCH  11  13
ENDBRANCH  10  11
ENDBRANCH   9  10
ENDBRANCH   8   9
ENDBRANCH   7   8
ENDBRANCH   6   7
ENDBRANCH   5   6
ENDBRANCH   1   5
BRANCH   2  14
ATOM     14  C   UNL     1       7.700   5.849  18.605  0.00  0.00    +0.000 C 
BRANCH  14  15
ATOM     15  C   UNL     1       7.308   4.784  17.587  0.00  0.00    +0.000 C 
BRANCH  15  16
ATOM     16  C   UNL     1       5.794   4.552  17.552  0.00  0.00    +0.000 C 
BRANCH  16  17
ATOM     17  C   UNL     1       5.184   4.513  18.954  0.00  0.00    +0.000 C 
BRANCH  17  18
ATOM     18  O   UNL     1       5.200   3.186  19.508  0.00  0.00    +0.000 OA
BRANCH  18  19
ATOM     19  C   UNL     1       3.997   2.548  19.537  0.00  0.00    +0.000 C 
ATOM     20  O   UNL     1       3.488   1.986  18.586  0.00  0.00    +0.000 OA
BRANCH  19  21
ATOM     21  O   UNL     1       3.466   2.598  20.787  0.00  0.00    +0.000 OA
BRANCH  21  22
ATOM     22  C   UNL     1       2.031   2.673  20.840  0.00  0.00    +0.000 C 
ATOM     23  C   UNL     1       1.555   4.117  20.740  0.00  0.00    +0.000 C 
ENDBRANCH  21  22
ENDBRANCH  19  21
ENDBRANCH  18  19
ENDBRANCH  17  18
ENDBRANCH  16  17
ENDBRANCH  15  16
ENDBRANCH  14  15
ENDBRANCH   2  14
TORSDOF 16
ENDMDL
MODEL 8
REMARK VINA RESULT:      -5.1      4.361      6.114
REMARK  Name = 
REMARK  18 active torsions:
REMARK  status: ('A' for Active; 'I' for Inactive)
REMARK    1  A    between atoms: C_1  and  C_2
REMARK    2  A    between atoms: C_2  and  C_3
REMARK    3  A    between atoms: C_3  and  C_4
REMARK    4  A    between atoms: C_4  and  C_5
REMARK    5  A    between atoms: C_5  and  C_6
REMARK    6  A    between atoms: C_6  and  C_7
REMARK    7  A    between atoms: C_7  and  C_8
REMARK    8  A    between atoms: C_8  and  C_9
REMARK    9  A    between atoms: C_9  and  N_10
REMARK   10  A    between atoms: C_11  and  C_13
REMARK   11  A    between atoms: C_13  and  C_14
REMARK   12  A    between atoms: C_14  and  C_15
REMARK   13  A    between atoms: C_15  and  C_16
REMARK   14  A    between atoms: C_16  and  O_17
REMARK   15  A    between atoms: O_17  and  C_18
REMARK   16  A    between atoms: C_18  and  O_20
REMARK   17  A    between atoms: O_20  and  C_21
REMARK   18  A    between atoms: C_21  and  C_22
REMARK                            x       y       z     vdW  Elec       q    Type
REMARK                         _______ _______ _______ _____ _____    ______ ____
ROOT
ATOM      1  N   UNL     1       6.465   6.122  18.528  0.00  0.00    +0.000 N 
ATOM      2  C   UNL     1       7.210   6.314  17.390  0.00  0.00    +0.000 C 
ATOM      3  O   UNL     1       7.433   5.418  16.582  0.00  0.00    +0.000 OA
ATOM      4  H   UNL     1       6.329   6.884  19.182  0.00  0.00    +0.000 HD
ENDROOT
BRANCH   1   5
ATOM      5  C   UNL     1       5.936   4.809  18.861  0.00  0.00    +0.000 C 
BRANCH   5   6
ATOM      6  C   UNL     1       4.474   4.661  18.464  0.00  0.00    +0.000 C 
BRANCH   6   7
ATOM      7  C   UNL     1       3.767   6.011  18.474  0.00  0.00    +0.000 C 
BRANCH   7   8
ATOM      8  C   UNL     1       2.828   6.113  19.664  0.00  0.00    +0.000 C 
BRANCH   8   9
ATOM      9  C   UNL     1       2.673   4.751  20.321  0.00  0.00    +0.000 C 
BRANCH   9  10
ATOM     10  C   UNL     1       1.200   4.410  20.470  0.00  0.00    +0.000 C 
BRANCH  10  11
ATOM     11  C   UNL     1       0.916   3.046  19.864  0.00  0.00    +0.000 C 
BRANCH  11  13
ATOM     12  C   UNL     1       2.242   2.034  18.012  0.00  0.00    +0.000 C 
ATOM     13  C   UNL     1       1.189   3.064  18.367  0.00  0.00    +0.000 C 
ENDBRANCH  11  13
ENDBRANCH  10  11
ENDBRANCH   9  10
ENDBRANCH   8   9
ENDBRANCH   7   8
ENDBRANCH   6   7
ENDBRANCH   5   6
ENDBRANCH   1   5
BRANCH   2  14
ATOM     14  C   UNL     1       7.747   7.714  17.174  0.00  0.00    +0.000 C 
BRANCH  14  15
ATOM     15  C   UNL     1       8.276   8.352  18.453  0.00  0.00    +0.000 C 
BRANCH  15  16
ATOM     16  C   UNL     1       8.681   9.815  18.240  0.00  0.00    +0.000 C 
BRANCH  16  17
ATOM     17  C   UNL     1       9.340  10.417  19.482  0.00  0.00    +0.000 C 
BRANCH  17  18
ATOM     18  O   UNL     1      10.576  11.081  19.165  0.00  0.00    +0.000 OA
BRANCH  18  19
ATOM     19  C   UNL     1      10.454  12.239  18.459  0.00  0.00    +0.000 C 
ATOM     20  O   UNL     1      11.116  12.527  17.480  0.00  0.00    +0.000 OA
BRANCH  19  21
ATOM     21  O   UNL     1       9.462  13.008  18.981  0.00  0.00    +0.000 OA
BRANCH  21  22
ATOM     22  C   UNL     1       8.850  13.926  18.059  0.00  0.00    +0.000 C 
ATOM     23  C   UNL     1       7.675  13.276  17.340  0.00  0.00    +0.000 C 
ENDBRANCH  21  22
ENDBRANCH  19  21
ENDBRANCH  18  19
ENDBRANCH  17  18
ENDBRANCH  16  17
ENDBRANCH  15  16
ENDBRANCH  14  15
ENDBRANCH   2  14
TORSDOF 16
ENDMDL
MODEL 9
REMARK VINA RESULT:      -5.1      1.906      3.401
REMARK  Name = 
REMARK  18 active torsions:
REMARK  status: ('A' for Active; 'I' for Inactive)
REMARK    1  A    between atoms: C_1  and  C_2
REMARK    2  A    between atoms: C_2  and  C_3
REMARK    3  A    between atoms: C_3  and  C_4
REMARK    4  A    between atoms: C_4  and  C_5
REMARK    5  A    between atoms: C_5  and  C_6
REMARK    6  A    between atoms: C_6  and  C_7
REMARK    7  A    between atoms: C_7  and  C_8
REMARK    8  A    between atoms: C_8  and  C_9
REMARK    9  A    between atoms: C_9  and  N_10
REMARK   10  A    between atoms: C_11  and  C_13
REMARK   11  A    between atoms: C_13  and  C_14
REMARK   12  A    between atoms: C_14  and  C_15
REMARK   13  A    between atoms: C_15  and  C_16
REMARK   14  A    between atoms: C_16  and  O_17
REMARK   15  A    between atoms: O_17  and  C_18
REMARK   16  A    between atoms: C_18  and  O_20
REMARK   17  A    between atoms: O_20  and  C_21
REMARK   18  A    between atoms: C_21  and  C_22
REMARK                            x       y       z     vdW  Elec       q    Type
REMARK                         _______ _______ _______ _____ _____    ______ ____
ROOT
ATOM      1  N   UNL     1       5.029   5.795  17.219  0.00  0.00    +0.000 N 
ATOM      2  C   UNL     1       6.090   5.398  17.997  0.00  0.00    +0.000 C 
ATOM      3  O   UNL     1       6.084   5.478  19.220  0.00  0.00    +0.000 OA
ATOM      4  H   UNL     1       5.089   5.736  16.209  0.00  0.00    +0.000 HD
ENDROOT
BRANCH   1   5
ATOM      5  C   UNL     1       3.843   6.385  17.819  0.00  0.00    +0.000 C 
BRANCH   5   6
ATOM      6  C   UNL     1       2.687   5.397  17.896  0.00  0.00    +0.000 C 
BRANCH   6   7
ATOM      7  C   UNL     1       3.022   4.107  17.157  0.00  0.00    +0.000 C 
BRANCH   7   8
ATOM      8  C   UNL     1       2.328   2.923  17.809  0.00  0.00    +0.000 C 
BRANCH   8   9
ATOM      9  C   UNL     1       0.931   3.323  18.257  0.00  0.00    +0.000 C 
BRANCH   9  10
ATOM     10  C   UNL     1       0.732   2.963  19.720  0.00  0.00    +0.000 C 
BRANCH  10  11
ATOM     11  C   UNL     1       0.920   4.193  20.591  0.00  0.00    +0.000 C 
BRANCH  11  13
ATOM     12  C   UNL     1       2.603   2.680  21.634  0.00  0.00    +0.000 C 
ATOM     13  C   UNL     1       2.247   4.121  21.331  0.00  0.00    +0.000 C 
ENDBRANCH  11  13
ENDBRANCH  10  11
ENDBRANCH   9  10
ENDBRANCH   8   9
ENDBRANCH   7   8
ENDBRANCH   6   7
ENDBRANCH   5   6
ENDBRANCH   1   5
BRANCH   2  14
ATOM     14  C   UNL     1       7.289   4.842  17.255  0.00  0.00    +0.000 C 
BRANCH  14  15
ATOM     15  C   UNL     1       6.907   4.107  15.975  0.00  0.00    +0.000 C 
BRANCH  15  16
ATOM     16  C   UNL     1       7.296   4.898  14.722  0.00  0.00    +0.000 C 
BRANCH  16  17
ATOM     17  C   UNL     1       6.200   4.864  13.655  0.00  0.00    +0.000 C 
BRANCH  17  18
ATOM     18  O   UNL     1       5.697   3.533  13.445  0.00  0.00    +0.000 OA
BRANCH  18  19
ATOM     19  C   UNL     1       5.595   3.144  12.144  0.00  0.00    +0.000 C 
ATOM     20  O   UNL     1       6.286   2.291  11.619  0.00  0.00    +0.000 OA
BRANCH  19  21
ATOM     21  O   UNL     1       4.586   3.816  11.528  0.00  0.00    +0.000 OA
BRANCH  21  22
ATOM     22  C   UNL     1       3.713   3.005  10.723  0.00  0.00    +0.000 C 
ATOM     23  C   UNL     1       2.930   3.860   9.736  0.00  0.00    +0.000 C 
ENDBRANCH  21  22
ENDBRANCH  19  21
ENDBRANCH  18  19
ENDBRANCH  17  18
ENDBRANCH  16  17
ENDBRANCH  15  16
ENDBRANCH  14  15
ENDBRANCH   2  14
TORSDOF 16
ENDMDL
