MODEL 1
REMARK VINA RESULT:      -9.5      0.000      0.000
REMARK  Name = 
REMARK  8 active torsions:
REMARK  status: ('A' for Active; 'I' for Inactive)
REMARK    1  A    between atoms: C_1  and  O_2
REMARK    2  A    between atoms: O_2  and  C_3
REMARK    3  A    between atoms: C_11  and  C_12
REMARK    4  A    between atoms: C_12  and  C_13
REMARK    5  A    between atoms: C_13  and  N_14
REMARK    6  A    between atoms: C_17  and  N_18
REMARK    7  A    between atoms: N_18  and  C_19
REMARK    8  A    between atoms: C_19  and  C_20
REMARK                            x       y       z     vdW  Elec       q    Type
REMARK                         _______ _______ _______ _____ _____    ______ ____
ROOT
ATOM      1  N   UNL     1       3.053   2.862  18.718  0.00  0.00    +0.000 NA
ATOM      2  C   UNL     1       3.658   3.064  20.046  0.00  0.00    +0.000 C 
ATOM      3  C   UNL     1       2.605   3.215  21.153  0.00  0.00    +0.000 C 
ATOM      4  C   UNL     1       1.628   4.360  20.861  0.00  0.00    +0.000 C 
ATOM      5  C   UNL     1       1.013   4.089  19.480  0.00  0.00    +0.000 C 
ATOM      6  C   UNL     1       2.078   3.921  18.393  0.00  0.00    +0.000 C 
ENDROOT
BRANCH   4   7
ATOM      7  N   UNL     1       2.374   5.617  20.993  0.00  0.00    +0.000 NA
ATOM      8  H   UNL     1       3.367   5.410  21.130  0.00  0.00    +0.000 HD
BRANCH   7   9
ATOM      9  C   UNL     1       2.304   6.498  19.831  0.00  0.00    +0.000 C 
BRANCH   9  10
ATOM     10  C   UNL     1       1.662   7.806  20.248  0.00  0.00    +0.000 A 
ATOM     11  C   UNL     1       1.494   8.157  21.580  0.00  0.00    +0.000 A 
ATOM     12  C   UNL     1       0.844   9.359  21.882  0.00  0.00    +0.000 A 
ATOM     13  C   UNL     1       0.402  10.168  20.841  0.00  0.00    +0.000 A 
ATOM     14  C   UNL     1       0.732   9.786  19.539  0.00  0.00    +0.000 A 
ATOM     15  N   UNL     1       1.341   8.636  19.223  0.00  0.00    +0.000 NA
ATOM     16  N   UNL     1       0.445  10.678  18.483  0.00  0.00    +0.000 N 
ATOM     17  C   UNL     1      -0.907  10.942  18.388  0.00  0.00    +0.000 C 
ATOM     18  O   UNL     1      -1.566  10.630  17.399  0.00  0.00    +0.000 OA
ATOM     19  C   UNL     1      -1.516  11.718  19.547  0.00  0.00    +0.000 C 
ATOM     20  S   UNL     1      -0.560  11.642  21.120  0.00  0.00    +0.000 S 
ATOM     21  H   UNL     1       0.876  11.556  18.766  0.00  0.00    +0.000 HD
ENDBRANCH   9  10
ENDBRANCH   7   9
ENDBRANCH   4   7
BRANCH   1  22
ATOM     22  C   UNL     1       4.076   2.792  17.646  0.00  0.00    +0.000 C 
BRANCH  22  23
ATOM     23  C   UNL     1       3.869   3.836  16.533  0.00  0.00    +0.000 C 
BRANCH  23  32
ATOM     24  C   UNL     1       5.638   3.406  12.512  0.00  0.00    +0.000 A 
ATOM     25  C   UNL     1       6.883   3.963  12.263  0.00  0.00    +0.000 A 
ATOM     26  C   UNL     1       7.508   4.731  13.248  0.00  0.00    +0.000 A 
ATOM     27  C   UNL     1       6.931   4.944  14.491  0.00  0.00    +0.000 A 
ATOM     28  N   UNL     1       7.609   5.702  15.365  0.00  0.00    +0.000 NA
ATOM     29  C   UNL     1       7.060   5.899  16.583  0.00  0.00    +0.000 A 
ATOM     30  C   UNL     1       5.855   5.354  16.993  0.00  0.00    +0.000 A 
ATOM     31 CL   UNL     1       5.309   5.704  18.592  0.00  0.00    +0.000 Cl
ATOM     32  C   UNL     1       5.144   4.539  16.098  0.00  0.00    +0.000 A 
ATOM     33  C   UNL     1       5.680   4.352  14.788  0.00  0.00    +0.000 A 
ATOM     34  C   UNL     1       5.048   3.599  13.765  0.00  0.00    +0.000 A 
BRANCH  24  36
ATOM     35  C   UNL     1       3.851   3.334  10.948  0.00  0.00    +0.000 C 
ATOM     36  O   UNL     1       4.896   2.660  11.641  0.00  0.00    +0.000 OA
ENDBRANCH  24  36
ENDBRANCH  23  32
ENDBRANCH  22  23
ENDBRANCH   1  22
TORSDOF 7
ENDMDL
MODEL 2
REMARK VINA RESULT:      -9.2      1.583      1.847
REMARK  Name = 
REMARK  8 active torsions:
REMARK  status: ('A' for Active; 'I' for Inactive)
REMARK    1  A    between atoms: C_1  and  O_2
REMARK    2  A    between atoms: O_2  and  C_3
REMARK    3  A    between atoms: C_11  and  C_12
REMARK    4  A    between atoms: C_12  and  C_13
REMARK    5  A    between atoms: C_13  and  N_14
REMARK    6  A    between atoms: C_17  and  N_18
REMARK    7  A    between atoms: N_18  and  C_19
REMARK    8  A    between atoms: C_19  and  C_20
REMARK                            x       y       z     vdW  Elec       q    Type
REMARK                         _______ _______ _______ _____ _____    ______ ____
ROOT
ATOM      1  N   UNL     1       3.109   2.674  18.669  0.00  0.00    +0.000 NA
ATOM      2  C   UNL     1       3.722   2.988  19.970  0.00  0.00    +0.000 C 
ATOM      3  C   UNL     1       2.689   3.075  21.101  0.00  0.00    +0.000 C 
ATOM      4  C   UNL     1       1.591   4.100  20.796  0.00  0.00    +0.000 C 
ATOM      5  C   UNL     1       0.972   3.713  19.445  0.00  0.00    +0.000 C 
ATOM      6  C   UNL     1       2.020   3.614  18.334  0.00  0.00    +0.000 C 
ENDROOT
BRANCH   4   7
ATOM      7  N   UNL     1       2.206   5.432  20.861  0.00  0.00    +0.000 NA
ATOM      8  H   UNL     1       2.568   5.684  19.937  0.00  0.00    +0.000 HD
BRANCH   7   9
ATOM      9  C   UNL     1       1.298   6.509  21.243  0.00  0.00    +0.000 C 
BRANCH   9  10
ATOM     10  C   UNL     1       1.479   7.665  20.279  0.00  0.00    +0.000 A 
ATOM     11  C   UNL     1       2.168   7.531  19.083  0.00  0.00    +0.000 A 
ATOM     12  C   UNL     1       2.337   8.659  18.272  0.00  0.00    +0.000 A 
ATOM     13  C   UNL     1       1.797   9.873  18.685  0.00  0.00    +0.000 A 
ATOM     14  C   UNL     1       1.015   9.875  19.840  0.00  0.00    +0.000 A 
ATOM     15  N   UNL     1       0.849   8.812  20.640  0.00  0.00    +0.000 NA
ATOM     16  N   UNL     1       0.318  11.055  20.180  0.00  0.00    +0.000 N 
ATOM     17  C   UNL     1       1.177  12.114  20.394  0.00  0.00    +0.000 C 
ATOM     18  O   UNL     1       1.273  12.666  21.487  0.00  0.00    +0.000 OA
ATOM     19  C   UNL     1       1.937  12.611  19.173  0.00  0.00    +0.000 C 
ATOM     20  S   UNL     1       2.079  11.393  17.798  0.00  0.00    +0.000 S 
ATOM     21  H   UNL     1      -0.206  11.292  19.340  0.00  0.00    +0.000 HD
ENDBRANCH   9  10
ENDBRANCH   7   9
ENDBRANCH   4   7
BRANCH   1  22
ATOM     22  C   UNL     1       4.105   2.667  17.570  0.00  0.00    +0.000 C 
BRANCH  22  23
ATOM     23  C   UNL     1       3.886   3.789  16.538  0.00  0.00    +0.000 C 
BRANCH  23  32
ATOM     24  C   UNL     1       5.864   3.541  12.599  0.00  0.00    +0.000 A 
ATOM     25  C   UNL     1       7.094   4.158  12.425  0.00  0.00    +0.000 A 
ATOM     26  C   UNL     1       7.636   4.927  13.457  0.00  0.00    +0.000 A 
ATOM     27  C   UNL     1       6.991   5.082  14.676  0.00  0.00    +0.000 A 
ATOM     28  N   UNL     1       7.592   5.846  15.599  0.00  0.00    +0.000 NA
ATOM     29  C   UNL     1       6.976   5.987  16.793  0.00  0.00    +0.000 A 
ATOM     30  C   UNL     1       5.779   5.380  17.131  0.00  0.00    +0.000 A 
ATOM     31 CL   UNL     1       5.141   5.664  18.709  0.00  0.00    +0.000 Cl
ATOM     32  C   UNL     1       5.149   4.558  16.183  0.00  0.00    +0.000 A 
ATOM     33  C   UNL     1       5.755   4.429  14.897  0.00  0.00    +0.000 A 
ATOM     34  C   UNL     1       5.207   3.675  13.826  0.00  0.00    +0.000 A 
BRANCH  24  36
ATOM     35  C   UNL     1       5.771   1.526  11.343  0.00  0.00    +0.000 C 
ATOM     36  O   UNL     1       5.199   2.786  11.676  0.00  0.00    +0.000 OA
ENDBRANCH  24  36
ENDBRANCH  23  32
ENDBRANCH  22  23
ENDBRANCH   1  22
TORSDOF 7
ENDMDL
MODEL 3
REMARK VINA RESULT:      -8.9      3.394      6.052
REMARK  Name = 
REMARK  8 active torsions:
REMARK  status: ('A' for Active; 'I' for Inactive)
REMARK    1  A    between atoms: C_1  and  O_2
REMARK    2  A    between atoms: O_2  and  C_3
REMARK    3  A    between atoms: C_11  and  C_12
REMARK    4  A    between atoms: C_12  and  C_13
REMARK    5  A    between atoms: C_13  and  N_14
REMARK    6  A    between atoms: C_17  and  N_18
REMARK    7  A    between atoms: N_18  and  C_19
REMARK    8  A    between atoms: C_19  and  C_20
REMARK                            x       y       z     vdW  Elec       q    Type
REMARK                         _______ _______ _______ _____ _____    ______ ____
ROOT
ATOM      1  N   UNL     1       1.967   9.002  19.130  0.00  0.00    +0.000 NA
ATOM      2  C   UNL     1       1.476  10.008  18.173  0.00  0.00    +0.000 C 
ATOM      3  C   UNL     1       1.190  11.360  18.839  0.00  0.00    +0.000 C 
ATOM      4  C   UNL     1       0.192  11.230  19.994  0.00  0.00    +0.000 C 
ATOM      5  C   UNL     1       0.761  10.189  20.969  0.00  0.00    +0.000 C 
ATOM      6  C   UNL     1       1.058   8.854  20.283  0.00  0.00    +0.000 C 
ENDROOT
BRANCH   4   7
ATOM      7  N   UNL     1      -1.116  10.910  19.408  0.00  0.00    +0.000 NA
ATOM      8  H   UNL     1      -1.750  10.593  20.147  0.00  0.00    +0.000 HD
BRANCH   7   9
ATOM      9  C   UNL     1      -1.788  12.031  18.757  0.00  0.00    +0.000 C 
BRANCH   9  10
ATOM     10  C   UNL     1      -3.128  12.254  19.428  0.00  0.00    +0.000 A 
ATOM     11  C   UNL     1      -3.283  13.112  20.506  0.00  0.00    +0.000 A 
ATOM     12  C   UNL     1      -4.543  13.223  21.103  0.00  0.00    +0.000 A 
ATOM     13  C   UNL     1      -5.602  12.481  20.588  0.00  0.00    +0.000 A 
ATOM     14  C   UNL     1      -5.371  11.745  19.425  0.00  0.00    +0.000 A 
ATOM     15  N   UNL     1      -4.172  11.613  18.843  0.00  0.00    +0.000 NA
ATOM     16  N   UNL     1      -6.471  11.127  18.791  0.00  0.00    +0.000 N 
ATOM     17  C   UNL     1      -7.086  10.207  19.615  0.00  0.00    +0.000 C 
ATOM     18  O   UNL     1      -7.125   9.009  19.343  0.00  0.00    +0.000 OA
ATOM     19  C   UNL     1      -7.789  10.775  20.840  0.00  0.00    +0.000 C 
ATOM     20  S   UNL     1      -7.206  12.442  21.364  0.00  0.00    +0.000 S 
ATOM     21  H   UNL     1      -7.147  11.876  18.664  0.00  0.00    +0.000 HD
ENDBRANCH   9  10
ENDBRANCH   7   9
ENDBRANCH   4   7
BRANCH   1  22
ATOM     22  C   UNL     1       2.169   7.678  18.492  0.00  0.00    +0.000 C 
BRANCH  22  23
ATOM     23  C   UNL     1       2.573   6.574  19.486  0.00  0.00    +0.000 C 
BRANCH  23  32
ATOM     24  C   UNL     1       5.928   6.054  16.664  0.00  0.00    +0.000 A 
ATOM     25  C   UNL     1       6.067   4.843  16.002  0.00  0.00    +0.000 A 
ATOM     26  C   UNL     1       5.213   3.782  16.311  0.00  0.00    +0.000 A 
ATOM     27  C   UNL     1       4.202   3.902  17.254  0.00  0.00    +0.000 A 
ATOM     28  N   UNL     1       3.440   2.823  17.482  0.00  0.00    +0.000 NA
ATOM     29  C   UNL     1       2.444   2.939  18.386  0.00  0.00    +0.000 A 
ATOM     30  C   UNL     1       2.147   4.102  19.076  0.00  0.00    +0.000 A 
ATOM     31 CL   UNL     1       0.828   4.071  20.190  0.00  0.00    +0.000 Cl
ATOM     32  C   UNL     1       2.921   5.247  18.831  0.00  0.00    +0.000 A 
ATOM     33  C   UNL     1       4.009   5.139  17.914  0.00  0.00    +0.000 A 
ATOM     34  C   UNL     1       4.905   6.196  17.608  0.00  0.00    +0.000 A 
BRANCH  24  36
ATOM     35  C   UNL     1       7.600   7.493  17.547  0.00  0.00    +0.000 C 
ATOM     36  O   UNL     1       6.702   7.165  16.492  0.00  0.00    +0.000 OA
ENDBRANCH  24  36
ENDBRANCH  23  32
ENDBRANCH  22  23
ENDBRANCH   1  22
TORSDOF 7
ENDMDL
MODEL 4
REMARK VINA RESULT:      -8.8      1.455      1.737
REMARK  Name = 
REMARK  8 active torsions:
REMARK  status: ('A' for Active; 'I' for Inactive)
REMARK    1  A    between atoms: C_1  and  O_2
REMARK    2  A    between atoms: O_2  and  C_3
REMARK    3  A    between atoms: C_11  and  C_12
REMARK    4  A    between atoms: C_12  and  C_13
REMARK    5  A    between atoms: C_13  and  N_14
REMARK    6  A    between atoms: C_17  and  N_18
REMARK    7  A    between atoms: N_18  and  C_19
REMARK    8  A    between atoms: C_19  and  C_20
REMARK                            x       y       z     vdW  Elec       q    Type
REMARK                         _______ _______ _______ _____ _____    ______ ____
ROOT
ATOM      1  N   UNL     1       3.189   3.004  18.667  0.00  0.00    +0.000 NA
ATOM      2  C   UNL     1       3.837   3.460  19.908  0.00  0.00    +0.000 C 
ATOM      3  C   UNL     1       2.832   3.685  21.046  0.00  0.00    +0.000 C 
ATOM      4  C   UNL     1       1.733   4.678  20.652  0.00  0.00    +0.000 C 
ATOM      5  C   UNL     1       1.079   4.145  19.369  0.00  0.00    +0.000 C 
ATOM      6  C   UNL     1       2.099   3.909  18.253  0.00  0.00    +0.000 C 
ENDROOT
BRANCH   4   7
ATOM      7  N   UNL     1       2.358   6.003  20.548  0.00  0.00    +0.000 NA
ATOM      8  H   UNL     1       3.313   5.957  20.912  0.00  0.00    +0.000 HD
BRANCH   7   9
ATOM      9  C   UNL     1       2.470   6.524  19.190  0.00  0.00    +0.000 C 
BRANCH   9  10
ATOM     10  C   UNL     1       1.936   7.942  19.165  0.00  0.00    +0.000 A 
ATOM     11  C   UNL     1       2.318   8.861  18.198  0.00  0.00    +0.000 A 
ATOM     12  C   UNL     1       1.820  10.166  18.275  0.00  0.00    +0.000 A 
ATOM     13  C   UNL     1       0.949  10.496  19.308  0.00  0.00    +0.000 A 
ATOM     14  C   UNL     1       0.529   9.470  20.155  0.00  0.00    +0.000 A 
ATOM     15  N   UNL     1       1.001   8.216  20.110  0.00  0.00    +0.000 NA
ATOM     16  N   UNL     1      -0.484   9.747  21.099  0.00  0.00    +0.000 N 
ATOM     17  C   UNL     1      -0.102  10.733  21.985  0.00  0.00    +0.000 C 
ATOM     18  O   UNL     1       0.017  10.519  23.189  0.00  0.00    +0.000 OA
ATOM     19  C   UNL     1       0.081  12.124  21.395  0.00  0.00    +0.000 C 
ATOM     20  S   UNL     1       0.376  12.162  19.577  0.00  0.00    +0.000 S 
ATOM     21  H   UNL     1      -1.240  10.149  20.550  0.00  0.00    +0.000 HD
ENDBRANCH   9  10
ENDBRANCH   7   9
ENDBRANCH   4   7
BRANCH   1  22
ATOM     22  C   UNL     1       4.158   2.862  17.552  0.00  0.00    +0.000 C 
BRANCH  22  23
ATOM     23  C   UNL     1       3.953   3.895  16.428  0.00  0.00    +0.000 C 
BRANCH  23  32
ATOM     24  C   UNL     1       5.697   3.393  12.404  0.00  0.00    +0.000 A 
ATOM     25  C   UNL     1       6.946   3.936  12.140  0.00  0.00    +0.000 A 
ATOM     26  C   UNL     1       7.583   4.713  13.111  0.00  0.00    +0.000 A 
ATOM     27  C   UNL     1       7.014   4.948  14.355  0.00  0.00    +0.000 A 
ATOM     28  N   UNL     1       7.704   5.712  15.214  0.00  0.00    +0.000 NA
ATOM     29  C   UNL     1       7.162   5.930  16.432  0.00  0.00    +0.000 A 
ATOM     30  C   UNL     1       5.955   5.402  16.856  0.00  0.00    +0.000 A 
ATOM     31 CL   UNL     1       5.421   5.778  18.453  0.00  0.00    +0.000 Cl
ATOM     32  C   UNL     1       5.233   4.580  15.976  0.00  0.00    +0.000 A 
ATOM     33  C   UNL     1       5.759   4.371  14.667  0.00  0.00    +0.000 A 
ATOM     34  C   UNL     1       5.116   3.609  13.657  0.00  0.00    +0.000 A 
BRANCH  24  36
ATOM     35  C   UNL     1       3.746   3.235  11.057  0.00  0.00    +0.000 C 
ATOM     36  O   UNL     1       4.944   2.642  11.548  0.00  0.00    +0.000 OA
ENDBRANCH  24  36
ENDBRANCH  23  32
ENDBRANCH  22  23
ENDBRANCH   1  22
TORSDOF 7
ENDMDL
MODEL 5
REMARK VINA RESULT:      -8.7      2.950      5.229
REMARK  Name = 
REMARK  8 active torsions:
REMARK  status: ('A' for Active; 'I' for Inactive)
REMARK    1  A    between atoms: C_1  and  O_2
REMARK    2  A    between atoms: O_2  and  C_3
REMARK    3  A    between atoms: C_11  and  C_12
REMARK    4  A    between atoms: C_12  and  C_13
REMARK    5  A    between atoms: C_13  and  N_14
REMARK    6  A    between atoms: C_17  and  N_18
REMARK    7  A    between atoms: N_18  and  C_19
REMARK    8  A    between atoms: C_19  and  C_20
REMARK                            x       y       z     vdW  Elec       q    Type
REMARK                         _______ _______ _______ _____ _____    ______ ____
ROOT
ATOM      1  N   UNL     1       1.419   8.189  19.290  0.00  0.00    +0.000 NA
ATOM      2  C   UNL     1       1.497   8.198  20.760  0.00  0.00    +0.000 C 
ATOM      3  C   UNL     1       0.203   8.704  21.413  0.00  0.00    +0.000 C 
ATOM      4  C   UNL     1      -0.180  10.102  20.917  0.00  0.00    +0.000 C 
ATOM      5  C   UNL     1      -0.269  10.030  19.385  0.00  0.00    +0.000 C 
ATOM      6  C   UNL     1       1.023   9.506  18.753  0.00  0.00    +0.000 C 
ENDROOT
BRANCH   4   7
ATOM      7  N   UNL     1       0.808  11.045  21.457  0.00  0.00    +0.000 NA
ATOM      8  H   UNL     1       1.703  10.909  20.980  0.00  0.00    +0.000 HD
BRANCH   7   9
ATOM      9  C   UNL     1       0.470  12.454  21.283  0.00  0.00    +0.000 C 
BRANCH   9  10
ATOM     10  C   UNL     1      -0.966  12.669  21.716  0.00  0.00    +0.000 A 
ATOM     11  C   UNL     1      -1.361  12.583  23.044  0.00  0.00    +0.000 A 
ATOM     12  C   UNL     1      -2.715  12.742  23.356  0.00  0.00    +0.000 A 
ATOM     13  C   UNL     1      -3.619  12.996  22.329  0.00  0.00    +0.000 A 
ATOM     14  C   UNL     1      -3.104  13.189  21.046  0.00  0.00    +0.000 A 
ATOM     15  N   UNL     1      -1.815  13.029  20.720  0.00  0.00    +0.000 NA
ATOM     16  N   UNL     1      -3.982  13.618  20.026  0.00  0.00    +0.000 N 
ATOM     17  C   UNL     1      -4.999  12.710  19.811  0.00  0.00    +0.000 C 
ATOM     18  O   UNL     1      -5.133  12.120  18.741  0.00  0.00    +0.000 OA
ATOM     19  C   UNL     1      -5.996  12.545  20.949  0.00  0.00    +0.000 C 
ATOM     20  S   UNL     1      -5.378  13.071  22.603  0.00  0.00    +0.000 S 
ATOM     21  H   UNL     1      -4.431  14.447  20.408  0.00  0.00    +0.000 HD
ENDBRANCH   9  10
ENDBRANCH   7   9
ENDBRANCH   4   7
BRANCH   1  22
ATOM     22  C   UNL     1       2.698   7.771  18.666  0.00  0.00    +0.000 C 
BRANCH  22  23
ATOM     23  C   UNL     1       3.375   6.591  19.389  0.00  0.00    +0.000 C 
BRANCH  23  32
ATOM     24  C   UNL     1       6.679   5.918  16.541  0.00  0.00    +0.000 A 
ATOM     25  C   UNL     1       6.628   4.815  15.701  0.00  0.00    +0.000 A 
ATOM     26  C   UNL     1       5.592   3.888  15.837  0.00  0.00    +0.000 A 
ATOM     27  C   UNL     1       4.587   4.042  16.780  0.00  0.00    +0.000 A 
ATOM     28  N   UNL     1       3.641   3.092  16.834  0.00  0.00    +0.000 NA
ATOM     29  C   UNL     1       2.651   3.245  17.740  0.00  0.00    +0.000 A 
ATOM     30  C   UNL     1       2.538   4.324  18.599  0.00  0.00    +0.000 A 
ATOM     31 CL   UNL     1       1.198   4.360  19.687  0.00  0.00    +0.000 Cl
ATOM     32  C   UNL     1       3.507   5.338  18.539  0.00  0.00    +0.000 A 
ATOM     33  C   UNL     1       4.590   5.179  17.623  0.00  0.00    +0.000 A 
ATOM     34  C   UNL     1       5.666   6.095  17.488  0.00  0.00    +0.000 A 
BRANCH  24  36
ATOM     35  C   UNL     1       7.589   7.837  17.605  0.00  0.00    +0.000 C 
ATOM     36  O   UNL     1       7.641   6.887  16.547  0.00  0.00    +0.000 OA
ENDBRANCH  24  36
ENDBRANCH  23  32
ENDBRANCH  22  23
ENDBRANCH   1  22
TORSDOF 7
ENDMDL
MODEL 6
REMARK VINA RESULT:      -8.6      3.425      5.932
REMARK  Name = 
REMARK  8 active torsions:
REMARK  status: ('A' for Active; 'I' for Inactive)
REMARK    1  A    between atoms: C_1  and  O_2
REMARK    2  A    between atoms: O_2  and  C_3
REMARK    3  A    between atoms: C_11  and  C_12
REMARK    4  A    between atoms: C_12  and  C_13
REMARK    5  A    between atoms: C_13  and  N_14
REMARK    6  A    between atoms: C_17  and  N_18
REMARK    7  A    between atoms: N_18  and  C_19
REMARK    8  A    between atoms: C_19  and  C_20
REMARK                            x       y       z     vdW  Elec       q    Type
REMARK                         _______ _______ _______ _____ _____    ______ ____
ROOT
ATOM      1  N   UNL     1       1.970   8.428  19.795  0.00  0.00    +0.000 NA
ATOM      2  C   UNL     1       1.611   9.128  18.550  0.00  0.00    +0.000 C 
ATOM      3  C   UNL     1       1.335  10.621  18.775  0.00  0.00    +0.000 C 
ATOM      4  C   UNL     1       0.238  10.850  19.820  0.00  0.00    +0.000 C 
ATOM      5  C   UNL     1       0.671  10.120  21.099  0.00  0.00    +0.000 C 
ATOM      6  C   UNL     1       0.960   8.637  20.852  0.00  0.00    +0.000 C 
ENDROOT
BRANCH   4   7
ATOM      7  N   UNL     1      -1.031  10.404  19.228  0.00  0.00    +0.000 NA
ATOM      8  H   UNL     1      -1.798  10.617  19.871  0.00  0.00    +0.000 HD
BRANCH   7   9
ATOM      9  C   UNL     1      -1.376  11.046  17.963  0.00  0.00    +0.000 C 
BRANCH   9  10
ATOM     10  C   UNL     1      -2.859  11.356  17.963  0.00  0.00    +0.000 A 
ATOM     11  C   UNL     1      -3.677  11.068  16.880  0.00  0.00    +0.000 A 
ATOM     12  C   UNL     1      -5.026  11.434  16.937  0.00  0.00    +0.000 A 
ATOM     13  C   UNL     1      -5.507  12.061  18.083  0.00  0.00    +0.000 A 
ATOM     14  C   UNL     1      -4.635  12.191  19.164  0.00  0.00    +0.000 A 
ATOM     15  N   UNL     1      -3.337  11.862  19.130  0.00  0.00    +0.000 NA
ATOM     16  N   UNL     1      -5.150  12.666  20.391  0.00  0.00    +0.000 N 
ATOM     17  C   UNL     1      -5.674  13.936  20.269  0.00  0.00    +0.000 C 
ATOM     18  O   UNL     1      -5.205  14.897  20.874  0.00  0.00    +0.000 OA
ATOM     19  C   UNL     1      -6.922  14.061  19.407  0.00  0.00    +0.000 C 
ATOM     20  S   UNL     1      -7.169  12.694  18.197  0.00  0.00    +0.000 S 
ATOM     21  H   UNL     1      -5.943  12.059  20.586  0.00  0.00    +0.000 HD
ENDBRANCH   9  10
ENDBRANCH   7   9
ENDBRANCH   4   7
BRANCH   1  22
ATOM     22  C   UNL     1       2.160   6.973  19.581  0.00  0.00    +0.000 C 
BRANCH  22  23
ATOM     23  C   UNL     1       2.284   6.583  18.097  0.00  0.00    +0.000 C 
BRANCH  23  32
ATOM     24  C   UNL     1       6.564   6.857  17.050  0.00  0.00    +0.000 A 
ATOM     25  C   UNL     1       7.243   5.703  16.690  0.00  0.00    +0.000 A 
ATOM     26  C   UNL     1       6.595   4.467  16.761  0.00  0.00    +0.000 A 
ATOM     27  C   UNL     1       5.273   4.352  17.164  0.00  0.00    +0.000 A 
ATOM     28  N   UNL     1       4.745   3.120  17.204  0.00  0.00    +0.000 NA
ATOM     29  C   UNL     1       3.453   3.004  17.581  0.00  0.00    +0.000 A 
ATOM     30  C   UNL     1       2.635   4.072  17.907  0.00  0.00    +0.000 A 
ATOM     31 CL   UNL     1       1.003   3.738  18.356  0.00  0.00    +0.000 Cl
ATOM     32  C   UNL     1       3.167   5.370  17.846  0.00  0.00    +0.000 A 
ATOM     33  C   UNL     1       4.542   5.518  17.497  0.00  0.00    +0.000 A 
ATOM     34  C   UNL     1       5.226   6.761  17.445  0.00  0.00    +0.000 A 
BRANCH  24  36
ATOM     35  C   UNL     1       8.143   8.381  17.961  0.00  0.00    +0.000 C 
ATOM     36  O   UNL     1       7.071   8.125  17.060  0.00  0.00    +0.000 OA
ENDBRANCH  24  36
ENDBRANCH  23  32
ENDBRANCH  22  23
ENDBRANCH   1  22
TORSDOF 7
ENDMDL
MODEL 7
REMARK VINA RESULT:      -8.5      4.215      6.263
REMARK  Name = 
REMARK  8 active torsions:
REMARK  status: ('A' for Active; 'I' for Inactive)
REMARK    1  A    between atoms: C_1  and  O_2
REMARK    2  A    between atoms: O_2  and  C_3
REMARK    3  A    between atoms: C_11  and  C_12
REMARK    4  A    between atoms: C_12  and  C_13
REMARK    5  A    between atoms: C_13  and  N_14
REMARK    6  A    between atoms: C_17  and  N_18
REMARK    7  A    between atoms: N_18  and  C_19
REMARK    8  A    between atoms: C_19  and  C_20
REMARK                            x       y       z     vdW  Elec       q    Type
REMARK                         _______ _______ _______ _____ _____    ______ ____
ROOT
ATOM      1  N   UNL     1       1.060   8.590  19.457  0.00  0.00    +0.000 NA
ATOM      2  C   UNL     1       1.170   8.730  20.919  0.00  0.00    +0.000 C 
ATOM      3  C   UNL     1      -0.000   9.517  21.523  0.00  0.00    +0.000 C 
ATOM      4  C   UNL     1      -0.144  10.906  20.890  0.00  0.00    +0.000 C 
ATOM      5  C   UNL     1      -0.277  10.700  19.374  0.00  0.00    +0.000 C 
ATOM      6  C   UNL     1       0.889   9.897  18.793  0.00  0.00    +0.000 C 
ENDROOT
BRANCH   4   7
ATOM      7  N   UNL     1       1.005  11.708  21.329  0.00  0.00    +0.000 NA
ATOM      8  H   UNL     1       1.827  11.454  20.775  0.00  0.00    +0.000 HD
BRANCH   7   9
ATOM      9  C   UNL     1       0.844  13.150  21.170  0.00  0.00    +0.000 C 
BRANCH   9  10
ATOM     10  C   UNL     1       1.974  13.675  20.308  0.00  0.00    +0.000 A 
ATOM     11  C   UNL     1       1.963  13.567  18.925  0.00  0.00    +0.000 A 
ATOM     12  C   UNL     1       3.069  14.029  18.204  0.00  0.00    +0.000 A 
ATOM     13  C   UNL     1       4.136  14.596  18.895  0.00  0.00    +0.000 A 
ATOM     14  C   UNL     1       3.994  14.774  20.272  0.00  0.00    +0.000 A 
ATOM     15  N   UNL     1       2.952  14.328  20.986  0.00  0.00    +0.000 NA
ATOM     16  N   UNL     1       4.988  15.502  20.963  0.00  0.00    +0.000 N 
ATOM     17  C   UNL     1       6.227  14.901  20.860  0.00  0.00    +0.000 C 
ATOM     18  O   UNL     1       6.826  14.466  21.841  0.00  0.00    +0.000 OA
ATOM     19  C   UNL     1       6.846  14.885  19.469  0.00  0.00    +0.000 C 
ATOM     20  S   UNL     1       5.646  15.083  18.085  0.00  0.00    +0.000 S 
ATOM     21  H   UNL     1       5.065  16.377  20.450  0.00  0.00    +0.000 HD
ENDBRANCH   9  10
ENDBRANCH   7   9
ENDBRANCH   4   7
BRANCH   1  22
ATOM     22  C   UNL     1       2.232   7.894  18.874  0.00  0.00    +0.000 C 
BRANCH  22  23
ATOM     23  C   UNL     1       2.694   6.677  19.697  0.00  0.00    +0.000 C 
BRANCH  23  32
ATOM     24  C   UNL     1       5.845   6.252  16.635  0.00  0.00    +0.000 A 
ATOM     25  C   UNL     1       5.854   5.121  15.832  0.00  0.00    +0.000 A 
ATOM     26  C   UNL     1       4.935   4.096  16.070  0.00  0.00    +0.000 A 
ATOM     27  C   UNL     1       3.987   4.177  17.080  0.00  0.00    +0.000 A 
ATOM     28  N   UNL     1       3.155   3.137  17.229  0.00  0.00    +0.000 NA
ATOM     29  C   UNL     1       2.220   3.217  18.200  0.00  0.00    +0.000 A 
ATOM     30  C   UNL     1       2.052   4.308  19.035  0.00  0.00    +0.000 A 
ATOM     31 CL   UNL     1       0.795   4.242  20.216  0.00  0.00    +0.000 Cl
ATOM     32  C   UNL     1       2.901   5.415  18.875  0.00  0.00    +0.000 A 
ATOM     33  C   UNL     1       3.928   5.338  17.887  0.00  0.00    +0.000 A 
ATOM     34  C   UNL     1       4.887   6.356  17.649  0.00  0.00    +0.000 A 
BRANCH  24  36
ATOM     35  C   UNL     1       7.595   7.516  17.629  0.00  0.00    +0.000 C 
ATOM     36  O   UNL     1       6.696   7.317  16.544  0.00  0.00    +0.000 OA
ENDBRANCH  24  36
ENDBRANCH  23  32
ENDBRANCH  22  23
ENDBRANCH   1  22
TORSDOF 7
ENDMDL
MODEL 8
REMARK VINA RESULT:      -8.4      3.518      6.155
REMARK  Name = 
REMARK  8 active torsions:
REMARK  status: ('A' for Active; 'I' for Inactive)
REMARK    1  A    between atoms: C_1  and  O_2
REMARK    2  A    between atoms: O_2  and  C_3
REMARK    3  A    between atoms: C_11  and  C_12
REMARK    4  A    between atoms: C_12  and  C_13
REMARK    5  A    between atoms: C_13  and  N_14
REMARK    6  A    between atoms: C_17  and  N_18
REMARK    7  A    between atoms: N_18  and  C_19
REMARK    8  A    between atoms: C_19  and  C_20
REMARK                            x       y       z     vdW  Elec       q    Type
REMARK                         _______ _______ _______ _____ _____    ______ ____
ROOT
ATOM      1  N   UNL     1       1.841   8.815  19.284  0.00  0.00    +0.000 NA
ATOM      2  C   UNL     1       1.501   9.786  18.230  0.00  0.00    +0.000 C 
ATOM      3  C   UNL     1       1.455  11.228  18.754  0.00  0.00    +0.000 C 
ATOM      4  C   UNL     1       0.475  11.383  19.921  0.00  0.00    +0.000 C 
ATOM      5  C   UNL     1       0.887  10.366  20.996  0.00  0.00    +0.000 C 
ATOM      6  C   UNL     1       0.946   8.937  20.451  0.00  0.00    +0.000 C 
ENDROOT
BRANCH   4   7
ATOM      7  N   UNL     1      -0.881  11.226  19.379  0.00  0.00    +0.000 NA
ATOM      8  H   UNL     1      -1.462  10.725  20.056  0.00  0.00    +0.000 HD
BRANCH   7   9
ATOM      9  C   UNL     1      -1.579  12.477  19.099  0.00  0.00    +0.000 C 
BRANCH   9  10
ATOM     10  C   UNL     1      -3.026  12.334  19.523  0.00  0.00    +0.000 A 
ATOM     11  C   UNL     1      -4.013  11.890  18.654  0.00  0.00    +0.000 A 
ATOM     12  C   UNL     1      -5.335  11.836  19.107  0.00  0.00    +0.000 A 
ATOM     13  C   UNL     1      -5.616  12.213  20.416  0.00  0.00    +0.000 A 
ATOM     14  C   UNL     1      -4.538  12.523  21.246  0.00  0.00    +0.000 A 
ATOM     15  N   UNL     1      -3.265  12.595  20.833  0.00  0.00    +0.000 NA
ATOM     16  N   UNL     1      -4.786  12.739  22.620  0.00  0.00    +0.000 N 
ATOM     17  C   UNL     1      -5.641  13.803  22.824  0.00  0.00    +0.000 C 
ATOM     18  O   UNL     1      -5.291  14.816  23.424  0.00  0.00    +0.000 OA
ATOM     19  C   UNL     1      -7.070  13.611  22.337  0.00  0.00    +0.000 C 
ATOM     20  S   UNL     1      -7.281  12.317  21.043  0.00  0.00    +0.000 S 
ATOM     21  H   UNL     1      -5.299  11.913  22.919  0.00  0.00    +0.000 HD
ENDBRANCH   9  10
ENDBRANCH   7   9
ENDBRANCH   4   7
BRANCH   1  22
ATOM     22  C   UNL     1       1.809   7.418  18.786  0.00  0.00    +0.000 C 
BRANCH  22  23
ATOM     23  C   UNL     1       2.787   6.484  19.521  0.00  0.00    +0.000 C 
BRANCH  23  32
ATOM     24  C   UNL     1       6.089   6.019  16.628  0.00  0.00    +0.000 A 
ATOM     25  C   UNL     1       6.177   4.847  15.892  0.00  0.00    +0.000 A 
ATOM     26  C   UNL     1       5.288   3.800  16.147  0.00  0.00    +0.000 A 
ATOM     27  C   UNL     1       4.293   3.897  17.108  0.00  0.00    +0.000 A 
ATOM     28  N   UNL     1       3.495   2.834  17.281  0.00  0.00    +0.000 NA
ATOM     29  C   UNL     1       2.514   2.930  18.204  0.00  0.00    +0.000 A 
ATOM     30  C   UNL     1       2.267   4.058  18.967  0.00  0.00    +0.000 A 
ATOM     31 CL   UNL     1       0.961   4.005  20.094  0.00  0.00    +0.000 Cl
ATOM     32  C   UNL     1       3.079   5.188  18.782  0.00  0.00    +0.000 A 
ATOM     33  C   UNL     1       4.152   5.098  17.845  0.00  0.00    +0.000 A 
ATOM     34  C   UNL     1       5.082   6.139  17.592  0.00  0.00    +0.000 A 
BRANCH  24  36
ATOM     35  C   UNL     1       7.559   7.549  17.696  0.00  0.00    +0.000 C 
ATOM     36  O   UNL     1       6.901   7.110  16.513  0.00  0.00    +0.000 OA
ENDBRANCH  24  36
ENDBRANCH  23  32
ENDBRANCH  22  23
ENDBRANCH   1  22
TORSDOF 7
ENDMDL
MODEL 9
REMARK VINA RESULT:      -8.3      3.477      5.733
REMARK  Name = 
REMARK  8 active torsions:
REMARK  status: ('A' for Active; 'I' for Inactive)
REMARK    1  A    between atoms: C_1  and  O_2
REMARK    2  A    between atoms: O_2  and  C_3
REMARK    3  A    between atoms: C_11  and  C_12
REMARK    4  A    between atoms: C_12  and  C_13
REMARK    5  A    between atoms: C_13  and  N_14
REMARK    6  A    between atoms: C_17  and  N_18
REMARK    7  A    between atoms: N_18  and  C_19
REMARK    8  A    between atoms: C_19  and  C_20
REMARK                            x       y       z     vdW  Elec       q    Type
REMARK                         _______ _______ _______ _____ _____    ______ ____
ROOT
ATOM      1  N   UNL     1       1.173   8.329  20.088  0.00  0.00    +0.000 NA
ATOM      2  C   UNL     1       1.130   8.534  21.545  0.00  0.00    +0.000 C 
ATOM      3  C   UNL     1      -0.214   9.104  22.018  0.00  0.00    +0.000 C 
ATOM      4  C   UNL     1      -0.559  10.419  21.310  0.00  0.00    +0.000 C 
ATOM      5  C   UNL     1      -0.521  10.144  19.800  0.00  0.00    +0.000 C 
ATOM      6  C   UNL     1       0.820   9.558  19.350  0.00  0.00    +0.000 C 
ENDROOT
BRANCH   4   7
ATOM      7  N   UNL     1       0.379  11.439  21.799  0.00  0.00    +0.000 NA
ATOM      8  H   UNL     1       1.266  11.351  21.297  0.00  0.00    +0.000 HD
BRANCH   7   9
ATOM      9  C   UNL     1      -0.058  12.818  21.604  0.00  0.00    +0.000 C 
BRANCH   9  10
ATOM     10  C   UNL     1      -1.534  12.913  21.930  0.00  0.00    +0.000 A 
ATOM     11  C   UNL     1      -2.022  12.733  23.216  0.00  0.00    +0.000 A 
ATOM     12  C   UNL     1      -3.405  12.784  23.426  0.00  0.00    +0.000 A 
ATOM     13  C   UNL     1      -4.243  13.028  22.342  0.00  0.00    +0.000 A 
ATOM     14  C   UNL     1      -3.647  13.320  21.115  0.00  0.00    +0.000 A 
ATOM     15  N   UNL     1      -2.328  13.264  20.886  0.00  0.00    +0.000 NA
ATOM     16  N   UNL     1      -4.472  13.739  20.048  0.00  0.00    +0.000 N 
ATOM     17  C   UNL     1      -5.402  12.776  19.712  0.00  0.00    +0.000 C 
ATOM     18  O   UNL     1      -5.411  12.233  18.609  0.00  0.00    +0.000 OA
ATOM     19  C   UNL     1      -6.469  12.488  20.758  0.00  0.00    +0.000 C 
ATOM     20  S   UNL     1      -6.019  12.970  22.478  0.00  0.00    +0.000 S 
ATOM     21  H   UNL     1      -5.007  14.516  20.429  0.00  0.00    +0.000 HD
ENDBRANCH   9  10
ENDBRANCH   7   9
ENDBRANCH   4   7
BRANCH   1  22
ATOM     22  C   UNL     1       2.501   7.849  19.632  0.00  0.00    +0.000 C 
BRANCH  22  23
ATOM     23  C   UNL     1       2.418   6.740  18.567  0.00  0.00    +0.000 C 
BRANCH  23  32
ATOM     24  C   UNL     1       6.662   6.643  17.357  0.00  0.00    +0.000 A 
ATOM     25  C   UNL     1       7.376   5.463  17.503  0.00  0.00    +0.000 A 
ATOM     26  C   UNL     1       6.776   4.362  18.119  0.00  0.00    +0.000 A 
ATOM     27  C   UNL     1       5.467   4.399  18.577  0.00  0.00    +0.000 A 
ATOM     28  N   UNL     1       4.986   3.291  19.159  0.00  0.00    +0.000 NA
ATOM     29  C   UNL     1       3.707   3.316  19.593  0.00  0.00    +0.000 A 
ATOM     30  C   UNL     1       2.857   4.400  19.458  0.00  0.00    +0.000 A 
ATOM     31 CL   UNL     1       1.248   4.251  20.063  0.00  0.00    +0.000 Cl
ATOM     32  C   UNL     1       3.339   5.559  18.830  0.00  0.00    +0.000 A 
ATOM     33  C   UNL     1       4.701   5.576  18.403  0.00  0.00    +0.000 A 
ATOM     34  C   UNL     1       5.337   6.693  17.801  0.00  0.00    +0.000 A 
BRANCH  24  36
ATOM     35  C   UNL     1       7.902   8.649  17.645  0.00  0.00    +0.000 C 
ATOM     36  O   UNL     1       7.123   7.805  16.806  0.00  0.00    +0.000 OA
ENDBRANCH  24  36
ENDBRANCH  23  32
ENDBRANCH  22  23
ENDBRANCH   1  22
TORSDOF 7
ENDMDL
