MODEL 1
REMARK VINA RESULT:      -7.7      0.000      0.000
REMARK  Name = 
REMARK  10 active torsions:
REMARK  status: ('A' for Active; 'I' for Inactive)
REMARK    1  A    between atoms: N_1  and  C_2
REMARK    2  A    between atoms: C_8  and  O_9
REMARK    3  A    between atoms: O_9  and  C_10
REMARK    4  A    between atoms: C_10  and  C_11
REMARK    5  A    between atoms: C_11  and  N_12
REMARK    6  A    between atoms: N_12  and  S_13
REMARK    7  A    between atoms: S_13  and  C_16
REMARK    8  A    between atoms: C_16  and  C_17
REMARK    9  A    between atoms: C_22  and  C_23
REMARK   10  A    between atoms: C_23  and  C_24
REMARK                            x       y       z     vdW  Elec       q    Type
REMARK                         _______ _______ _______ _____ _____    ______ ____
ROOT
ATOM      1  C   UNL     1       2.736   4.341  17.573  0.00  0.00    +0.000 C 
ATOM      2  C   UNL     1       3.334   3.289  18.505  0.00  0.00    +0.000 C 
ATOM      3  C   UNL     1       4.862   3.304  18.460  0.00  0.00    +0.000 C 
ATOM      4  C   UNL     1       5.505   4.635  18.140  0.00  0.00    +0.000 A 
ATOM      5  C   UNL     1       6.905   4.707  18.124  0.00  0.00    +0.000 A 
ATOM      6  C   UNL     1       7.561   5.901  17.811  0.00  0.00    +0.000 A 
ATOM      7  C   UNL     1       6.826   7.044  17.505  0.00  0.00    +0.000 A 
ATOM      8  C   UNL     1       5.430   6.990  17.545  0.00  0.00    +0.000 A 
ATOM      9  C   UNL     1       4.757   5.793  17.855  0.00  0.00    +0.000 A 
ATOM     10  C   UNL     1       3.235   5.774  17.926  0.00  0.00    +0.000 C 
ENDROOT
BRANCH   1  11
ATOM     11  N   UNL     1       1.282   4.191  17.478  0.00  0.00    +0.000 NA
ATOM     12  H   UNL     1       1.008   3.651  16.661  0.00  0.00    +0.000 HD
ATOM     13  H   UNL     1       0.894   3.748  18.306  0.00  0.00    +0.000 HD
ENDBRANCH   1  11
BRANCH   7  14
ATOM     14  O   UNL     1       7.361   8.269  17.210  0.00  0.00    +0.000 OA
BRANCH  14  15
ATOM     15  C   UNL     1       8.354   8.754  18.119  0.00  0.00    +0.000 C 
BRANCH  15  16
ATOM     16  C   UNL     1       8.499  10.275  17.964  0.00  0.00    +0.000 C 
BRANCH  16  17
ATOM     17  N   UNL     1       9.940  10.665  17.978  0.00  0.00    +0.000 NA
ATOM     18  H   UNL     1      10.291  10.810  17.030  0.00  0.00    +0.000 HD
BRANCH  17  19
ATOM     19  S   UNL     1      10.275  12.034  18.939  0.00  0.00    +0.000 S 
ATOM     20  O   UNL     1      11.610  11.827  19.453  0.00  0.00    +0.000 OA
ATOM     21  O   UNL     1       9.924  13.201  18.169  0.00  0.00    +0.000 OA
BRANCH  19  22
ATOM     22  C   UNL     1       9.085  11.788  20.270  0.00  0.00    +0.000 C 
BRANCH  22  23
ATOM     23  C   UNL     1       9.704  12.307  21.530  0.00  0.00    +0.000 C 
ATOM     24  C   UNL     1       9.352  13.717  21.950  0.00  0.00    +0.000 C 
ATOM     25  C   UNL     1       8.901  12.558  22.790  0.00  0.00    +0.000 C 
ENDBRANCH  22  23
ENDBRANCH  19  22
ENDBRANCH  17  19
ENDBRANCH  16  17
ENDBRANCH  15  16
ENDBRANCH  14  15
ENDBRANCH   7  14
BRANCH  10  26
ATOM     26  C   UNL     1       2.679   6.432  19.235  0.00  0.00    +0.000 C 
BRANCH  26  27
ATOM     27  C   UNL     1       2.003   7.787  19.125  0.00  0.00    +0.000 A 
ATOM     28  C   UNL     1       2.040   8.521  17.931  0.00  0.00    +0.000 A 
ATOM     29  C   UNL     1       1.649   9.859  17.900  0.00  0.00    +0.000 A 
ATOM     30  C   UNL     1       1.121  10.459  19.041  0.00  0.00    +0.000 A 
ATOM     31 CL   UNL     1       0.750  12.144  18.964  0.00  0.00    +0.000 Cl
ATOM     32  C   UNL     1       0.936   9.697  20.199  0.00  0.00    +0.000 A 
ATOM     33 CL   UNL     1       0.218  10.350  21.628  0.00  0.00    +0.000 Cl
ATOM     34  C   UNL     1       1.374   8.365  20.238  0.00  0.00    +0.000 A 
ENDBRANCH  26  27
ENDBRANCH  10  26
TORSDOF 10
ENDMDL
MODEL 2
REMARK VINA RESULT:      -7.6      1.506      1.924
REMARK  Name = 
REMARK  10 active torsions:
REMARK  status: ('A' for Active; 'I' for Inactive)
REMARK    1  A    between atoms: N_1  and  C_2
REMARK    2  A    between atoms: C_8  and  O_9
REMARK    3  A    between atoms: O_9  and  C_10
REMARK    4  A    between atoms: C_10  and  C_11
REMARK    5  A    between atoms: C_11  and  N_12
REMARK    6  A    between atoms: N_12  and  S_13
REMARK    7  A    between atoms: S_13  and  C_16
REMARK    8  A    between atoms: C_16  and  C_17
REMARK    9  A    between atoms: C_22  and  C_23
REMARK   10  A    between atoms: C_23  and  C_24
REMARK                            x       y       z     vdW  Elec       q    Type
REMARK                         _______ _______ _______ _____ _____    ______ ____
ROOT
ATOM      1  C   UNL     1       2.554   4.258  17.531  0.00  0.00    +0.000 C 
ATOM      2  C   UNL     1       3.127   3.178  18.447  0.00  0.00    +0.000 C 
ATOM      3  C   UNL     1       4.650   3.106  18.345  0.00  0.00    +0.000 C 
ATOM      4  C   UNL     1       5.355   4.397  17.993  0.00  0.00    +0.000 A 
ATOM      5  C   UNL     1       6.755   4.391  17.925  0.00  0.00    +0.000 A 
ATOM      6  C   UNL     1       7.465   5.544  17.579  0.00  0.00    +0.000 A 
ATOM      7  C   UNL     1       6.785   6.725  17.294  0.00  0.00    +0.000 A 
ATOM      8  C   UNL     1       5.391   6.750  17.386  0.00  0.00    +0.000 A 
ATOM      9  C   UNL     1       4.663   5.595  17.729  0.00  0.00    +0.000 A 
ATOM     10  C   UNL     1       3.146   5.663  17.857  0.00  0.00    +0.000 C 
ENDROOT
BRANCH   1  11
ATOM     11  N   UNL     1       1.092   4.190  17.491  0.00  0.00    +0.000 NA
ATOM     12  H   UNL     1       0.705   3.813  18.353  0.00  0.00    +0.000 HD
ATOM     13  H   UNL     1       0.677   5.102  17.319  0.00  0.00    +0.000 HD
ENDBRANCH   1  11
BRANCH   7  14
ATOM     14  O   UNL     1       7.376   7.917  16.971  0.00  0.00    +0.000 OA
BRANCH  14  15
ATOM     15  C   UNL     1       8.296   8.441  17.935  0.00  0.00    +0.000 C 
BRANCH  15  16
ATOM     16  C   UNL     1       8.191   9.972  17.971  0.00  0.00    +0.000 C 
BRANCH  16  17
ATOM     17  N   UNL     1       9.534  10.581  18.203  0.00  0.00    +0.000 NA
ATOM     18  H   UNL     1       9.950  10.899  17.326  0.00  0.00    +0.000 HD
BRANCH  17  19
ATOM     19  S   UNL     1       9.528  11.853  19.339  0.00  0.00    +0.000 S 
ATOM     20  O   UNL     1       8.726  12.898  18.745  0.00  0.00    +0.000 OA
ATOM     21  O   UNL     1       9.212  11.284  20.626  0.00  0.00    +0.000 OA
BRANCH  19  22
ATOM     22  C   UNL     1      11.264  12.337  19.285  0.00  0.00    +0.000 C 
BRANCH  22  23
ATOM     23  C   UNL     1      11.629  12.547  17.850  0.00  0.00    +0.000 C 
ATOM     24  C   UNL     1      10.861  13.601  17.083  0.00  0.00    +0.000 C 
ATOM     25  C   UNL     1      12.322  13.802  17.360  0.00  0.00    +0.000 C 
ENDBRANCH  22  23
ENDBRANCH  19  22
ENDBRANCH  17  19
ENDBRANCH  16  17
ENDBRANCH  15  16
ENDBRANCH  14  15
ENDBRANCH   7  14
BRANCH  10  26
ATOM     26  C   UNL     1       2.678   6.357  19.181  0.00  0.00    +0.000 C 
BRANCH  26  27
ATOM     27  C   UNL     1       2.012   7.717  19.080  0.00  0.00    +0.000 A 
ATOM     28  C   UNL     1       2.020   8.442  17.881  0.00  0.00    +0.000 A 
ATOM     29  C   UNL     1       1.641   9.784  17.851  0.00  0.00    +0.000 A 
ATOM     30  C   UNL     1       1.153  10.397  19.002  0.00  0.00    +0.000 A 
ATOM     31 CL   UNL     1       0.795  12.084  18.923  0.00  0.00    +0.000 Cl
ATOM     32  C   UNL     1       0.995   9.645  20.171  0.00  0.00    +0.000 A 
ATOM     33 CL   UNL     1       0.325  10.316  21.615  0.00  0.00    +0.000 Cl
ATOM     34  C   UNL     1       1.422   8.309  20.207  0.00  0.00    +0.000 A 
ENDBRANCH  26  27
ENDBRANCH  10  26
TORSDOF 10
ENDMDL
MODEL 3
REMARK VINA RESULT:      -7.4      1.180      1.733
REMARK  Name = 
REMARK  10 active torsions:
REMARK  status: ('A' for Active; 'I' for Inactive)
REMARK    1  A    between atoms: N_1  and  C_2
REMARK    2  A    between atoms: C_8  and  O_9
REMARK    3  A    between atoms: O_9  and  C_10
REMARK    4  A    between atoms: C_10  and  C_11
REMARK    5  A    between atoms: C_11  and  N_12
REMARK    6  A    between atoms: N_12  and  S_13
REMARK    7  A    between atoms: S_13  and  C_16
REMARK    8  A    between atoms: C_16  and  C_17
REMARK    9  A    between atoms: C_22  and  C_23
REMARK   10  A    between atoms: C_23  and  C_24
REMARK                            x       y       z     vdW  Elec       q    Type
REMARK                         _______ _______ _______ _____ _____    ______ ____
ROOT
ATOM      1  C   UNL     1       2.431   4.194  17.324  0.00  0.00    +0.000 C 
ATOM      2  C   UNL     1       3.134   2.937  17.834  0.00  0.00    +0.000 C 
ATOM      3  C   UNL     1       4.619   2.939  17.471  0.00  0.00    +0.000 C 
ATOM      4  C   UNL     1       5.271   4.297  17.346  0.00  0.00    +0.000 A 
ATOM      5  C   UNL     1       6.641   4.350  17.052  0.00  0.00    +0.000 A 
ATOM      6  C   UNL     1       7.298   5.574  16.898  0.00  0.00    +0.000 A 
ATOM      7  C   UNL     1       6.594   6.768  17.033  0.00  0.00    +0.000 A 
ATOM      8  C   UNL     1       5.235   6.727  17.354  0.00  0.00    +0.000 A 
ATOM      9  C   UNL     1       4.560   5.502  17.508  0.00  0.00    +0.000 A 
ATOM     10  C   UNL     1       3.086   5.489  17.893  0.00  0.00    +0.000 C 
ENDROOT
BRANCH   1  11
ATOM     11  N   UNL     1       0.982   4.094  17.506  0.00  0.00    +0.000 NA
ATOM     12  H   UNL     1       0.544   3.541  16.774  0.00  0.00    +0.000 HD
ATOM     13  H   UNL     1       0.742   3.689  18.407  0.00  0.00    +0.000 HD
ENDBRANCH   1  11
BRANCH   7  14
ATOM     14  O   UNL     1       7.139   8.020  16.930  0.00  0.00    +0.000 OA
BRANCH  14  15
ATOM     15  C   UNL     1       8.092   8.373  17.938  0.00  0.00    +0.000 C 
BRANCH  15  16
ATOM     16  C   UNL     1       8.123   9.899  18.108  0.00  0.00    +0.000 C 
BRANCH  16  17
ATOM     17  N   UNL     1       9.532  10.394  18.111  0.00  0.00    +0.000 NA
ATOM     18  H   UNL     1      10.060  10.005  17.328  0.00  0.00    +0.000 HD
BRANCH  17  19
ATOM     19  S   UNL     1       9.667  12.094  18.117  0.00  0.00    +0.000 S 
ATOM     20  O   UNL     1      10.916  12.384  17.451  0.00  0.00    +0.000 OA
ATOM     21  O   UNL     1       8.411  12.631  17.654  0.00  0.00    +0.000 OA
BRANCH  19  22
ATOM     22  C   UNL     1       9.855  12.393  19.884  0.00  0.00    +0.000 C 
BRANCH  22  23
ATOM     23  C   UNL     1      10.708  13.612  20.046  0.00  0.00    +0.000 C 
ATOM     24  C   UNL     1      10.077  14.951  19.732  0.00  0.00    +0.000 C 
ATOM     25  C   UNL     1      10.475  14.631  21.143  0.00  0.00    +0.000 C 
ENDBRANCH  22  23
ENDBRANCH  19  22
ENDBRANCH  17  19
ENDBRANCH  16  17
ENDBRANCH  15  16
ENDBRANCH  14  15
ENDBRANCH   7  14
BRANCH  10  26
ATOM     26  C   UNL     1       2.850   5.815  19.407  0.00  0.00    +0.000 C 
BRANCH  26  27
ATOM     27  C   UNL     1       2.193   7.137  19.762  0.00  0.00    +0.000 A 
ATOM     28  C   UNL     1       1.548   7.319  20.993  0.00  0.00    +0.000 A 
ATOM     29  C   UNL     1       0.731   8.427  21.217  0.00  0.00    +0.000 A 
ATOM     30  C   UNL     1       0.625   9.424  20.249  0.00  0.00    +0.000 A 
ATOM     31 CL   UNL     1      -0.478  10.718  20.548  0.00  0.00    +0.000 Cl
ATOM     32  C   UNL     1       1.382   9.331  19.077  0.00  0.00    +0.000 A 
ATOM     33 CL   UNL     1       1.361  10.563  17.867  0.00  0.00    +0.000 Cl
ATOM     34  C   UNL     1       2.164   8.192  18.837  0.00  0.00    +0.000 A 
ENDBRANCH  26  27
ENDBRANCH  10  26
TORSDOF 10
ENDMDL
MODEL 4
REMARK VINA RESULT:      -7.3      1.239      1.440
REMARK  Name = 
REMARK  10 active torsions:
REMARK  status: ('A' for Active; 'I' for Inactive)
REMARK    1  A    between atoms: N_1  and  C_2
REMARK    2  A    between atoms: C_8  and  O_9
REMARK    3  A    between atoms: O_9  and  C_10
REMARK    4  A    between atoms: C_10  and  C_11
REMARK    5  A    between atoms: C_11  and  N_12
REMARK    6  A    between atoms: N_12  and  S_13
REMARK    7  A    between atoms: S_13  and  C_16
REMARK    8  A    between atoms: C_16  and  C_17
REMARK    9  A    between atoms: C_22  and  C_23
REMARK   10  A    between atoms: C_23  and  C_24
REMARK                            x       y       z     vdW  Elec       q    Type
REMARK                         _______ _______ _______ _____ _____    ______ ____
ROOT
ATOM      1  C   UNL     1       2.848   4.328  17.558  0.00  0.00    +0.000 C 
ATOM      2  C   UNL     1       3.461   3.278  18.483  0.00  0.00    +0.000 C 
ATOM      3  C   UNL     1       4.988   3.309  18.433  0.00  0.00    +0.000 C 
ATOM      4  C   UNL     1       5.616   4.648  18.119  0.00  0.00    +0.000 A 
ATOM      5  C   UNL     1       7.015   4.736  18.098  0.00  0.00    +0.000 A 
ATOM      6  C   UNL     1       7.657   5.939  17.789  0.00  0.00    +0.000 A 
ATOM      7  C   UNL     1       6.909   7.075  17.493  0.00  0.00    +0.000 A 
ATOM      8  C   UNL     1       5.514   7.006  17.537  0.00  0.00    +0.000 A 
ATOM      9  C   UNL     1       4.854   5.800  17.842  0.00  0.00    +0.000 A 
ATOM     10  C   UNL     1       3.333   5.765  17.918  0.00  0.00    +0.000 C 
ENDROOT
BRANCH   1  11
ATOM     11  N   UNL     1       1.396   4.163  17.467  0.00  0.00    +0.000 NA
ATOM     12  H   UNL     1       0.952   4.948  16.998  0.00  0.00    +0.000 HD
ATOM     13  H   UNL     1       1.144   3.308  16.979  0.00  0.00    +0.000 HD
ENDBRANCH   1  11
BRANCH   7  14
ATOM     14  O   UNL     1       7.429   8.308  17.202  0.00  0.00    +0.000 OA
BRANCH  14  15
ATOM     15  C   UNL     1       8.183   8.931  18.248  0.00  0.00    +0.000 C 
BRANCH  15  16
ATOM     16  C   UNL     1       8.984  10.110  17.677  0.00  0.00    +0.000 C 
BRANCH  16  17
ATOM     17  N   UNL     1       8.770  11.335  18.503  0.00  0.00    +0.000 NA
ATOM     18  H   UNL     1       7.825  11.355  18.891  0.00  0.00    +0.000 HD
BRANCH  17  19
ATOM     19  S   UNL     1       9.916  11.536  19.749  0.00  0.00    +0.000 S 
ATOM     20  O   UNL     1       9.397  10.790  20.874  0.00  0.00    +0.000 OA
ATOM     21  O   UNL     1      11.218  11.269  19.190  0.00  0.00    +0.000 OA
BRANCH  19  22
ATOM     22  C   UNL     1       9.729  13.299  20.073  0.00  0.00    +0.000 C 
BRANCH  22  23
ATOM     23  C   UNL     1      10.949  13.986  19.544  0.00  0.00    +0.000 C 
ATOM     24  C   UNL     1      10.754  15.319  18.856  0.00  0.00    +0.000 C 
ATOM     25  C   UNL     1      11.499  15.257  20.158  0.00  0.00    +0.000 C 
ENDBRANCH  22  23
ENDBRANCH  19  22
ENDBRANCH  17  19
ENDBRANCH  16  17
ENDBRANCH  15  16
ENDBRANCH  14  15
ENDBRANCH   7  14
BRANCH  10  26
ATOM     26  C   UNL     1       2.774   6.409  19.233  0.00  0.00    +0.000 C 
BRANCH  26  27
ATOM     27  C   UNL     1       2.062   7.746  19.129  0.00  0.00    +0.000 A 
ATOM     28  C   UNL     1       2.079   8.486  17.939  0.00  0.00    +0.000 A 
ATOM     29  C   UNL     1       1.652   9.814  17.914  0.00  0.00    +0.000 A 
ATOM     30  C   UNL     1       1.109  10.394  19.058  0.00  0.00    +0.000 A 
ATOM     31 CL   UNL     1       0.693  12.068  18.988  0.00  0.00    +0.000 Cl
ATOM     32  C   UNL     1       0.946   9.622  20.212  0.00  0.00    +0.000 A 
ATOM     33 CL   UNL     1       0.211  10.249  21.644  0.00  0.00    +0.000 Cl
ATOM     34  C   UNL     1       1.419   8.302  20.245  0.00  0.00    +0.000 A 
ENDBRANCH  26  27
ENDBRANCH  10  26
TORSDOF 10
ENDMDL
MODEL 5
REMARK VINA RESULT:      -7.3      1.521      1.724
REMARK  Name = 
REMARK  10 active torsions:
REMARK  status: ('A' for Active; 'I' for Inactive)
REMARK    1  A    between atoms: N_1  and  C_2
REMARK    2  A    between atoms: C_8  and  O_9
REMARK    3  A    between atoms: O_9  and  C_10
REMARK    4  A    between atoms: C_10  and  C_11
REMARK    5  A    between atoms: C_11  and  N_12
REMARK    6  A    between atoms: N_12  and  S_13
REMARK    7  A    between atoms: S_13  and  C_16
REMARK    8  A    between atoms: C_16  and  C_17
REMARK    9  A    between atoms: C_22  and  C_23
REMARK   10  A    between atoms: C_23  and  C_24
REMARK                            x       y       z     vdW  Elec       q    Type
REMARK                         _______ _______ _______ _____ _____    ______ ____
ROOT
ATOM      1  C   UNL     1       2.646   4.506  17.511  0.00  0.00    +0.000 C 
ATOM      2  C   UNL     1       3.127   3.369  18.412  0.00  0.00    +0.000 C 
ATOM      3  C   UNL     1       4.638   3.169  18.303  0.00  0.00    +0.000 C 
ATOM      4  C   UNL     1       5.450   4.399  17.966  0.00  0.00    +0.000 A 
ATOM      5  C   UNL     1       6.844   4.274  17.893  0.00  0.00    +0.000 A 
ATOM      6  C   UNL     1       7.649   5.367  17.560  0.00  0.00    +0.000 A 
ATOM      7  C   UNL     1       7.072   6.606  17.293  0.00  0.00    +0.000 A 
ATOM      8  C   UNL     1       5.685   6.749  17.390  0.00  0.00    +0.000 A 
ATOM      9  C   UNL     1       4.862   5.656  17.720  0.00  0.00    +0.000 A 
ATOM     10  C   UNL     1       3.357   5.850  17.854  0.00  0.00    +0.000 C 
ENDROOT
BRANCH   1  11
ATOM     11  N   UNL     1       1.184   4.564  17.476  0.00  0.00    +0.000 NA
ATOM     12  H   UNL     1       0.781   3.744  17.028  0.00  0.00    +0.000 HD
ATOM     13  H   UNL     1       0.787   4.654  18.407  0.00  0.00    +0.000 HD
ENDBRANCH   1  11
BRANCH   7  14
ATOM     14  O   UNL     1       7.762   7.747  16.984  0.00  0.00    +0.000 OA
BRANCH  14  15
ATOM     15  C   UNL     1       7.355   8.932  17.677  0.00  0.00    +0.000 C 
BRANCH  15  16
ATOM     16  C   UNL     1       8.588   9.646  18.249  0.00  0.00    +0.000 C 
BRANCH  16  17
ATOM     17  N   UNL     1       8.547  11.102  17.921  0.00  0.00    +0.000 NA
ATOM     18  H   UNL     1       7.660  11.519  18.210  0.00  0.00    +0.000 HD
BRANCH  17  19
ATOM     19  S   UNL     1       9.848  11.993  18.568  0.00  0.00    +0.000 S 
ATOM     20  O   UNL     1       9.584  12.086  19.986  0.00  0.00    +0.000 OA
ATOM     21  O   UNL     1      11.066  11.420  18.052  0.00  0.00    +0.000 OA
BRANCH  19  22
ATOM     22  C   UNL     1       9.546  13.598  17.805  0.00  0.00    +0.000 C 
BRANCH  22  23
ATOM     23  C   UNL     1       8.354  14.200  18.478  0.00  0.00    +0.000 C 
ATOM     24  C   UNL     1       8.125  15.685  18.293  0.00  0.00    +0.000 C 
ATOM     25  C   UNL     1       7.151  14.705  17.708  0.00  0.00    +0.000 C 
ENDBRANCH  22  23
ENDBRANCH  19  22
ENDBRANCH  17  19
ENDBRANCH  16  17
ENDBRANCH  15  16
ENDBRANCH  14  15
ENDBRANCH   7  14
BRANCH  10  26
ATOM     26  C   UNL     1       2.953   6.564  19.189  0.00  0.00    +0.000 C 
BRANCH  26  27
ATOM     27  C   UNL     1       2.112   7.825  19.101  0.00  0.00    +0.000 A 
ATOM     28  C   UNL     1       2.025   8.557  17.909  0.00  0.00    +0.000 A 
ATOM     29  C   UNL     1       1.472   9.837  17.892  0.00  0.00    +0.000 A 
ATOM     30  C   UNL     1       0.907  10.369  19.049  0.00  0.00    +0.000 A 
ATOM     31 CL   UNL     1       0.329  11.995  18.987  0.00  0.00    +0.000 Cl
ATOM     32  C   UNL     1       0.850   9.590  20.210  0.00  0.00    +0.000 A 
ATOM     33 CL   UNL     1       0.097  10.152  21.660  0.00  0.00    +0.000 Cl
ATOM     34  C   UNL     1       1.449   8.323  20.233  0.00  0.00    +0.000 A 
ENDBRANCH  26  27
ENDBRANCH  10  26
TORSDOF 10
ENDMDL
MODEL 6
REMARK VINA RESULT:      -7.2      1.816      2.388
REMARK  Name = 
REMARK  10 active torsions:
REMARK  status: ('A' for Active; 'I' for Inactive)
REMARK    1  A    between atoms: N_1  and  C_2
REMARK    2  A    between atoms: C_8  and  O_9
REMARK    3  A    between atoms: O_9  and  C_10
REMARK    4  A    between atoms: C_10  and  C_11
REMARK    5  A    between atoms: C_11  and  N_12
REMARK    6  A    between atoms: N_12  and  S_13
REMARK    7  A    between atoms: S_13  and  C_16
REMARK    8  A    between atoms: C_16  and  C_17
REMARK    9  A    between atoms: C_22  and  C_23
REMARK   10  A    between atoms: C_23  and  C_24
REMARK                            x       y       z     vdW  Elec       q    Type
REMARK                         _______ _______ _______ _____ _____    ______ ____
ROOT
ATOM      1  C   UNL     1       2.508   4.421  17.327  0.00  0.00    +0.000 C 
ATOM      2  C   UNL     1       3.077   3.094  17.827  0.00  0.00    +0.000 C 
ATOM      3  C   UNL     1       4.553   2.943  17.460  0.00  0.00    +0.000 C 
ATOM      4  C   UNL     1       5.344   4.227  17.342  0.00  0.00    +0.000 A 
ATOM      5  C   UNL     1       6.711   4.138  17.044  0.00  0.00    +0.000 A 
ATOM      6  C   UNL     1       7.492   5.287  16.896  0.00  0.00    +0.000 A 
ATOM      7  C   UNL     1       6.917   6.547  17.041  0.00  0.00    +0.000 A 
ATOM      8  C   UNL     1       5.562   6.647  17.365  0.00  0.00    +0.000 A 
ATOM      9  C   UNL     1       4.762   5.498  17.513  0.00  0.00    +0.000 A 
ATOM     10  C   UNL     1       3.296   5.637  17.902  0.00  0.00    +0.000 C 
ENDROOT
BRANCH   1  11
ATOM     11  N   UNL     1       1.057   4.472  17.513  0.00  0.00    +0.000 NA
ATOM     12  H   UNL     1       0.757   3.932  18.320  0.00  0.00    +0.000 HD
ATOM     13  H   UNL     1       0.724   5.427  17.618  0.00  0.00    +0.000 HD
ENDBRANCH   1  11
BRANCH   7  14
ATOM     14  O   UNL     1       7.589   7.736  16.944  0.00  0.00    +0.000 OA
BRANCH  14  15
ATOM     15  C   UNL     1       7.497   8.602  18.081  0.00  0.00    +0.000 C 
BRANCH  15  16
ATOM     16  C   UNL     1       8.575   9.692  17.989  0.00  0.00    +0.000 C 
BRANCH  16  17
ATOM     17  N   UNL     1       9.213   9.908  19.321  0.00  0.00    +0.000 NA
ATOM     18  H   UNL     1       9.835   9.133  19.560  0.00  0.00    +0.000 HD
BRANCH  17  19
ATOM     19  S   UNL     1      10.050  11.387  19.455  0.00  0.00    +0.000 S 
ATOM     20  O   UNL     1       9.072  12.343  19.924  0.00  0.00    +0.000 OA
ATOM     21  O   UNL     1      11.275  11.130  20.172  0.00  0.00    +0.000 OA
BRANCH  19  22
ATOM     22  C   UNL     1      10.406  11.711  17.718  0.00  0.00    +0.000 C 
BRANCH  22  23
ATOM     23  C   UNL     1      10.512  13.194  17.548  0.00  0.00    +0.000 C 
ATOM     24  C   UNL     1      11.731  13.876  18.131  0.00  0.00    +0.000 C 
ATOM     25  C   UNL     1      11.541  13.839  16.642  0.00  0.00    +0.000 C 
ENDBRANCH  22  23
ENDBRANCH  19  22
ENDBRANCH  17  19
ENDBRANCH  16  17
ENDBRANCH  15  16
ENDBRANCH  14  15
ENDBRANCH   7  14
BRANCH  10  26
ATOM     26  C   UNL     1       3.099   5.976  19.419  0.00  0.00    +0.000 C 
BRANCH  26  27
ATOM     27  C   UNL     1       2.318   7.227  19.779  0.00  0.00    +0.000 A 
ATOM     28  C   UNL     1       1.674   7.349  21.017  0.00  0.00    +0.000 A 
ATOM     29  C   UNL     1       0.754   8.372  21.249  0.00  0.00    +0.000 A 
ATOM     30  C   UNL     1       0.536   9.348  20.280  0.00  0.00    +0.000 A 
ATOM     31 CL   UNL     1      -0.686  10.528  20.589  0.00  0.00    +0.000 Cl
ATOM     32  C   UNL     1       1.284   9.326  19.098  0.00  0.00    +0.000 A 
ATOM     33 CL   UNL     1       1.124  10.545  17.884  0.00  0.00    +0.000 Cl
ATOM     34  C   UNL     1       2.172   8.270  18.851  0.00  0.00    +0.000 A 
ENDBRANCH  26  27
ENDBRANCH  10  26
TORSDOF 10
ENDMDL
MODEL 7
REMARK VINA RESULT:      -7.1      5.936      7.677
REMARK  Name = 
REMARK  10 active torsions:
REMARK  status: ('A' for Active; 'I' for Inactive)
REMARK    1  A    between atoms: N_1  and  C_2
REMARK    2  A    between atoms: C_8  and  O_9
REMARK    3  A    between atoms: O_9  and  C_10
REMARK    4  A    between atoms: C_10  and  C_11
REMARK    5  A    between atoms: C_11  and  N_12
REMARK    6  A    between atoms: N_12  and  S_13
REMARK    7  A    between atoms: S_13  and  C_16
REMARK    8  A    between atoms: C_16  and  C_17
REMARK    9  A    between atoms: C_22  and  C_23
REMARK   10  A    between atoms: C_23  and  C_24
REMARK                            x       y       z     vdW  Elec       q    Type
REMARK                         _______ _______ _______ _____ _____    ______ ____
ROOT
ATOM      1  C   UNL     1       4.203   2.897  20.064  0.00  0.00    +0.000 C 
ATOM      2  C   UNL     1       2.818   2.293  20.285  0.00  0.00    +0.000 C 
ATOM      3  C   UNL     1       1.799   3.358  20.688  0.00  0.00    +0.000 C 
ATOM      4  C   UNL     1       2.053   4.754  20.164  0.00  0.00    +0.000 A 
ATOM      5  C   UNL     1       1.126   5.758  20.475  0.00  0.00    +0.000 A 
ATOM      6  C   UNL     1       1.317   7.074  20.043  0.00  0.00    +0.000 A 
ATOM      7  C   UNL     1       2.442   7.408  19.294  0.00  0.00    +0.000 A 
ATOM      8  C   UNL     1       3.358   6.409  18.954  0.00  0.00    +0.000 A 
ATOM      9  C   UNL     1       3.181   5.081  19.386  0.00  0.00    +0.000 A 
ATOM     10  C   UNL     1       4.178   4.007  18.970  0.00  0.00    +0.000 C 
ENDROOT
BRANCH   1  11
ATOM     11  N   UNL     1       5.207   1.850  19.868  0.00  0.00    +0.000 NA
ATOM     12  H   UNL     1       5.136   1.421  18.949  0.00  0.00    +0.000 HD
ATOM     13  H   UNL     1       6.151   2.205  19.990  0.00  0.00    +0.000 HD
ENDBRANCH   1  11
BRANCH   7  14
ATOM     14  O   UNL     1       2.717   8.654  18.797  0.00  0.00    +0.000 OA
BRANCH  14  15
ATOM     15  C   UNL     1       1.690   9.249  17.996  0.00  0.00    +0.000 C 
BRANCH  15  16
ATOM     16  C   UNL     1       0.715  10.022  18.896  0.00  0.00    +0.000 C 
BRANCH  16  17
ATOM     17  N   UNL     1       0.490  11.397  18.361  0.00  0.00    +0.000 NA
ATOM     18  H   UNL     1      -0.247  11.400  17.653  0.00  0.00    +0.000 HD
BRANCH  17  19
ATOM     19  S   UNL     1       0.148  12.558  19.562  0.00  0.00    +0.000 S 
ATOM     20  O   UNL     1       1.375  12.711  20.312  0.00  0.00    +0.000 OA
ATOM     21  O   UNL     1      -0.498  13.674  18.916  0.00  0.00    +0.000 OA
BRANCH  19  22
ATOM     22  C   UNL     1      -1.044  11.645  20.558  0.00  0.00    +0.000 C 
BRANCH  22  23
ATOM     23  C   UNL     1      -0.499  11.562  21.950  0.00  0.00    +0.000 C 
ATOM     24  C   UNL     1      -1.497  11.493  23.085  0.00  0.00    +0.000 C 
ATOM     25  C   UNL     1      -0.616  10.312  22.798  0.00  0.00    +0.000 C 
ENDBRANCH  22  23
ENDBRANCH  19  22
ENDBRANCH  17  19
ENDBRANCH  16  17
ENDBRANCH  15  16
ENDBRANCH  14  15
ENDBRANCH   7  14
BRANCH  10  26
ATOM     26  C   UNL     1       3.997   3.553  17.481  0.00  0.00    +0.000 C 
BRANCH  26  27
ATOM     27  C   UNL     1       5.104   3.876  16.494  0.00  0.00    +0.000 A 
ATOM     28  C   UNL     1       6.213   4.645  16.873  0.00  0.00    +0.000 A 
ATOM     29  C   UNL     1       7.092   5.155  15.918  0.00  0.00    +0.000 A 
ATOM     30  C   UNL     1       6.934   4.822  14.574  0.00  0.00    +0.000 A 
ATOM     31 CL   UNL     1       7.995   5.565  13.433  0.00  0.00    +0.000 Cl
ATOM     32  C   UNL     1       5.922   3.932  14.199  0.00  0.00    +0.000 A 
ATOM     33 CL   UNL     1       5.712   3.413  12.565  0.00  0.00    +0.000 Cl
ATOM     34  C   UNL     1       5.013   3.460  15.157  0.00  0.00    +0.000 A 
ENDBRANCH  26  27
ENDBRANCH  10  26
TORSDOF 10
ENDMDL
MODEL 8
REMARK VINA RESULT:      -7.1      4.038      9.033
REMARK  Name = 
REMARK  10 active torsions:
REMARK  status: ('A' for Active; 'I' for Inactive)
REMARK    1  A    between atoms: N_1  and  C_2
REMARK    2  A    between atoms: C_8  and  O_9
REMARK    3  A    between atoms: O_9  and  C_10
REMARK    4  A    between atoms: C_10  and  C_11
REMARK    5  A    between atoms: C_11  and  N_12
REMARK    6  A    between atoms: N_12  and  S_13
REMARK    7  A    between atoms: S_13  and  C_16
REMARK    8  A    between atoms: C_16  and  C_17
REMARK    9  A    between atoms: C_22  and  C_23
REMARK   10  A    between atoms: C_23  and  C_24
REMARK                            x       y       z     vdW  Elec       q    Type
REMARK                         _______ _______ _______ _____ _____    ______ ____
ROOT
ATOM      1  C   UNL     1      10.095  14.427  21.607  0.00  0.00    +0.000 C 
ATOM      2  C   UNL     1       9.874  15.359  20.417  0.00  0.00    +0.000 C 
ATOM      3  C   UNL     1      10.059  14.626  19.089  0.00  0.00    +0.000 C 
ATOM      4  C   UNL     1       9.737  13.149  19.094  0.00  0.00    +0.000 A 
ATOM      5  C   UNL     1       9.855  12.440  17.890  0.00  0.00    +0.000 A 
ATOM      6  C   UNL     1       9.597  11.068  17.833  0.00  0.00    +0.000 A 
ATOM      7  C   UNL     1       9.218  10.379  18.983  0.00  0.00    +0.000 A 
ATOM      8  C   UNL     1       9.070  11.080  20.182  0.00  0.00    +0.000 A 
ATOM      9  C   UNL     1       9.331  12.461  20.255  0.00  0.00    +0.000 A 
ATOM     10  C   UNL     1       9.127  13.206  21.568  0.00  0.00    +0.000 C 
ENDROOT
BRANCH   1  11
ATOM     11  N   UNL     1      10.106  15.176  22.865  0.00  0.00    +0.000 NA
ATOM     12  H   UNL     1       9.167  15.422  23.169  0.00  0.00    +0.000 HD
ATOM     13  H   UNL     1      10.564  14.657  23.609  0.00  0.00    +0.000 HD
ENDBRANCH   1  11
BRANCH   7  14
ATOM     14  O   UNL     1       8.917   9.044  19.039  0.00  0.00    +0.000 OA
BRANCH  14  15
ATOM     15  C   UNL     1       8.172   8.524  17.932  0.00  0.00    +0.000 C 
BRANCH  15  16
ATOM     16  C   UNL     1       7.818   7.052  18.193  0.00  0.00    +0.000 C 
BRANCH  16  17
ATOM     17  N   UNL     1       6.762   6.594  17.243  0.00  0.00    +0.000 NA
ATOM     18  H   UNL     1       6.523   7.331  16.576  0.00  0.00    +0.000 HD
BRANCH  17  19
ATOM     19  S   UNL     1       7.157   5.160  16.409  0.00  0.00    +0.000 S 
ATOM     20  O   UNL     1       7.586   5.583  15.095  0.00  0.00    +0.000 OA
ATOM     21  O   UNL     1       8.003   4.375  17.274  0.00  0.00    +0.000 OA
BRANCH  19  22
ATOM     22  C   UNL     1       5.526   4.404  16.284  0.00  0.00    +0.000 C 
BRANCH  22  23
ATOM     23  C   UNL     1       4.798   4.688  17.561  0.00  0.00    +0.000 C 
ATOM     24  C   UNL     1       3.301   4.469  17.571  0.00  0.00    +0.000 C 
ATOM     25  C   UNL     1       4.185   3.593  18.410  0.00  0.00    +0.000 C 
ENDBRANCH  22  23
ENDBRANCH  19  22
ENDBRANCH  17  19
ENDBRANCH  16  17
ENDBRANCH  15  16
ENDBRANCH  14  15
ENDBRANCH   7  14
BRANCH  10  26
ATOM     26  C   UNL     1       7.616  13.469  21.889  0.00  0.00    +0.000 C 
BRANCH  26  27
ATOM     27  C   UNL     1       7.099  13.086  23.264  0.00  0.00    +0.000 A 
ATOM     28  C   UNL     1       7.069  11.748  23.681  0.00  0.00    +0.000 A 
ATOM     29  C   UNL     1       6.366  11.368  24.825  0.00  0.00    +0.000 A 
ATOM     30  C   UNL     1       5.762  12.335  25.626  0.00  0.00    +0.000 A 
ATOM     31 CL   UNL     1       4.825  11.792  26.970  0.00  0.00    +0.000 Cl
ATOM     32  C   UNL     1       5.911  13.688  25.305  0.00  0.00    +0.000 A 
ATOM     33 CL   UNL     1       5.257  14.946  26.292  0.00  0.00    +0.000 Cl
ATOM     34  C   UNL     1       6.579  14.060  24.130  0.00  0.00    +0.000 A 
ENDBRANCH  26  27
ENDBRANCH  10  26
TORSDOF 10
ENDMDL
MODEL 9
REMARK VINA RESULT:      -7.0      4.297      7.403
REMARK  Name = 
REMARK  10 active torsions:
REMARK  status: ('A' for Active; 'I' for Inactive)
REMARK    1  A    between atoms: N_1  and  C_2
REMARK    2  A    between atoms: C_8  and  O_9
REMARK    3  A    between atoms: O_9  and  C_10
REMARK    4  A    between atoms: C_10  and  C_11
REMARK    5  A    between atoms: C_11  and  N_12
REMARK    6  A    between atoms: N_12  and  S_13
REMARK    7  A    between atoms: S_13  and  C_16
REMARK    8  A    between atoms: C_16  and  C_17
REMARK    9  A    between atoms: C_22  and  C_23
REMARK   10  A    between atoms: C_23  and  C_24
REMARK                            x       y       z     vdW  Elec       q    Type
REMARK                         _______ _______ _______ _____ _____    ______ ____
ROOT
ATOM      1  C   UNL     1      -1.088  11.358  21.123  0.00  0.00    +0.000 C 
ATOM      2  C   UNL     1      -0.897  10.878  22.560  0.00  0.00    +0.000 C 
ATOM      3  C   UNL     1      -0.371   9.443  22.607  0.00  0.00    +0.000 C 
ATOM      4  C   UNL     1       0.480   9.008  21.436  0.00  0.00    +0.000 A 
ATOM      5  C   UNL     1       1.017   7.713  21.451  0.00  0.00    +0.000 A 
ATOM      6  C   UNL     1       1.790   7.241  20.387  0.00  0.00    +0.000 A 
ATOM      7  C   UNL     1       2.039   8.057  19.287  0.00  0.00    +0.000 A 
ATOM      8  C   UNL     1       1.533   9.359  19.274  0.00  0.00    +0.000 A 
ATOM      9  C   UNL     1       0.748   9.846  20.336  0.00  0.00    +0.000 A 
ATOM     10  C   UNL     1       0.240  11.282  20.310  0.00  0.00    +0.000 C 
ENDROOT
BRANCH   1  11
ATOM     11  N   UNL     1      -1.768  12.653  21.089  0.00  0.00    +0.000 NA
ATOM     12  H   UNL     1      -1.626  13.135  20.205  0.00  0.00    +0.000 HD
ATOM     13  H   UNL     1      -2.767  12.559  21.252  0.00  0.00    +0.000 HD
ENDBRANCH   1  11
BRANCH   7  14
ATOM     14  O   UNL     1       2.802   7.709  18.204  0.00  0.00    +0.000 OA
BRANCH  14  15
ATOM     15  C   UNL     1       2.895   6.308  17.928  0.00  0.00    +0.000 C 
BRANCH  15  16
ATOM     16  C   UNL     1       4.348   5.842  18.101  0.00  0.00    +0.000 C 
BRANCH  16  17
ATOM     17  N   UNL     1       5.276   6.740  17.351  0.00  0.00    +0.000 NA
ATOM     18  H   UNL     1       5.140   7.716  17.621  0.00  0.00    +0.000 HD
BRANCH  17  19
ATOM     19  S   UNL     1       6.920   6.317  17.505  0.00  0.00    +0.000 S 
ATOM     20  O   UNL     1       7.647   7.316  16.754  0.00  0.00    +0.000 OA
ATOM     21  O   UNL     1       7.177   6.072  18.903  0.00  0.00    +0.000 OA
BRANCH  19  22
ATOM     22  C   UNL     1       6.937   4.764  16.591  0.00  0.00    +0.000 C 
BRANCH  22  23
ATOM     23  C   UNL     1       6.517   5.062  15.186  0.00  0.00    +0.000 C 
ATOM     24  C   UNL     1       6.435   3.899  14.222  0.00  0.00    +0.000 C 
ATOM     25  C   UNL     1       5.182   4.621  14.623  0.00  0.00    +0.000 C 
ENDBRANCH  22  23
ENDBRANCH  19  22
ENDBRANCH  17  19
ENDBRANCH  16  17
ENDBRANCH  15  16
ENDBRANCH  14  15
ENDBRANCH   7  14
BRANCH  10  26
ATOM     26  C   UNL     1       1.357  12.328  20.647  0.00  0.00    +0.000 C 
BRANCH  26  27
ATOM     27  C   UNL     1       1.661  13.407  19.624  0.00  0.00    +0.000 A 
ATOM     28  C   UNL     1       2.840  13.378  18.867  0.00  0.00    +0.000 A 
ATOM     29  C   UNL     1       3.241  14.486  18.121  0.00  0.00    +0.000 A 
ATOM     30  C   UNL     1       2.421  15.609  18.042  0.00  0.00    +0.000 A 
ATOM     31 CL   UNL     1       3.021  16.983  17.186  0.00  0.00    +0.000 Cl
ATOM     32  C   UNL     1       1.170  15.595  18.669  0.00  0.00    +0.000 A 
ATOM     33 CL   UNL     1       0.067  16.919  18.551  0.00  0.00    +0.000 Cl
ATOM     34  C   UNL     1       0.793  14.497  19.455  0.00  0.00    +0.000 A 
ENDBRANCH  26  27
ENDBRANCH  10  26
TORSDOF 10
ENDMDL
