MODEL 1
REMARK VINA RESULT:      -7.9      0.000      0.000
REMARK  Name = 
REMARK  8 active torsions:
REMARK  status: ('A' for Active; 'I' for Inactive)
REMARK    1  A    between atoms: C_1  and  C_2
REMARK    2  A    between atoms: C_2  and  N_3
REMARK    3  A    between atoms: N_3  and  C_4
REMARK    4  A    between atoms: C_4  and  C_5
REMARK    5  A    between atoms: C_6  and  C_8
REMARK    6  A    between atoms: C_8  and  C_9
REMARK    7  A    between atoms: C_20  and  C_21
REMARK    8  A    between atoms: C_21  and  N_22
REMARK                            x       y       z     vdW  Elec       q    Type
REMARK                         _______ _______ _______ _____ _____    ______ ____
ROOT
ATOM      1  C   UNL     1       3.676   5.448  18.559  0.00  0.00    +0.000 C 
ATOM      2  C   UNL     1       2.913   4.608  17.512  0.00  0.00    +0.000 C 
ATOM      3  C   UNL     1       3.192   4.013  18.874  0.00  0.00    +0.000 C 
ENDROOT
BRANCH   1   4
ATOM      4  C   UNL     1       2.864   6.705  18.799  0.00  0.00    +0.000 A 
ATOM      5  C   UNL     1       2.677   7.630  17.753  0.00  0.00    +0.000 A 
ATOM      6  C   UNL     1       1.920   8.791  17.956  0.00  0.00    +0.000 A 
ATOM      7  C   UNL     1       1.356   9.052  19.210  0.00  0.00    +0.000 A 
ATOM      8  C   UNL     1       0.590  10.209  19.430  0.00  0.00    +0.000 A 
ATOM      9  C   UNL     1       0.042  10.458  20.694  0.00  0.00    +0.000 A 
ATOM     10  C   UNL     1       0.258   9.561  21.743  0.00  0.00    +0.000 A 
ATOM     11  C   UNL     1       1.009   8.404  21.536  0.00  0.00    +0.000 A 
ATOM     12  C   UNL     1       1.553   8.136  20.269  0.00  0.00    +0.000 A 
ATOM     13  C   UNL     1       2.288   6.967  20.052  0.00  0.00    +0.000 A 
ENDBRANCH   1   4
BRANCH   1  15
ATOM     14  N   UNL     1       5.910   5.817  17.422  0.00  0.00    +0.000 N 
ATOM     15  C   UNL     1       5.207   5.525  18.574  0.00  0.00    +0.000 C 
ATOM     16  O   UNL     1       5.779   5.451  19.653  0.00  0.00    +0.000 OA
BRANCH  14  18
ATOM     17  C   UNL     1       7.652   7.607  17.566  0.00  0.00    +0.000 C 
ATOM     18  C   UNL     1       7.343   6.111  17.495  0.00  0.00    +0.000 C 
ENDBRANCH  14  18
BRANCH  14  19
ATOM     19  C   UNL     1       5.156   5.882  16.158  0.00  0.00    +0.000 C 
ATOM     20  C   UNL     1       5.664   5.072  14.970  0.00  0.00    +0.000 C 
ENDBRANCH  14  19
ENDBRANCH   1  15
BRANCH   3  21
ATOM     21  C   UNL     1       4.106   2.773  18.673  0.00  0.00    +0.000 C 
BRANCH  21  22
ATOM     22  N   UNL     1       4.814   2.396  19.892  0.00  0.00    +0.000 NA
ATOM     23  H   UNL     1       4.160   2.408  20.705  0.00  0.00    +0.000 HD
ATOM     24  H   UNL     1       5.616   3.044  20.064  0.00  0.00    +0.000 HD
ENDBRANCH  21  22
ENDBRANCH   3  21
TORSDOF 6
ENDMDL
MODEL 2
REMARK VINA RESULT:      -7.8      1.123      1.970
REMARK  Name = 
REMARK  8 active torsions:
REMARK  status: ('A' for Active; 'I' for Inactive)
REMARK    1  A    between atoms: C_1  and  C_2
REMARK    2  A    between atoms: C_2  and  N_3
REMARK    3  A    between atoms: N_3  and  C_4
REMARK    4  A    between atoms: C_4  and  C_5
REMARK    5  A    between atoms: C_6  and  C_8
REMARK    6  A    between atoms: C_8  and  C_9
REMARK    7  A    between atoms: C_20  and  C_21
REMARK    8  A    between atoms: C_21  and  N_22
REMARK                            x       y       z     vdW  Elec       q    Type
REMARK                         _______ _______ _______ _____ _____    ______ ____
ROOT
ATOM      1  C   UNL     1       3.482   4.342  18.372  0.00  0.00    +0.000 C 
ATOM      2  C   UNL     1       2.688   3.931  17.113  0.00  0.00    +0.000 C 
ATOM      3  C   UNL     1       2.802   2.957  18.264  0.00  0.00    +0.000 C 
ENDROOT
BRANCH   1   4
ATOM      4  C   UNL     1       2.821   5.588  18.928  0.00  0.00    +0.000 A 
ATOM      5  C   UNL     1       2.303   5.581  20.237  0.00  0.00    +0.000 A 
ATOM      6  C   UNL     1       1.700   6.728  20.770  0.00  0.00    +0.000 A 
ATOM      7  C   UNL     1       1.590   7.889  19.995  0.00  0.00    +0.000 A 
ATOM      8  C   UNL     1       0.992   9.050  20.515  0.00  0.00    +0.000 A 
ATOM      9  C   UNL     1       0.883  10.197  19.721  0.00  0.00    +0.000 A 
ATOM     10  C   UNL     1       1.362  10.193  18.409  0.00  0.00    +0.000 A 
ATOM     11  C   UNL     1       1.966   9.051  17.884  0.00  0.00    +0.000 A 
ATOM     12  C   UNL     1       2.094   7.897  18.674  0.00  0.00    +0.000 A 
ATOM     13  C   UNL     1       2.717   6.757  18.159  0.00  0.00    +0.000 A 
ENDBRANCH   1   4
BRANCH   1  15
ATOM     14  N   UNL     1       5.814   4.710  17.450  0.00  0.00    +0.000 N 
ATOM     15  C   UNL     1       5.007   4.199  18.448  0.00  0.00    +0.000 C 
ATOM     16  O   UNL     1       5.494   3.740  19.471  0.00  0.00    +0.000 OA
BRANCH  14  18
ATOM     17  C   UNL     1       7.742   6.091  18.249  0.00  0.00    +0.000 C 
ATOM     18  C   UNL     1       7.265   4.770  17.644  0.00  0.00    +0.000 C 
ENDBRANCH  14  18
BRANCH  14  19
ATOM     19  C   UNL     1       5.158   5.240  16.243  0.00  0.00    +0.000 C 
ATOM     20  C   UNL     1       5.675   4.787  14.881  0.00  0.00    +0.000 C 
ENDBRANCH  14  19
ENDBRANCH   1  15
BRANCH   3  21
ATOM     21  C   UNL     1       3.565   1.704  17.752  0.00  0.00    +0.000 C 
BRANCH  21  22
ATOM     22  N   UNL     1       4.127   0.908  18.838  0.00  0.00    +0.000 NA
ATOM     23  H   UNL     1       4.849   1.460  19.351  0.00  0.00    +0.000 HD
ATOM     24  H   UNL     1       4.544   0.025  18.467  0.00  0.00    +0.000 HD
ENDBRANCH  21  22
ENDBRANCH   3  21
TORSDOF 6
ENDMDL
MODEL 3
REMARK VINA RESULT:      -7.5      1.182      3.116
REMARK  Name = 
REMARK  8 active torsions:
REMARK  status: ('A' for Active; 'I' for Inactive)
REMARK    1  A    between atoms: C_1  and  C_2
REMARK    2  A    between atoms: C_2  and  N_3
REMARK    3  A    between atoms: N_3  and  C_4
REMARK    4  A    between atoms: C_4  and  C_5
REMARK    5  A    between atoms: C_6  and  C_8
REMARK    6  A    between atoms: C_8  and  C_9
REMARK    7  A    between atoms: C_20  and  C_21
REMARK    8  A    between atoms: C_21  and  N_22
REMARK                            x       y       z     vdW  Elec       q    Type
REMARK                         _______ _______ _______ _____ _____    ______ ____
ROOT
ATOM      1  C   UNL     1       4.485   5.857  17.847  0.00  0.00    +0.000 C 
ATOM      2  C   UNL     1       5.686   6.616  17.245  0.00  0.00    +0.000 C 
ATOM      3  C   UNL     1       4.959   5.595  16.398  0.00  0.00    +0.000 C 
ENDROOT
BRANCH   1   4
ATOM      4  C   UNL     1       3.455   6.896  18.244  0.00  0.00    +0.000 A 
ATOM      5  C   UNL     1       3.143   7.947  17.361  0.00  0.00    +0.000 A 
ATOM      6  C   UNL     1       2.186   8.909  17.708  0.00  0.00    +0.000 A 
ATOM      7  C   UNL     1       1.542   8.843  18.950  0.00  0.00    +0.000 A 
ATOM      8  C   UNL     1       0.576   9.797  19.313  0.00  0.00    +0.000 A 
ATOM      9  C   UNL     1      -0.049   9.720  20.563  0.00  0.00    +0.000 A 
ATOM     10  C   UNL     1       0.287   8.700  21.456  0.00  0.00    +0.000 A 
ATOM     11  C   UNL     1       1.238   7.742  21.104  0.00  0.00    +0.000 A 
ATOM     12  C   UNL     1       1.862   7.800  19.849  0.00  0.00    +0.000 A 
ATOM     13  C   UNL     1       2.800   6.829  19.484  0.00  0.00    +0.000 A 
ENDBRANCH   1   4
BRANCH   1  15
ATOM     14  N   UNL     1       3.828   3.524  18.587  0.00  0.00    +0.000 N 
ATOM     15  C   UNL     1       4.672   4.609  18.719  0.00  0.00    +0.000 C 
ATOM     16  O   UNL     1       5.661   4.548  19.436  0.00  0.00    +0.000 OA
BRANCH  14  18
ATOM     17  C   UNL     1       3.683   2.206  20.709  0.00  0.00    +0.000 C 
ATOM     18  C   UNL     1       4.153   2.261  19.255  0.00  0.00    +0.000 C 
ENDBRANCH  14  18
BRANCH  14  19
ATOM     19  C   UNL     1       2.652   3.672  17.712  0.00  0.00    +0.000 C 
ATOM     20  C   UNL     1       1.268   3.657  18.351  0.00  0.00    +0.000 C 
ENDBRANCH  14  19
ENDBRANCH   1  15
BRANCH   3  21
ATOM     21  C   UNL     1       5.964   4.461  16.054  0.00  0.00    +0.000 C 
BRANCH  21  22
ATOM     22  N   UNL     1       7.332   4.949  15.913  0.00  0.00    +0.000 NA
ATOM     23  H   UNL     1       7.795   4.994  16.848  0.00  0.00    +0.000 HD
ATOM     24  H   UNL     1       7.339   5.890  15.461  0.00  0.00    +0.000 HD
ENDBRANCH  21  22
ENDBRANCH   3  21
TORSDOF 6
ENDMDL
MODEL 4
REMARK VINA RESULT:      -7.5      1.361      1.837
REMARK  Name = 
REMARK  8 active torsions:
REMARK  status: ('A' for Active; 'I' for Inactive)
REMARK    1  A    between atoms: C_1  and  C_2
REMARK    2  A    between atoms: C_2  and  N_3
REMARK    3  A    between atoms: N_3  and  C_4
REMARK    4  A    between atoms: C_4  and  C_5
REMARK    5  A    between atoms: C_6  and  C_8
REMARK    6  A    between atoms: C_8  and  C_9
REMARK    7  A    between atoms: C_20  and  C_21
REMARK    8  A    between atoms: C_21  and  N_22
REMARK                            x       y       z     vdW  Elec       q    Type
REMARK                         _______ _______ _______ _____ _____    ______ ____
ROOT
ATOM      1  C   UNL     1       3.336   4.743  18.500  0.00  0.00    +0.000 C 
ATOM      2  C   UNL     1       2.149   3.770  18.661  0.00  0.00    +0.000 C 
ATOM      3  C   UNL     1       3.343   3.636  19.580  0.00  0.00    +0.000 C 
ENDROOT
BRANCH   1   4
ATOM      4  C   UNL     1       2.794   6.144  18.702  0.00  0.00    +0.000 A 
ATOM      5  C   UNL     1       2.870   7.083  17.656  0.00  0.00    +0.000 A 
ATOM      6  C   UNL     1       2.363   8.378  17.823  0.00  0.00    +0.000 A 
ATOM      7  C   UNL     1       1.791   8.757  19.044  0.00  0.00    +0.000 A 
ATOM      8  C   UNL     1       1.274  10.051  19.228  0.00  0.00    +0.000 A 
ATOM      9  C   UNL     1       0.716  10.413  20.459  0.00  0.00    +0.000 A 
ATOM     10  C   UNL     1       0.674   9.495  21.511  0.00  0.00    +0.000 A 
ATOM     11  C   UNL     1       1.176   8.205  21.338  0.00  0.00    +0.000 A 
ATOM     12  C   UNL     1       1.727   7.824  20.104  0.00  0.00    +0.000 A 
ATOM     13  C   UNL     1       2.212   6.525  19.921  0.00  0.00    +0.000 A 
ENDBRANCH   1   4
BRANCH   1  15
ATOM     14  N   UNL     1       5.763   4.769  17.769  0.00  0.00    +0.000 N 
ATOM     15  C   UNL     1       4.442   4.504  17.464  0.00  0.00    +0.000 C 
ATOM     16  O   UNL     1       4.142   3.953  16.415  0.00  0.00    +0.000 OA
BRANCH  14  18
ATOM     17  C   UNL     1       6.964   5.201  15.617  0.00  0.00    +0.000 C 
ATOM     18  C   UNL     1       6.825   4.325  16.863  0.00  0.00    +0.000 C 
ENDBRANCH  14  18
BRANCH  14  19
ATOM     19  C   UNL     1       6.049   5.442  19.048  0.00  0.00    +0.000 C 
ATOM     20  C   UNL     1       7.500   5.775  19.382  0.00  0.00    +0.000 C 
ENDBRANCH  14  19
ENDBRANCH   1  15
BRANCH   3  21
ATOM     21  C   UNL     1       3.983   2.243  19.327  0.00  0.00    +0.000 C 
BRANCH  21  22
ATOM     22  N   UNL     1       5.087   1.961  20.238  0.00  0.00    +0.000 NA
ATOM     23  H   UNL     1       5.754   1.290  19.797  0.00  0.00    +0.000 HD
ATOM     24  H   UNL     1       4.728   1.574  21.139  0.00  0.00    +0.000 HD
ENDBRANCH  21  22
ENDBRANCH   3  21
TORSDOF 6
ENDMDL
MODEL 5
REMARK VINA RESULT:      -7.3      1.631      3.608
REMARK  Name = 
REMARK  8 active torsions:
REMARK  status: ('A' for Active; 'I' for Inactive)
REMARK    1  A    between atoms: C_1  and  C_2
REMARK    2  A    between atoms: C_2  and  N_3
REMARK    3  A    between atoms: N_3  and  C_4
REMARK    4  A    between atoms: C_4  and  C_5
REMARK    5  A    between atoms: C_6  and  C_8
REMARK    6  A    between atoms: C_8  and  C_9
REMARK    7  A    between atoms: C_20  and  C_21
REMARK    8  A    between atoms: C_21  and  N_22
REMARK                            x       y       z     vdW  Elec       q    Type
REMARK                         _______ _______ _______ _____ _____    ______ ____
ROOT
ATOM      1  C   UNL     1       3.939   5.507  18.308  0.00  0.00    +0.000 C 
ATOM      2  C   UNL     1       5.137   5.578  19.279  0.00  0.00    +0.000 C 
ATOM      3  C   UNL     1       5.395   5.568  17.789  0.00  0.00    +0.000 C 
ENDROOT
BRANCH   1   4
ATOM      4  C   UNL     1       3.069   6.717  18.585  0.00  0.00    +0.000 A 
ATOM      5  C   UNL     1       2.900   7.701  17.592  0.00  0.00    +0.000 A 
ATOM      6  C   UNL     1       2.090   8.819  17.828  0.00  0.00    +0.000 A 
ATOM      7  C   UNL     1       1.454   8.978  19.065  0.00  0.00    +0.000 A 
ATOM      8  C   UNL     1       0.635  10.091  19.318  0.00  0.00    +0.000 A 
ATOM      9  C   UNL     1       0.017  10.237  20.565  0.00  0.00    +0.000 A 
ATOM     10  C   UNL     1       0.214   9.282  21.565  0.00  0.00    +0.000 A 
ATOM     11  C   UNL     1       1.018   8.168  21.324  0.00  0.00    +0.000 A 
ATOM     12  C   UNL     1       1.633   8.002  20.073  0.00  0.00    +0.000 A 
ATOM     13  C   UNL     1       2.423   6.876  19.820  0.00  0.00    +0.000 A 
ENDBRANCH   1   4
BRANCH   1  15
ATOM     14  N   UNL     1       2.950   3.252  18.906  0.00  0.00    +0.000 N 
ATOM     15  C   UNL     1       3.280   4.174  17.933  0.00  0.00    +0.000 C 
ATOM     16  O   UNL     1       2.936   4.006  16.771  0.00  0.00    +0.000 OA
BRANCH  14  18
ATOM     17  C   UNL     1       0.624   2.340  18.759  0.00  0.00    +0.000 C 
ATOM     18  C   UNL     1       2.121   2.094  18.564  0.00  0.00    +0.000 C 
ENDBRANCH  14  18
BRANCH  14  19
ATOM     19  C   UNL     1       3.403   3.517  20.283  0.00  0.00    +0.000 C 
ATOM     20  C   UNL     1       2.357   3.575  21.391  0.00  0.00    +0.000 C 
ENDBRANCH  14  19
ENDBRANCH   1  15
BRANCH   3  21
ATOM     21  C   UNL     1       6.204   4.284  17.455  0.00  0.00    +0.000 C 
BRANCH  21  22
ATOM     22  N   UNL     1       7.552   4.312  18.011  0.00  0.00    +0.000 NA
ATOM     23  H   UNL     1       7.589   3.750  18.891  0.00  0.00    +0.000 HD
ATOM     24  H   UNL     1       7.850   5.296  18.199  0.00  0.00    +0.000 HD
ENDBRANCH  21  22
ENDBRANCH   3  21
TORSDOF 6
ENDMDL
MODEL 6
REMARK VINA RESULT:      -7.3      1.488      2.619
REMARK  Name = 
REMARK  8 active torsions:
REMARK  status: ('A' for Active; 'I' for Inactive)
REMARK    1  A    between atoms: C_1  and  C_2
REMARK    2  A    between atoms: C_2  and  N_3
REMARK    3  A    between atoms: N_3  and  C_4
REMARK    4  A    between atoms: C_4  and  C_5
REMARK    5  A    between atoms: C_6  and  C_8
REMARK    6  A    between atoms: C_8  and  C_9
REMARK    7  A    between atoms: C_20  and  C_21
REMARK    8  A    between atoms: C_21  and  N_22
REMARK                            x       y       z     vdW  Elec       q    Type
REMARK                         _______ _______ _______ _____ _____    ______ ____
ROOT
ATOM      1  C   UNL     1       3.022   4.414  18.943  0.00  0.00    +0.000 C 
ATOM      2  C   UNL     1       2.081   3.370  19.581  0.00  0.00    +0.000 C 
ATOM      3  C   UNL     1       3.543   3.377  19.966  0.00  0.00    +0.000 C 
ENDROOT
BRANCH   1   4
ATOM      4  C   UNL     1       2.477   5.782  19.300  0.00  0.00    +0.000 A 
ATOM      5  C   UNL     1       1.890   5.995  20.562  0.00  0.00    +0.000 A 
ATOM      6  C   UNL     1       1.392   7.257  20.912  0.00  0.00    +0.000 A 
ATOM      7  C   UNL     1       1.458   8.316  19.999  0.00  0.00    +0.000 A 
ATOM      8  C   UNL     1       0.968   9.590  20.334  0.00  0.00    +0.000 A 
ATOM      9  C   UNL     1       1.034  10.633  19.405  0.00  0.00    +0.000 A 
ATOM     10  C   UNL     1       1.581  10.414  18.138  0.00  0.00    +0.000 A 
ATOM     11  C   UNL     1       2.079   9.157  17.796  0.00  0.00    +0.000 A 
ATOM     12  C   UNL     1       2.032   8.105  18.724  0.00  0.00    +0.000 A 
ATOM     13  C   UNL     1       2.549   6.850  18.392  0.00  0.00    +0.000 A 
ENDBRANCH   1   4
BRANCH   1  15
ATOM     14  N   UNL     1       4.984   4.513  17.342  0.00  0.00    +0.000 N 
ATOM     15  C   UNL     1       3.659   4.192  17.566  0.00  0.00    +0.000 C 
ATOM     16  O   UNL     1       3.006   3.605  16.715  0.00  0.00    +0.000 OA
BRANCH  14  18
ATOM     17  C   UNL     1       5.644   5.166  15.018  0.00  0.00    +0.000 C 
ATOM     18  C   UNL     1       5.638   4.088  16.102  0.00  0.00    +0.000 C 
ENDBRANCH  14  18
BRANCH  14  19
ATOM     19  C   UNL     1       5.706   5.226  18.409  0.00  0.00    +0.000 C 
ATOM     20  C   UNL     1       7.230   5.188  18.402  0.00  0.00    +0.000 C 
ENDBRANCH  14  19
ENDBRANCH   1  15
BRANCH   3  21
ATOM     21  C   UNL     1       4.158   2.021  19.523  0.00  0.00    +0.000 C 
BRANCH  21  22
ATOM     22  N   UNL     1       5.218   1.568  20.418  0.00  0.00    +0.000 NA
ATOM     23  H   UNL     1       4.884   1.586  21.407  0.00  0.00    +0.000 HD
ATOM     24  H   UNL     1       6.066   2.169  20.313  0.00  0.00    +0.000 HD
ENDBRANCH  21  22
ENDBRANCH   3  21
TORSDOF 6
ENDMDL
MODEL 7
REMARK VINA RESULT:      -7.3      1.411      3.202
REMARK  Name = 
REMARK  8 active torsions:
REMARK  status: ('A' for Active; 'I' for Inactive)
REMARK    1  A    between atoms: C_1  and  C_2
REMARK    2  A    between atoms: C_2  and  N_3
REMARK    3  A    between atoms: N_3  and  C_4
REMARK    4  A    between atoms: C_4  and  C_5
REMARK    5  A    between atoms: C_6  and  C_8
REMARK    6  A    between atoms: C_8  and  C_9
REMARK    7  A    between atoms: C_20  and  C_21
REMARK    8  A    between atoms: C_21  and  N_22
REMARK                            x       y       z     vdW  Elec       q    Type
REMARK                         _______ _______ _______ _____ _____    ______ ____
ROOT
ATOM      1  C   UNL     1       3.794   5.871  18.327  0.00  0.00    +0.000 C 
ATOM      2  C   UNL     1       4.985   6.365  17.479  0.00  0.00    +0.000 C 
ATOM      3  C   UNL     1       4.087   5.282  16.927  0.00  0.00    +0.000 C 
ENDROOT
BRANCH   1   4
ATOM      4  C   UNL     1       2.907   7.071  18.592  0.00  0.00    +0.000 A 
ATOM      5  C   UNL     1       2.716   8.037  17.586  0.00  0.00    +0.000 A 
ATOM      6  C   UNL     1       1.890   9.146  17.811  0.00  0.00    +0.000 A 
ATOM      7  C   UNL     1       1.259   9.313  19.049  0.00  0.00    +0.000 A 
ATOM      8  C   UNL     1       0.424  10.416  19.291  0.00  0.00    +0.000 A 
ATOM      9  C   UNL     1      -0.190  10.570  20.539  0.00  0.00    +0.000 A 
ATOM     10  C   UNL     1       0.028   9.633  21.551  0.00  0.00    +0.000 A 
ATOM     11  C   UNL     1       0.848   8.528  21.321  0.00  0.00    +0.000 A 
ATOM     12  C   UNL     1       1.459   8.354  20.070  0.00  0.00    +0.000 A 
ATOM     13  C   UNL     1       2.265   7.237  19.828  0.00  0.00    +0.000 A 
ENDBRANCH   1   4
BRANCH   1  15
ATOM     14  N   UNL     1       2.996   3.841  19.618  0.00  0.00    +0.000 N 
ATOM     15  C   UNL     1       3.965   4.804  19.416  0.00  0.00    +0.000 C 
ATOM     16  O   UNL     1       5.033   4.749  20.008  0.00  0.00    +0.000 OA
BRANCH  14  18
ATOM     17  C   UNL     1       2.400   2.679  21.752  0.00  0.00    +0.000 C 
ATOM     18  C   UNL     1       3.271   2.701  20.496  0.00  0.00    +0.000 C 
ENDBRANCH  14  18
BRANCH  14  19
ATOM     19  C   UNL     1       1.731   3.976  18.875  0.00  0.00    +0.000 C 
ATOM     20  C   UNL     1       0.977   2.706  18.494  0.00  0.00    +0.000 C 
ENDBRANCH  14  19
ENDBRANCH   1  15
BRANCH   3  21
ATOM     21  C   UNL     1       4.947   4.002  16.735  0.00  0.00    +0.000 C 
BRANCH  21  22
ATOM     22  N   UNL     1       6.362   4.234  17.005  0.00  0.00    +0.000 NA
ATOM     23  H   UNL     1       6.480   4.680  17.942  0.00  0.00    +0.000 HD
ATOM     24  H   UNL     1       6.781   4.838  16.263  0.00  0.00    +0.000 HD
ENDBRANCH  21  22
ENDBRANCH   3  21
TORSDOF 6
ENDMDL
MODEL 8
REMARK VINA RESULT:      -7.3      3.187      4.847
REMARK  Name = 
REMARK  8 active torsions:
REMARK  status: ('A' for Active; 'I' for Inactive)
REMARK    1  A    between atoms: C_1  and  C_2
REMARK    2  A    between atoms: C_2  and  N_3
REMARK    3  A    between atoms: N_3  and  C_4
REMARK    4  A    between atoms: C_4  and  C_5
REMARK    5  A    between atoms: C_6  and  C_8
REMARK    6  A    between atoms: C_8  and  C_9
REMARK    7  A    between atoms: C_20  and  C_21
REMARK    8  A    between atoms: C_21  and  N_22
REMARK                            x       y       z     vdW  Elec       q    Type
REMARK                         _______ _______ _______ _____ _____    ______ ____
ROOT
ATOM      1  C   UNL     1       5.318   4.854  16.083  0.00  0.00    +0.000 C 
ATOM      2  C   UNL     1       4.992   4.305  14.677  0.00  0.00    +0.000 C 
ATOM      3  C   UNL     1       6.384   4.119  15.237  0.00  0.00    +0.000 C 
ENDROOT
BRANCH   1   4
ATOM      4  C   UNL     1       4.371   4.179  17.055  0.00  0.00    +0.000 A 
ATOM      5  C   UNL     1       4.253   2.776  17.059  0.00  0.00    +0.000 A 
ATOM      6  C   UNL     1       3.391   2.137  17.960  0.00  0.00    +0.000 A 
ATOM      7  C   UNL     1       2.623   2.892  18.854  0.00  0.00    +0.000 A 
ATOM      8  C   UNL     1       1.756   2.268  19.767  0.00  0.00    +0.000 A 
ATOM      9  C   UNL     1       0.989   3.040  20.646  0.00  0.00    +0.000 A 
ATOM     10  C   UNL     1       1.076   4.434  20.618  0.00  0.00    +0.000 A 
ATOM     11  C   UNL     1       1.939   5.066  19.722  0.00  0.00    +0.000 A 
ATOM     12  C   UNL     1       2.724   4.303  18.844  0.00  0.00    +0.000 A 
ATOM     13  C   UNL     1       3.606   4.931  17.960  0.00  0.00    +0.000 A 
ENDBRANCH   1   4
BRANCH   1  15
ATOM     14  N   UNL     1       6.727   6.652  17.181  0.00  0.00    +0.000 N 
ATOM     15  C   UNL     1       5.711   6.320  16.307  0.00  0.00    +0.000 C 
ATOM     16  O   UNL     1       5.194   7.172  15.597  0.00  0.00    +0.000 OA
BRANCH  14  18
ATOM     17  C   UNL     1       8.336   8.234  18.262  0.00  0.00    +0.000 C 
ATOM     18  C   UNL     1       7.243   8.022  17.214  0.00  0.00    +0.000 C 
ENDBRANCH  14  18
BRANCH  14  19
ATOM     19  C   UNL     1       7.298   5.575  18.009  0.00  0.00    +0.000 C 
ATOM     20  C   UNL     1       6.789   5.414  19.438  0.00  0.00    +0.000 C 
ENDBRANCH  14  19
ENDBRANCH   1  15
BRANCH   3  21
ATOM     21  C   UNL     1       7.373   4.884  14.314  0.00  0.00    +0.000 C 
BRANCH  21  22
ATOM     22  N   UNL     1       7.141   4.615  12.899  0.00  0.00    +0.000 NA
ATOM     23  H   UNL     1       8.045   4.402  12.422  0.00  0.00    +0.000 HD
ATOM     24  H   UNL     1       6.675   5.431  12.443  0.00  0.00    +0.000 HD
ENDBRANCH  21  22
ENDBRANCH   3  21
TORSDOF 6
ENDMDL
MODEL 9
REMARK VINA RESULT:      -7.1      1.676      2.396
REMARK  Name = 
REMARK  8 active torsions:
REMARK  status: ('A' for Active; 'I' for Inactive)
REMARK    1  A    between atoms: C_1  and  C_2
REMARK    2  A    between atoms: C_2  and  N_3
REMARK    3  A    between atoms: N_3  and  C_4
REMARK    4  A    between atoms: C_4  and  C_5
REMARK    5  A    between atoms: C_6  and  C_8
REMARK    6  A    between atoms: C_8  and  C_9
REMARK    7  A    between atoms: C_20  and  C_21
REMARK    8  A    between atoms: C_21  and  N_22
REMARK                            x       y       z     vdW  Elec       q    Type
REMARK                         _______ _______ _______ _____ _____    ______ ____
ROOT
ATOM      1  C   UNL     1       2.603   5.512  19.822  0.00  0.00    +0.000 C 
ATOM      2  C   UNL     1       1.339   4.627  19.811  0.00  0.00    +0.000 C 
ATOM      3  C   UNL     1       2.190   4.682  21.060  0.00  0.00    +0.000 C 
ENDROOT
BRANCH   1   4
ATOM      4  C   UNL     1       2.154   6.933  19.545  0.00  0.00    +0.000 A 
ATOM      5  C   UNL     1       2.340   7.492  18.266  0.00  0.00    +0.000 A 
ATOM      6  C   UNL     1       1.919   8.799  17.992  0.00  0.00    +0.000 A 
ATOM      7  C   UNL     1       1.325   9.572  18.997  0.00  0.00    +0.000 A 
ATOM      8  C   UNL     1       0.894  10.884  18.739  0.00  0.00    +0.000 A 
ATOM      9  C   UNL     1       0.311  11.644  19.759  0.00  0.00    +0.000 A 
ATOM     10  C   UNL     1       0.160  11.105  21.039  0.00  0.00    +0.000 A 
ATOM     11  C   UNL     1       0.577   9.801  21.306  0.00  0.00    +0.000 A 
ATOM     12  C   UNL     1       1.150   9.023  20.288  0.00  0.00    +0.000 A 
ATOM     13  C   UNL     1       1.549   7.708  20.547  0.00  0.00    +0.000 A 
ENDBRANCH   1   4
BRANCH   1  15
ATOM     14  N   UNL     1       3.980   4.256  18.104  0.00  0.00    +0.000 N 
ATOM     15  C   UNL     1       3.940   5.020  19.253  0.00  0.00    +0.000 C 
ATOM     16  O   UNL     1       4.972   5.429  19.767  0.00  0.00    +0.000 OA
BRANCH  14  18
ATOM     17  C   UNL     1       5.284   4.383  15.972  0.00  0.00    +0.000 C 
ATOM     18  C   UNL     1       5.262   3.988  17.449  0.00  0.00    +0.000 C 
ENDBRANCH  14  18
BRANCH  14  19
ATOM     19  C   UNL     1       2.698   3.793  17.545  0.00  0.00    +0.000 C 
ATOM     20  C   UNL     1       2.410   2.295  17.539  0.00  0.00    +0.000 C 
ENDBRANCH  14  19
ENDBRANCH   1  15
BRANCH   3  21
ATOM     21  C   UNL     1       2.750   3.255  21.317  0.00  0.00    +0.000 C 
BRANCH  21  22
ATOM     22  N   UNL     1       1.825   2.421  22.077  0.00  0.00    +0.000 NA
ATOM     23  H   UNL     1       1.152   1.952  21.432  0.00  0.00    +0.000 HD
ATOM     24  H   UNL     1       1.309   2.994  22.782  0.00  0.00    +0.000 HD
ENDBRANCH  21  22
ENDBRANCH   3  21
TORSDOF 6
ENDMDL
