MODEL 1
REMARK VINA RESULT:      -6.4      0.000      0.000
REMARK  Name = 
REMARK  5 active torsions:
REMARK  status: ('A' for Active; 'I' for Inactive)
REMARK    1  A    between atoms: C_1  and  O_2
REMARK    2  A    between atoms: O_2  and  C_3
REMARK    3  A    between atoms: C_3  and  C_5
REMARK    4  A    between atoms: N_10  and  N_11
REMARK    5  A    between atoms: C_15  and  C_16
REMARK                            x       y       z     vdW  Elec       q    Type
REMARK                         _______ _______ _______ _____ _____    ______ ____
ROOT
ATOM      1  C   UNL     1       2.197   3.988  18.627  0.00  0.00    +0.000 A 
ATOM      2  S   UNL     1       2.279   5.701  18.634  0.00  0.00    +0.000 S 
ATOM      3  C   UNL     1       3.701   5.724  17.708  0.00  0.00    +0.000 A 
ATOM      4  N   UNL     1       4.306   6.902  17.405  0.00  0.00    +0.000 NA
ATOM      5  C   UNL     1       5.403   6.780  16.728  0.00  0.00    +0.000 A 
ATOM      6  N   UNL     1       5.939   5.581  16.291  0.00  0.00    +0.000 N 
ATOM      7  C   UNL     1       5.323   4.344  16.549  0.00  0.00    +0.000 A 
ATOM      8  O   UNL     1       5.769   3.282  16.115  0.00  0.00    +0.000 OA
ATOM      9  C   UNL     1       4.111   4.453  17.357  0.00  0.00    +0.000 A 
ATOM     10  C   UNL     1       3.241   3.428  17.888  0.00  0.00    +0.000 A 
ATOM     11  C   UNL     1       3.425   1.949  17.705  0.00  0.00    +0.000 C 
ENDROOT
BRANCH   6  12
ATOM     12  N   UNL     1       7.168   5.607  15.566  0.00  0.00    +0.000 N 
ATOM     13  H   UNL     1       7.634   6.493  15.768  0.00  0.00    +0.000 HD
ATOM     14  H   UNL     1       6.913   5.663  14.571  0.00  0.00    +0.000 HD
ENDBRANCH   6  12
BRANCH   1  15
ATOM     15  C   UNL     1       1.134   3.284  19.345  0.00  0.00    +0.000 C 
ATOM     16  O   UNL     1       0.363   2.476  18.842  0.00  0.00    +0.000 OA
BRANCH  15  18
ATOM     17  C   UNL     1       1.965   2.858  21.504  0.00  0.00    +0.000 C 
ATOM     18  O   UNL     1       1.103   3.629  20.667  0.00  0.00    +0.000 OA
ENDBRANCH  15  18
ENDBRANCH   1  15
TORSDOF 3
ENDMDL
MODEL 2
REMARK VINA RESULT:      -6.3      3.205      5.678
REMARK  Name = 
REMARK  5 active torsions:
REMARK  status: ('A' for Active; 'I' for Inactive)
REMARK    1  A    between atoms: C_1  and  O_2
REMARK    2  A    between atoms: O_2  and  C_3
REMARK    3  A    between atoms: C_3  and  C_5
REMARK    4  A    between atoms: N_10  and  N_11
REMARK    5  A    between atoms: C_15  and  C_16
REMARK                            x       y       z     vdW  Elec       q    Type
REMARK                         _______ _______ _______ _____ _____    ______ ____
ROOT
ATOM      1  C   UNL     1       4.913   5.734  17.504  0.00  0.00    +0.000 A 
ATOM      2  S   UNL     1       5.675   4.228  17.803  0.00  0.00    +0.000 S 
ATOM      3  C   UNL     1       4.568   3.809  19.020  0.00  0.00    +0.000 A 
ATOM      4  N   UNL     1       4.705   2.643  19.703  0.00  0.00    +0.000 NA
ATOM      5  C   UNL     1       3.821   2.461  20.631  0.00  0.00    +0.000 A 
ATOM      6  N   UNL     1       2.781   3.328  20.920  0.00  0.00    +0.000 N 
ATOM      7  C   UNL     1       2.582   4.526  20.211  0.00  0.00    +0.000 A 
ATOM      8  O   UNL     1       1.627   5.271  20.430  0.00  0.00    +0.000 OA
ATOM      9  C   UNL     1       3.599   4.777  19.193  0.00  0.00    +0.000 A 
ATOM     10  C   UNL     1       3.788   5.909  18.314  0.00  0.00    +0.000 A 
ATOM     11  C   UNL     1       2.921   7.133  18.271  0.00  0.00    +0.000 C 
ENDROOT
BRANCH   6  12
ATOM     12  N   UNL     1       1.893   2.997  21.986  0.00  0.00    +0.000 N 
ATOM     13  H   UNL     1       1.284   2.242  21.666  0.00  0.00    +0.000 HD
ATOM     14  H   UNL     1       1.271   3.808  22.104  0.00  0.00    +0.000 HD
ENDBRANCH   6  12
BRANCH   1  15
ATOM     15  C   UNL     1       5.452   6.665  16.513  0.00  0.00    +0.000 C 
ATOM     16  O   UNL     1       5.253   6.597  15.305  0.00  0.00    +0.000 OA
BRANCH  15  18
ATOM     17  C   UNL     1       7.527   7.232  17.463  0.00  0.00    +0.000 C 
ATOM     18  O   UNL     1       6.209   7.642  17.095  0.00  0.00    +0.000 OA
ENDBRANCH  15  18
ENDBRANCH   1  15
TORSDOF 3
ENDMDL
MODEL 3
REMARK VINA RESULT:      -6.3      3.012      5.645
REMARK  Name = 
REMARK  5 active torsions:
REMARK  status: ('A' for Active; 'I' for Inactive)
REMARK    1  A    between atoms: C_1  and  O_2
REMARK    2  A    between atoms: O_2  and  C_3
REMARK    3  A    between atoms: C_3  and  C_5
REMARK    4  A    between atoms: N_10  and  N_11
REMARK    5  A    between atoms: C_15  and  C_16
REMARK                            x       y       z     vdW  Elec       q    Type
REMARK                         _______ _______ _______ _____ _____    ______ ____
ROOT
ATOM      1  C   UNL     1       4.658   5.391  16.835  0.00  0.00    +0.000 A 
ATOM      2  S   UNL     1       4.785   3.686  16.705  0.00  0.00    +0.000 S 
ATOM      3  C   UNL     1       3.624   3.419  17.912  0.00  0.00    +0.000 A 
ATOM      4  N   UNL     1       3.311   2.155  18.299  0.00  0.00    +0.000 NA
ATOM      5  C   UNL     1       2.441   2.088  19.256  0.00  0.00    +0.000 A 
ATOM      6  N   UNL     1       1.821   3.177  19.843  0.00  0.00    +0.000 N 
ATOM      7  C   UNL     1       2.087   4.499  19.445  0.00  0.00    +0.000 A 
ATOM      8  O   UNL     1       1.497   5.465  19.929  0.00  0.00    +0.000 OA
ATOM      9  C   UNL     1       3.105   4.600  18.403  0.00  0.00    +0.000 A 
ATOM     10  C   UNL     1       3.701   5.763  17.782  0.00  0.00    +0.000 A 
ATOM     11  C   UNL     1       3.372   7.190  18.109  0.00  0.00    +0.000 C 
ENDROOT
BRANCH   6  12
ATOM     12  N   UNL     1       0.891   2.945  20.901  0.00  0.00    +0.000 N 
ATOM     13  H   UNL     1       1.253   3.396  21.743  0.00  0.00    +0.000 HD
ATOM     14  H   UNL     1       0.932   1.937  21.102  0.00  0.00    +0.000 HD
ENDBRANCH   6  12
BRANCH   1  15
ATOM     15  C   UNL     1       5.497   6.272  16.022  0.00  0.00    +0.000 C 
ATOM     16  O   UNL     1       5.092   6.984  15.111  0.00  0.00    +0.000 OA
BRANCH  15  18
ATOM     17  C   UNL     1       7.178   7.168  17.402  0.00  0.00    +0.000 C 
ATOM     18  O   UNL     1       6.808   6.215  16.405  0.00  0.00    +0.000 OA
ENDBRANCH  15  18
ENDBRANCH   1  15
TORSDOF 3
ENDMDL
MODEL 4
REMARK VINA RESULT:      -6.2      2.063      2.423
REMARK  Name = 
REMARK  5 active torsions:
REMARK  status: ('A' for Active; 'I' for Inactive)
REMARK    1  A    between atoms: C_1  and  O_2
REMARK    2  A    between atoms: O_2  and  C_3
REMARK    3  A    between atoms: C_3  and  C_5
REMARK    4  A    between atoms: N_10  and  N_11
REMARK    5  A    between atoms: C_15  and  C_16
REMARK                            x       y       z     vdW  Elec       q    Type
REMARK                         _______ _______ _______ _____ _____    ______ ____
ROOT
ATOM      1  C   UNL     1       2.904   3.636  19.020  0.00  0.00    +0.000 A 
ATOM      2  S   UNL     1       4.429   3.023  19.509  0.00  0.00    +0.000 S 
ATOM      3  C   UNL     1       5.273   4.311  18.797  0.00  0.00    +0.000 A 
ATOM      4  N   UNL     1       6.631   4.347  18.831  0.00  0.00    +0.000 NA
ATOM      5  C   UNL     1       7.154   5.360  18.217  0.00  0.00    +0.000 A 
ATOM      6  N   UNL     1       6.439   6.369  17.597  0.00  0.00    +0.000 N 
ATOM      7  C   UNL     1       5.034   6.390  17.573  0.00  0.00    +0.000 A 
ATOM      8  O   UNL     1       4.396   7.314  17.068  0.00  0.00    +0.000 OA
ATOM      9  C   UNL     1       4.423   5.229  18.214  0.00  0.00    +0.000 A 
ATOM     10  C   UNL     1       3.033   4.846  18.336  0.00  0.00    +0.000 A 
ATOM     11  C   UNL     1       1.866   5.617  17.791  0.00  0.00    +0.000 C 
ENDROOT
BRANCH   6  12
ATOM     12  N   UNL     1       7.160   7.416  16.946  0.00  0.00    +0.000 N 
ATOM     13  H   UNL     1       6.784   7.517  16.002  0.00  0.00    +0.000 HD
ATOM     14  H   UNL     1       8.118   7.065  16.814  0.00  0.00    +0.000 HD
ENDBRANCH   6  12
BRANCH   1  15
ATOM     15  C   UNL     1       1.671   2.906  19.317  0.00  0.00    +0.000 C 
ATOM     16  O   UNL     1       1.232   1.972  18.655  0.00  0.00    +0.000 OA
BRANCH  15  18
ATOM     17  C   UNL     1       1.400   2.702  21.644  0.00  0.00    +0.000 C 
ATOM     18  O   UNL     1       1.056   3.385  20.439  0.00  0.00    +0.000 OA
ENDBRANCH  15  18
ENDBRANCH   1  15
TORSDOF 3
ENDMDL
MODEL 5
REMARK VINA RESULT:      -6.2      3.226      5.754
REMARK  Name = 
REMARK  5 active torsions:
REMARK  status: ('A' for Active; 'I' for Inactive)
REMARK    1  A    between atoms: C_1  and  O_2
REMARK    2  A    between atoms: O_2  and  C_3
REMARK    3  A    between atoms: C_3  and  C_5
REMARK    4  A    between atoms: N_10  and  N_11
REMARK    5  A    between atoms: C_15  and  C_16
REMARK                            x       y       z     vdW  Elec       q    Type
REMARK                         _______ _______ _______ _____ _____    ______ ____
ROOT
ATOM      1  C   UNL     1       5.128   5.766  17.734  0.00  0.00    +0.000 A 
ATOM      2  S   UNL     1       5.914   4.291  18.117  0.00  0.00    +0.000 S 
ATOM      3  C   UNL     1       4.699   3.824  19.205  0.00  0.00    +0.000 A 
ATOM      4  N   UNL     1       4.808   2.662  19.900  0.00  0.00    +0.000 NA
ATOM      5  C   UNL     1       3.835   2.441  20.726  0.00  0.00    +0.000 A 
ATOM      6  N   UNL     1       2.735   3.262  20.897  0.00  0.00    +0.000 N 
ATOM      7  C   UNL     1       2.566   4.453  20.170  0.00  0.00    +0.000 A 
ATOM      8  O   UNL     1       1.563   5.158  20.281  0.00  0.00    +0.000 OA
ATOM      9  C   UNL     1       3.678   4.749  19.269  0.00  0.00    +0.000 A 
ATOM     10  C   UNL     1       3.915   5.892  18.415  0.00  0.00    +0.000 A 
ATOM     11  C   UNL     1       3.007   7.079  18.275  0.00  0.00    +0.000 C 
ENDROOT
BRANCH   6  12
ATOM     12  N   UNL     1       1.749   2.891  21.860  0.00  0.00    +0.000 N 
ATOM     13  H   UNL     1       2.074   2.046  22.334  0.00  0.00    +0.000 HD
ATOM     14  H   UNL     1       0.923   2.595  21.325  0.00  0.00    +0.000 HD
ENDBRANCH   6  12
BRANCH   1  15
ATOM     15  C   UNL     1       5.734   6.722  16.807  0.00  0.00    +0.000 C 
ATOM     16  O   UNL     1       6.606   7.530  17.102  0.00  0.00    +0.000 OA
BRANCH  15  18
ATOM     17  C   UNL     1       5.608   5.426  14.848  0.00  0.00    +0.000 C 
ATOM     18  O   UNL     1       5.213   6.605  15.549  0.00  0.00    +0.000 OA
ENDBRANCH  15  18
ENDBRANCH   1  15
TORSDOF 3
ENDMDL
MODEL 6
REMARK VINA RESULT:      -6.1      2.914      5.599
REMARK  Name = 
REMARK  5 active torsions:
REMARK  status: ('A' for Active; 'I' for Inactive)
REMARK    1  A    between atoms: C_1  and  O_2
REMARK    2  A    between atoms: O_2  and  C_3
REMARK    3  A    between atoms: C_3  and  C_5
REMARK    4  A    between atoms: N_10  and  N_11
REMARK    5  A    between atoms: C_15  and  C_16
REMARK                            x       y       z     vdW  Elec       q    Type
REMARK                         _______ _______ _______ _____ _____    ______ ____
ROOT
ATOM      1  C   UNL     1       5.814   4.605  17.267  0.00  0.00    +0.000 A 
ATOM      2  S   UNL     1       4.699   3.942  16.146  0.00  0.00    +0.000 S 
ATOM      3  C   UNL     1       3.466   3.826  17.306  0.00  0.00    +0.000 A 
ATOM      4  N   UNL     1       2.261   3.292  16.979  0.00  0.00    +0.000 NA
ATOM      5  C   UNL     1       1.422   3.224  17.963  0.00  0.00    +0.000 A 
ATOM      6  N   UNL     1       1.664   3.679  19.247  0.00  0.00    +0.000 N 
ATOM      7  C   UNL     1       2.884   4.273  19.617  0.00  0.00    +0.000 A 
ATOM      8  O   UNL     1       3.082   4.726  20.744  0.00  0.00    +0.000 OA
ATOM      9  C   UNL     1       3.865   4.312  18.535  0.00  0.00    +0.000 A 
ATOM     10  C   UNL     1       5.236   4.770  18.528  0.00  0.00    +0.000 A 
ATOM     11  C   UNL     1       5.974   5.332  19.708  0.00  0.00    +0.000 C 
ENDROOT
BRANCH   6  12
ATOM     12  N   UNL     1       0.643   3.520  20.232  0.00  0.00    +0.000 N 
ATOM     13  H   UNL     1       0.434   4.442  20.619  0.00  0.00    +0.000 HD
ATOM     14  H   UNL     1       1.071   2.998  21.008  0.00  0.00    +0.000 HD
ENDBRANCH   6  12
BRANCH   1  15
ATOM     15  C   UNL     1       7.186   4.916  16.867  0.00  0.00    +0.000 C 
ATOM     16  O   UNL     1       8.152   4.180  17.037  0.00  0.00    +0.000 OA
BRANCH  15  18
ATOM     17  C   UNL     1       7.522   7.226  17.155  0.00  0.00    +0.000 C 
ATOM     18  O   UNL     1       7.272   6.139  16.263  0.00  0.00    +0.000 OA
ENDBRANCH  15  18
ENDBRANCH   1  15
TORSDOF 3
ENDMDL
MODEL 7
REMARK VINA RESULT:      -6.0      1.375      1.376
REMARK  Name = 
REMARK  5 active torsions:
REMARK  status: ('A' for Active; 'I' for Inactive)
REMARK    1  A    between atoms: C_1  and  O_2
REMARK    2  A    between atoms: O_2  and  C_3
REMARK    3  A    between atoms: C_3  and  C_5
REMARK    4  A    between atoms: N_10  and  N_11
REMARK    5  A    between atoms: C_15  and  C_16
REMARK                            x       y       z     vdW  Elec       q    Type
REMARK                         _______ _______ _______ _____ _____    ______ ____
ROOT
ATOM      1  C   UNL     1       2.476   4.010  18.906  0.00  0.00    +0.000 A 
ATOM      2  S   UNL     1       2.144   5.440  18.019  0.00  0.00    +0.000 S 
ATOM      3  C   UNL     1       3.789   5.797  17.810  0.00  0.00    +0.000 A 
ATOM      4  N   UNL     1       4.171   6.929  17.162  0.00  0.00    +0.000 NA
ATOM      5  C   UNL     1       5.453   7.105  17.105  0.00  0.00    +0.000 A 
ATOM      6  N   UNL     1       6.399   6.229  17.608  0.00  0.00    +0.000 N 
ATOM      7  C   UNL     1       6.046   5.030  18.250  0.00  0.00    +0.000 A 
ATOM      8  O   UNL     1       6.887   4.224  18.650  0.00  0.00    +0.000 OA
ATOM      9  C   UNL     1       4.604   4.836  18.373  0.00  0.00    +0.000 A 
ATOM     10  C   UNL     1       3.849   3.784  19.019  0.00  0.00    +0.000 A 
ATOM     11  C   UNL     1       4.437   2.607  19.740  0.00  0.00    +0.000 C 
ENDROOT
BRANCH   6  12
ATOM     12  N   UNL     1       7.779   6.570  17.482  0.00  0.00    +0.000 N 
ATOM     13  H   UNL     1       8.312   5.955  18.100  0.00  0.00    +0.000 HD
ATOM     14  H   UNL     1       7.881   7.509  17.889  0.00  0.00    +0.000 HD
ENDBRANCH   6  12
BRANCH   1  15
ATOM     15  C   UNL     1       1.390   3.196  19.452  0.00  0.00    +0.000 C 
ATOM     16  O   UNL     1       0.838   2.275  18.861  0.00  0.00    +0.000 OA
BRANCH  15  18
ATOM     17  C   UNL     1       1.427   2.649  21.739  0.00  0.00    +0.000 C 
ATOM     18  O   UNL     1       1.059   3.579  20.721  0.00  0.00    +0.000 OA
ENDBRANCH  15  18
ENDBRANCH   1  15
TORSDOF 3
ENDMDL
MODEL 8
REMARK VINA RESULT:      -5.9      2.000      2.809
REMARK  Name = 
REMARK  5 active torsions:
REMARK  status: ('A' for Active; 'I' for Inactive)
REMARK    1  A    between atoms: C_1  and  O_2
REMARK    2  A    between atoms: O_2  and  C_3
REMARK    3  A    between atoms: C_3  and  C_5
REMARK    4  A    between atoms: N_10  and  N_11
REMARK    5  A    between atoms: C_15  and  C_16
REMARK                            x       y       z     vdW  Elec       q    Type
REMARK                         _______ _______ _______ _____ _____    ______ ____
ROOT
ATOM      1  C   UNL     1       2.966   3.568  19.798  0.00  0.00    +0.000 A 
ATOM      2  S   UNL     1       3.929   2.541  18.818  0.00  0.00    +0.000 S 
ATOM      3  C   UNL     1       4.377   3.806  17.780  0.00  0.00    +0.000 A 
ATOM      4  N   UNL     1       5.168   3.564  16.702  0.00  0.00    +0.000 NA
ATOM      5  C   UNL     1       5.403   4.604  15.968  0.00  0.00    +0.000 A 
ATOM      6  N   UNL     1       4.948   5.884  16.233  0.00  0.00    +0.000 N 
ATOM      7  C   UNL     1       4.160   6.183  17.358  0.00  0.00    +0.000 A 
ATOM      8  O   UNL     1       3.799   7.330  17.625  0.00  0.00    +0.000 OA
ATOM      9  C   UNL     1       3.838   5.014  18.172  0.00  0.00    +0.000 A 
ATOM     10  C   UNL     1       3.009   4.890  19.351  0.00  0.00    +0.000 A 
ATOM     11  C   UNL     1       2.265   6.012  20.015  0.00  0.00    +0.000 C 
ENDROOT
BRANCH   6  12
ATOM     12  N   UNL     1       5.279   6.929  15.319  0.00  0.00    +0.000 N 
ATOM     13  H   UNL     1       4.407   7.293  14.928  0.00  0.00    +0.000 HD
ATOM     14  H   UNL     1       5.756   6.477  14.527  0.00  0.00    +0.000 HD
ENDBRANCH   6  12
BRANCH   1  15
ATOM     15  C   UNL     1       2.215   3.034  20.934  0.00  0.00    +0.000 C 
ATOM     16  O   UNL     1       2.706   2.710  22.010  0.00  0.00    +0.000 OA
BRANCH  15  18
ATOM     17  C   UNL     1       0.573   2.508  19.335  0.00  0.00    +0.000 C 
ATOM     18  O   UNL     1       0.880   2.943  20.660  0.00  0.00    +0.000 OA
ENDBRANCH  15  18
ENDBRANCH   1  15
TORSDOF 3
ENDMDL
MODEL 9
REMARK VINA RESULT:      -5.8      2.314      2.966
REMARK  Name = 
REMARK  5 active torsions:
REMARK  status: ('A' for Active; 'I' for Inactive)
REMARK    1  A    between atoms: C_1  and  O_2
REMARK    2  A    between atoms: O_2  and  C_3
REMARK    3  A    between atoms: C_3  and  C_5
REMARK    4  A    between atoms: N_10  and  N_11
REMARK    5  A    between atoms: C_15  and  C_16
REMARK                            x       y       z     vdW  Elec       q    Type
REMARK                         _______ _______ _______ _____ _____    ______ ____
ROOT
ATOM      1  C   UNL     1       3.504   5.732  19.302  0.00  0.00    +0.000 A 
ATOM      2  S   UNL     1       4.772   4.663  19.739  0.00  0.00    +0.000 S 
ATOM      3  C   UNL     1       5.601   4.911  18.279  0.00  0.00    +0.000 A 
ATOM      4  N   UNL     1       6.754   4.240  18.020  0.00  0.00    +0.000 NA
ATOM      5  C   UNL     1       7.266   4.487  16.857  0.00  0.00    +0.000 A 
ATOM      6  N   UNL     1       6.749   5.379  15.934  0.00  0.00    +0.000 N 
ATOM      7  C   UNL     1       5.580   6.121  16.179  0.00  0.00    +0.000 A 
ATOM      8  O   UNL     1       5.148   6.954  15.382  0.00  0.00    +0.000 OA
ATOM      9  C   UNL     1       4.956   5.819  17.464  0.00  0.00    +0.000 A 
ATOM     10  C   UNL     1       3.727   6.307  18.050  0.00  0.00    +0.000 A 
ATOM     11  C   UNL     1       2.786   7.285  17.409  0.00  0.00    +0.000 C 
ENDROOT
BRANCH   6  12
ATOM     12  N   UNL     1       7.420   5.533  14.684  0.00  0.00    +0.000 N 
ATOM     13  H   UNL     1       7.354   6.516  14.411  0.00  0.00    +0.000 HD
ATOM     14  H   UNL     1       6.853   5.027  13.990  0.00  0.00    +0.000 HD
ENDBRANCH   6  12
BRANCH   1  15
ATOM     15  C   UNL     1       2.361   5.944  20.191  0.00  0.00    +0.000 C 
ATOM     16  O   UNL     1       1.796   7.018  20.363  0.00  0.00    +0.000 OA
BRANCH  15  18
ATOM     17  C   UNL     1       1.014   4.019  20.103  0.00  0.00    +0.000 C 
ATOM     18  O   UNL     1       1.984   4.788  20.814  0.00  0.00    +0.000 OA
ENDBRANCH  15  18
ENDBRANCH   1  15
TORSDOF 3
ENDMDL
