MODEL 1
REMARK VINA RESULT:      -9.2      0.000      0.000
REMARK  Name = 
REMARK  4 active torsions:
REMARK  status: ('A' for Active; 'I' for Inactive)
REMARK    1  A    between atoms: C_2  and  C_4
REMARK    2  A    between atoms: C_9  and  C_10
REMARK    3  A    between atoms: C_14  and  C_15
REMARK    4  A    between atoms: C_19  and  C_20
REMARK                            x       y       z     vdW  Elec       q    Type
REMARK                         _______ _______ _______ _____ _____    ______ ____
ROOT
ATOM      1  C   UNL     1       0.551  10.497  19.570  0.00  0.00    +0.000 A 
ATOM      2  C   UNL     1       1.174  11.154  18.504  0.00  0.00    +0.000 A 
ATOM      3  C   UNL     1       2.175  10.512  17.771  0.00  0.00    +0.000 A 
ATOM      4  C   UNL     1       2.550   9.204  18.087  0.00  0.00    +0.000 A 
ATOM      5  C   UNL     1       1.922   8.516  19.132  0.00  0.00    +0.000 A 
ATOM      6  C   UNL     1       0.937   9.183  19.874  0.00  0.00    +0.000 A 
ENDROOT
BRANCH   1  12
ATOM      7  C   UNL     1      -3.523  12.707  23.320  0.00  0.00    +0.000 A 
ATOM      8  C   UNL     1      -4.063  13.294  22.166  0.00  0.00    +0.000 A 
ATOM      9  C   UNL     1      -3.471  13.114  20.909  0.00  0.00    +0.000 A 
ATOM     10  C   UNL     1      -2.327  12.314  20.872  0.00  0.00    +0.000 A 
ATOM     11  N   UNL     1      -1.506  11.920  19.848  0.00  0.00    +0.000 N 
ATOM     12  C   UNL     1      -0.516  11.112  20.361  0.00  0.00    +0.000 A 
ATOM     13  N   UNL     1      -0.659  10.996  21.670  0.00  0.00    +0.000 NA
ATOM     14  C   UNL     1      -1.777  11.716  21.998  0.00  0.00    +0.000 A 
ATOM     15  C   UNL     1      -2.377  11.903  23.248  0.00  0.00    +0.000 A 
ATOM     16  H   UNL     1      -1.601  12.189  18.881  0.00  0.00    +0.000 HD
BRANCH   7  18
ATOM     17  N   UNL     1      -3.780  13.928  25.376  0.00  0.00    +0.000 NA
ATOM     18  C   UNL     1      -4.172  12.941  24.640  0.00  0.00    +0.000 C 
ATOM     19  N   UNL     1      -5.159  12.104  25.076  0.00  0.00    +0.000 N 
ATOM     20  H   UNL     1      -4.351  13.973  26.222  0.00  0.00    +0.000 HD
ATOM     21  H   UNL     1      -5.321  12.100  26.075  0.00  0.00    +0.000 HD
ATOM     22  H   UNL     1      -5.133  11.162  24.699  0.00  0.00    +0.000 HD
ENDBRANCH   7  18
ENDBRANCH   1  12
BRANCH   5  23
ATOM     23  C   UNL     1       2.274   7.124  19.415  0.00  0.00    +0.000 A 
ATOM     24  N   UNL     1       3.026   6.329  18.674  0.00  0.00    +0.000 NA
ATOM     25  C   UNL     1       3.065   5.121  19.328  0.00  0.00    +0.000 A 
ATOM     26  C   UNL     1       3.737   3.937  18.992  0.00  0.00    +0.000 A 
ATOM     27  C   UNL     1       3.604   2.829  19.844  0.00  0.00    +0.000 A 
ATOM     28  C   UNL     1       2.801   2.900  20.993  0.00  0.00    +0.000 A 
ATOM     29  C   UNL     1       2.124   4.074  21.338  0.00  0.00    +0.000 A 
ATOM     30  C   UNL     1       2.292   5.161  20.481  0.00  0.00    +0.000 A 
ATOM     31  N   UNL     1       1.805   6.439  20.511  0.00  0.00    +0.000 N 
ATOM     32  H   UNL     1       1.181   6.817  21.212  0.00  0.00    +0.000 HD
BRANCH  27  33
ATOM     33  C   UNL     1       4.309   1.553  19.535  0.00  0.00    +0.000 C 
ATOM     34  N   UNL     1       4.018   0.814  18.511  0.00  0.00    +0.000 NA
ATOM     35  N   UNL     1       5.312   1.103  20.342  0.00  0.00    +0.000 N 
ATOM     36  H   UNL     1       3.291   1.243  17.932  0.00  0.00    +0.000 HD
ATOM     37  H   UNL     1       5.192   1.264  21.334  0.00  0.00    +0.000 HD
ATOM     38  H   UNL     1       5.538   0.136  20.126  0.00  0.00    +0.000 HD
ENDBRANCH  27  33
ENDBRANCH   5  23
TORSDOF 4
ENDMDL
MODEL 2
REMARK VINA RESULT:      -9.1      0.523     10.288
REMARK  Name = 
REMARK  4 active torsions:
REMARK  status: ('A' for Active; 'I' for Inactive)
REMARK    1  A    between atoms: C_2  and  C_4
REMARK    2  A    between atoms: C_9  and  C_10
REMARK    3  A    between atoms: C_14  and  C_15
REMARK    4  A    between atoms: C_19  and  C_20
REMARK                            x       y       z     vdW  Elec       q    Type
REMARK                         _______ _______ _______ _____ _____    ______ ____
ROOT
ATOM      1  C   UNL     1       1.955   8.088  19.232  0.00  0.00    +0.000 A 
ATOM      2  C   UNL     1       2.572   8.739  18.158  0.00  0.00    +0.000 A 
ATOM      3  C   UNL     1       2.202  10.043  17.821  0.00  0.00    +0.000 A 
ATOM      4  C   UNL     1       1.225  10.712  18.562  0.00  0.00    +0.000 A 
ATOM      5  C   UNL     1       0.614  10.092  19.657  0.00  0.00    +0.000 A 
ATOM      6  C   UNL     1       0.977   8.774  19.968  0.00  0.00    +0.000 A 
ENDROOT
BRANCH   1  12
ATOM      7  C   UNL     1       3.878   2.575  20.438  0.00  0.00    +0.000 A 
ATOM      8  C   UNL     1       2.868   2.586  21.412  0.00  0.00    +0.000 A 
ATOM      9  C   UNL     1       2.048   3.707  21.601  0.00  0.00    +0.000 A 
ATOM     10  C   UNL     1       2.287   4.797  20.763  0.00  0.00    +0.000 A 
ATOM     11  N   UNL     1       1.695   6.029  20.655  0.00  0.00    +0.000 N 
ATOM     12  C   UNL     1       2.313   6.730  19.644  0.00  0.00    +0.000 A 
ATOM     13  N   UNL     1       3.288   6.006  19.121  0.00  0.00    +0.000 NA
ATOM     14  C   UNL     1       3.275   4.809  19.787  0.00  0.00    +0.000 A 
ATOM     15  C   UNL     1       4.088   3.685  19.608  0.00  0.00    +0.000 A 
ATOM     16  H   UNL     1       0.942   6.372  21.231  0.00  0.00    +0.000 HD
BRANCH   7  18
ATOM     17  N   UNL     1       5.569   1.057  21.225  0.00  0.00    +0.000 NA
ATOM     18  C   UNL     1       4.741   1.371  20.284  0.00  0.00    +0.000 C 
ATOM     19  N   UNL     1       4.671   0.619  19.147  0.00  0.00    +0.000 N 
ATOM     20  H   UNL     1       6.051   0.189  20.982  0.00  0.00    +0.000 HD
ATOM     21  H   UNL     1       5.479   0.041  18.952  0.00  0.00    +0.000 HD
ATOM     22  H   UNL     1       4.355   1.109  18.316  0.00  0.00    +0.000 HD
ENDBRANCH   7  18
ENDBRANCH   1  12
BRANCH   5  23
ATOM     23  C   UNL     1      -0.362  10.823  20.469  0.00  0.00    +0.000 A 
ATOM     24  N   UNL     1      -0.658  10.606  21.738  0.00  0.00    +0.000 NA
ATOM     25  C   UNL     1      -1.631  11.521  22.063  0.00  0.00    +0.000 A 
ATOM     26  C   UNL     1      -2.284  11.744  23.285  0.00  0.00    +0.000 A 
ATOM     27  C   UNL     1      -3.257  12.754  23.346  0.00  0.00    +0.000 A 
ATOM     28  C   UNL     1      -3.583  13.507  22.208  0.00  0.00    +0.000 A 
ATOM     29  C   UNL     1      -2.942  13.292  20.983  0.00  0.00    +0.000 A 
ATOM     30  C   UNL     1      -1.968  12.296  20.961  0.00  0.00    +0.000 A 
ATOM     31  N   UNL     1      -1.149  11.833  19.967  0.00  0.00    +0.000 N 
ATOM     32  H   UNL     1      -1.137  12.162  19.011  0.00  0.00    +0.000 HD
BRANCH  27  33
ATOM     33  C   UNL     1      -3.969  13.037  24.625  0.00  0.00    +0.000 C 
ATOM     34  N   UNL     1      -4.790  12.202  25.177  0.00  0.00    +0.000 NA
ATOM     35  N   UNL     1      -3.776  14.219  25.277  0.00  0.00    +0.000 N 
ATOM     36  H   UNL     1      -4.843  11.324  24.653  0.00  0.00    +0.000 HD
ATOM     37  H   UNL     1      -3.663  15.037  24.693  0.00  0.00    +0.000 HD
ATOM     38  H   UNL     1      -4.479  14.348  26.000  0.00  0.00    +0.000 HD
ENDBRANCH  27  33
ENDBRANCH   5  23
TORSDOF 4
ENDMDL
MODEL 3
REMARK VINA RESULT:      -9.1      1.049     10.322
REMARK  Name = 
REMARK  4 active torsions:
REMARK  status: ('A' for Active; 'I' for Inactive)
REMARK    1  A    between atoms: C_2  and  C_4
REMARK    2  A    between atoms: C_9  and  C_10
REMARK    3  A    between atoms: C_14  and  C_15
REMARK    4  A    between atoms: C_19  and  C_20
REMARK                            x       y       z     vdW  Elec       q    Type
REMARK                         _______ _______ _______ _____ _____    ______ ____
ROOT
ATOM      1  C   UNL     1       1.980   8.132  19.279  0.00  0.00    +0.000 A 
ATOM      2  C   UNL     1       2.411   8.688  18.070  0.00  0.00    +0.000 A 
ATOM      3  C   UNL     1       2.070  10.002  17.739  0.00  0.00    +0.000 A 
ATOM      4  C   UNL     1       1.308  10.774  18.619  0.00  0.00    +0.000 A 
ATOM      5  C   UNL     1       0.887  10.249  19.846  0.00  0.00    +0.000 A 
ATOM      6  C   UNL     1       1.216   8.921  20.153  0.00  0.00    +0.000 A 
ENDROOT
BRANCH   1  12
ATOM      7  C   UNL     1       3.851   2.603  20.490  0.00  0.00    +0.000 A 
ATOM      8  C   UNL     1       2.808   2.605  21.428  0.00  0.00    +0.000 A 
ATOM      9  C   UNL     1       1.983   3.725  21.600  0.00  0.00    +0.000 A 
ATOM     10  C   UNL     1       2.253   4.824  20.783  0.00  0.00    +0.000 A 
ATOM     11  N   UNL     1       1.667   6.058  20.668  0.00  0.00    +0.000 N 
ATOM     12  C   UNL     1       2.321   6.769  19.688  0.00  0.00    +0.000 A 
ATOM     13  N   UNL     1       3.313   6.049  19.191  0.00  0.00    +0.000 NA
ATOM     14  C   UNL     1       3.274   4.845  19.843  0.00  0.00    +0.000 A 
ATOM     15  C   UNL     1       4.092   3.722  19.680  0.00  0.00    +0.000 A 
ATOM     16  H   UNL     1       0.894   6.396  21.221  0.00  0.00    +0.000 HD
BRANCH   7  18
ATOM     17  N   UNL     1       5.557   1.109  21.291  0.00  0.00    +0.000 NA
ATOM     18  C   UNL     1       4.718   1.399  20.353  0.00  0.00    +0.000 C 
ATOM     19  N   UNL     1       4.639   0.622  19.233  0.00  0.00    +0.000 N 
ATOM     20  H   UNL     1       6.040   0.238  21.062  0.00  0.00    +0.000 HD
ATOM     21  H   UNL     1       5.447   0.043  19.042  0.00  0.00    +0.000 HD
ATOM     22  H   UNL     1       4.311   1.093  18.396  0.00  0.00    +0.000 HD
ENDBRANCH   7  18
ENDBRANCH   1  12
BRANCH   5  23
ATOM     23  C   UNL     1       0.145  11.086  20.791  0.00  0.00    +0.000 A 
ATOM     24  N   UNL     1      -0.954  10.758  21.446  0.00  0.00    +0.000 NA
ATOM     25  C   UNL     1      -1.292  11.858  22.199  0.00  0.00    +0.000 A 
ATOM     26  C   UNL     1      -2.356  12.044  23.094  0.00  0.00    +0.000 A 
ATOM     27  C   UNL     1      -2.476  13.285  23.738  0.00  0.00    +0.000 A 
ATOM     28  C   UNL     1      -1.566  14.321  23.477  0.00  0.00    +0.000 A 
ATOM     29  C   UNL     1      -0.503  14.149  22.584  0.00  0.00    +0.000 A 
ATOM     30  C   UNL     1      -0.400  12.899  21.976  0.00  0.00    +0.000 A 
ATOM     31  N   UNL     1       0.498  12.383  21.082  0.00  0.00    +0.000 N 
ATOM     32  H   UNL     1       1.282  12.878  20.680  0.00  0.00    +0.000 HD
BRANCH  27  33
ATOM     33  C   UNL     1      -3.583  13.525  24.706  0.00  0.00    +0.000 C 
ATOM     34  N   UNL     1      -3.646  14.574  25.463  0.00  0.00    +0.000 NA
ATOM     35  N   UNL     1      -4.597  12.622  24.837  0.00  0.00    +0.000 N 
ATOM     36  H   UNL     1      -2.878  15.223  25.272  0.00  0.00    +0.000 HD
ATOM     37  H   UNL     1      -4.338  11.647  24.759  0.00  0.00    +0.000 HD
ATOM     38  H   UNL     1      -5.144  12.816  25.671  0.00  0.00    +0.000 HD
ENDBRANCH  27  33
ENDBRANCH   5  23
TORSDOF 4
ENDMDL
MODEL 4
REMARK VINA RESULT:      -9.0      1.038      1.352
REMARK  Name = 
REMARK  4 active torsions:
REMARK  status: ('A' for Active; 'I' for Inactive)
REMARK    1  A    between atoms: C_2  and  C_4
REMARK    2  A    between atoms: C_9  and  C_10
REMARK    3  A    between atoms: C_14  and  C_15
REMARK    4  A    between atoms: C_19  and  C_20
REMARK                            x       y       z     vdW  Elec       q    Type
REMARK                         _______ _______ _______ _____ _____    ______ ____
ROOT
ATOM      1  C   UNL     1       0.938  10.202  19.746  0.00  0.00    +0.000 A 
ATOM      2  C   UNL     1       1.224  10.627  18.444  0.00  0.00    +0.000 A 
ATOM      3  C   UNL     1       1.929   9.794  17.571  0.00  0.00    +0.000 A 
ATOM      4  C   UNL     1       2.341   8.525  17.988  0.00  0.00    +0.000 A 
ATOM      5  C   UNL     1       2.042   8.067  19.275  0.00  0.00    +0.000 A 
ATOM      6  C   UNL     1       1.356   8.924  20.148  0.00  0.00    +0.000 A 
ENDROOT
BRANCH   1  12
ATOM      7  C   UNL     1      -2.536  13.032  23.678  0.00  0.00    +0.000 A 
ATOM      8  C   UNL     1      -1.631  14.090  23.506  0.00  0.00    +0.000 A 
ATOM      9  C   UNL     1      -0.530  13.976  22.646  0.00  0.00    +0.000 A 
ATOM     10  C   UNL     1      -0.395  12.762  21.970  0.00  0.00    +0.000 A 
ATOM     11  N   UNL     1       0.529  12.303  21.068  0.00  0.00    +0.000 N 
ATOM     12  C   UNL     1       0.187  11.022  20.697  0.00  0.00    +0.000 A 
ATOM     13  N   UNL     1      -0.901  10.638  21.343  0.00  0.00    +0.000 NA
ATOM     14  C   UNL     1      -1.279  11.702  22.119  0.00  0.00    +0.000 A 
ATOM     15  C   UNL     1      -2.375  11.827  22.980  0.00  0.00    +0.000 A 
ATOM     16  H   UNL     1       1.336  12.812  20.740  0.00  0.00    +0.000 HD
BRANCH   7  18
ATOM     17  N   UNL     1      -3.757  14.241  25.361  0.00  0.00    +0.000 NA
ATOM     18  C   UNL     1      -3.681  13.186  24.617  0.00  0.00    +0.000 C 
ATOM     19  N   UNL     1      -4.632  12.210  24.706  0.00  0.00    +0.000 N 
ATOM     20  H   UNL     1      -4.617  14.211  25.912  0.00  0.00    +0.000 HD
ATOM     21  H   UNL     1      -5.175  12.202  25.559  0.00  0.00    +0.000 HD
ATOM     22  H   UNL     1      -4.326  11.277  24.450  0.00  0.00    +0.000 HD
ENDBRANCH   7  18
ENDBRANCH   1  12
BRANCH   5  23
ATOM     23  C   UNL     1       2.419   6.712  19.682  0.00  0.00    +0.000 A 
ATOM     24  N   UNL     1       3.396   5.977  19.181  0.00  0.00    +0.000 NA
ATOM     25  C   UNL     1       3.361   4.783  19.861  0.00  0.00    +0.000 A 
ATOM     26  C   UNL     1       4.188   3.655  19.743  0.00  0.00    +0.000 A 
ATOM     27  C   UNL     1       3.929   2.549  20.567  0.00  0.00    +0.000 A 
ATOM     28  C   UNL     1       2.856   2.563  21.471  0.00  0.00    +0.000 A 
ATOM     29  C   UNL     1       2.022   3.680  21.596  0.00  0.00    +0.000 A 
ATOM     30  C   UNL     1       2.318   4.768  20.778  0.00  0.00    +0.000 A 
ATOM     31  N   UNL     1       1.740   6.001  20.643  0.00  0.00    +0.000 N 
ATOM     32  H   UNL     1       0.930   6.332  21.151  0.00  0.00    +0.000 HD
BRANCH  27  33
ATOM     33  C   UNL     1       4.788   1.334  20.486  0.00  0.00    +0.000 C 
ATOM     34  N   UNL     1       5.596   0.975  21.432  0.00  0.00    +0.000 NA
ATOM     35  N   UNL     1       4.756   0.536  19.381  0.00  0.00    +0.000 N 
ATOM     36  H   UNL     1       5.526   1.596  22.243  0.00  0.00    +0.000 HD
ATOM     37  H   UNL     1       4.646   1.007  18.493  0.00  0.00    +0.000 HD
ATOM     38  H   UNL     1       5.537  -0.114  19.386  0.00  0.00    +0.000 HD
ENDBRANCH  27  33
ENDBRANCH   5  23
TORSDOF 4
ENDMDL
MODEL 5
REMARK VINA RESULT:      -8.8      3.275     10.575
REMARK  Name = 
REMARK  4 active torsions:
REMARK  status: ('A' for Active; 'I' for Inactive)
REMARK    1  A    between atoms: C_2  and  C_4
REMARK    2  A    between atoms: C_9  and  C_10
REMARK    3  A    between atoms: C_14  and  C_15
REMARK    4  A    between atoms: C_19  and  C_20
REMARK                            x       y       z     vdW  Elec       q    Type
REMARK                         _______ _______ _______ _____ _____    ______ ____
ROOT
ATOM      1  C   UNL     1       0.784   8.903  21.220  0.00  0.00    +0.000 A 
ATOM      2  C   UNL     1       0.013   8.742  22.376  0.00  0.00    +0.000 A 
ATOM      3  C   UNL     1      -0.625   9.842  22.955  0.00  0.00    +0.000 A 
ATOM      4  C   UNL     1      -0.509  11.108  22.376  0.00  0.00    +0.000 A 
ATOM      5  C   UNL     1       0.234  11.290  21.204  0.00  0.00    +0.000 A 
ATOM      6  C   UNL     1       0.889  10.181  20.649  0.00  0.00    +0.000 A 
ENDROOT
BRANCH   1  12
ATOM      7  C   UNL     1       3.369   3.988  19.053  0.00  0.00    +0.000 A 
ATOM      8  C   UNL     1       3.708   4.812  17.969  0.00  0.00    +0.000 A 
ATOM      9  C   UNL     1       3.324   6.159  17.929  0.00  0.00    +0.000 A 
ATOM     10  C   UNL     1       2.601   6.631  19.026  0.00  0.00    +0.000 A 
ATOM     11  N   UNL     1       2.077   7.860  19.331  0.00  0.00    +0.000 N 
ATOM     12  C   UNL     1       1.460   7.786  20.559  0.00  0.00    +0.000 A 
ATOM     13  N   UNL     1       1.547   6.557  21.037  0.00  0.00    +0.000 NA
ATOM     14  C   UNL     1       2.259   5.838  20.113  0.00  0.00    +0.000 A 
ATOM     15  C   UNL     1       2.647   4.494  20.143  0.00  0.00    +0.000 A 
ATOM     16  H   UNL     1       2.123   8.681  18.746  0.00  0.00    +0.000 HD
BRANCH   7  18
ATOM     17  N   UNL     1       4.838   2.194  19.693  0.00  0.00    +0.000 NA
ATOM     18  C   UNL     1       3.778   2.556  19.047  0.00  0.00    +0.000 C 
ATOM     19  N   UNL     1       3.051   1.638  18.346  0.00  0.00    +0.000 N 
ATOM     20  H   UNL     1       4.953   1.181  19.622  0.00  0.00    +0.000 HD
ATOM     21  H   UNL     1       3.537   0.785  18.103  0.00  0.00    +0.000 HD
ATOM     22  H   UNL     1       2.525   2.004  17.559  0.00  0.00    +0.000 HD
ENDBRANCH   7  18
ENDBRANCH   1  12
BRANCH   5  23
ATOM     23  C   UNL     1       0.297  12.606  20.567  0.00  0.00    +0.000 A 
ATOM     24  N   UNL     1       1.288  13.088  19.838  0.00  0.00    +0.000 NA
ATOM     25  C   UNL     1       0.907  14.356  19.468  0.00  0.00    +0.000 A 
ATOM     26  C   UNL     1       1.574  15.300  18.672  0.00  0.00    +0.000 A 
ATOM     27  C   UNL     1       0.957  16.541  18.450  0.00  0.00    +0.000 A 
ATOM     28  C   UNL     1      -0.288  16.837  19.027  0.00  0.00    +0.000 A 
ATOM     29  C   UNL     1      -0.962  15.905  19.824  0.00  0.00    +0.000 A 
ATOM     30  C   UNL     1      -0.330  14.677  20.010  0.00  0.00    +0.000 A 
ATOM     31  N   UNL     1      -0.693  13.552  20.700  0.00  0.00    +0.000 N 
ATOM     32  H   UNL     1      -1.540  13.438  21.239  0.00  0.00    +0.000 HD
BRANCH  27  33
ATOM     33  C   UNL     1       1.622  17.570  17.602  0.00  0.00    +0.000 C 
ATOM     34  N   UNL     1       2.880  17.533  17.300  0.00  0.00    +0.000 NA
ATOM     35  N   UNL     1       0.908  18.619  17.101  0.00  0.00    +0.000 N 
ATOM     36  H   UNL     1       3.332  16.694  17.672  0.00  0.00    +0.000 HD
ATOM     37  H   UNL     1       0.192  19.001  17.705  0.00  0.00    +0.000 HD
ATOM     38  H   UNL     1       1.532  19.333  16.734  0.00  0.00    +0.000 HD
ENDBRANCH  27  33
ENDBRANCH   5  23
TORSDOF 4
ENDMDL
MODEL 6
REMARK VINA RESULT:      -8.7      3.526     11.169
REMARK  Name = 
REMARK  4 active torsions:
REMARK  status: ('A' for Active; 'I' for Inactive)
REMARK    1  A    between atoms: C_2  and  C_4
REMARK    2  A    between atoms: C_9  and  C_10
REMARK    3  A    between atoms: C_14  and  C_15
REMARK    4  A    between atoms: C_19  and  C_20
REMARK                            x       y       z     vdW  Elec       q    Type
REMARK                         _______ _______ _______ _____ _____    ______ ____
ROOT
ATOM      1  C   UNL     1       3.286   4.955  18.985  0.00  0.00    +0.000 A 
ATOM      2  C   UNL     1       2.909   3.847  19.751  0.00  0.00    +0.000 A 
ATOM      3  C   UNL     1       2.062   4.008  20.850  0.00  0.00    +0.000 A 
ATOM      4  C   UNL     1       1.575   5.274  21.184  0.00  0.00    +0.000 A 
ATOM      5  C   UNL     1       1.916   6.393  20.417  0.00  0.00    +0.000 A 
ATOM      6  C   UNL     1       2.786   6.220  19.332  0.00  0.00    +0.000 A 
ENDROOT
BRANCH   1  12
ATOM      7  C   UNL     1       6.340   4.155  13.928  0.00  0.00    +0.000 A 
ATOM      8  C   UNL     1       7.336   4.901  14.575  0.00  0.00    +0.000 A 
ATOM      9  C   UNL     1       7.149   5.398  15.872  0.00  0.00    +0.000 A 
ATOM     10  C   UNL     1       5.929   5.099  16.480  0.00  0.00    +0.000 A 
ATOM     11  N   UNL     1       5.410   5.402  17.712  0.00  0.00    +0.000 N 
ATOM     12  C   UNL     1       4.154   4.846  17.812  0.00  0.00    +0.000 A 
ATOM     13  N   UNL     1       3.843   4.224  16.688  0.00  0.00    +0.000 NA
ATOM     14  C   UNL     1       4.930   4.357  15.864  0.00  0.00    +0.000 A 
ATOM     15  C   UNL     1       5.127   3.866  14.569  0.00  0.00    +0.000 A 
ATOM     16  H   UNL     1       5.865   5.954  18.423  0.00  0.00    +0.000 HD
BRANCH   7  18
ATOM     17  N   UNL     1       6.031   2.552  12.162  0.00  0.00    +0.000 NA
ATOM     18  C   UNL     1       6.570   3.663  12.541  0.00  0.00    +0.000 C 
ATOM     19  N   UNL     1       7.363   4.372  11.685  0.00  0.00    +0.000 N 
ATOM     20  H   UNL     1       6.252   2.381  11.179  0.00  0.00    +0.000 HD
ATOM     21  H   UNL     1       7.747   3.851  10.908  0.00  0.00    +0.000 HD
ATOM     22  H   UNL     1       8.065   4.960  12.123  0.00  0.00    +0.000 HD
ENDBRANCH   7  18
ENDBRANCH   1  12
BRANCH   5  23
ATOM     23  C   UNL     1       1.349   7.705  20.734  0.00  0.00    +0.000 A 
ATOM     24  N   UNL     1       0.638   8.025  21.801  0.00  0.00    +0.000 NA
ATOM     25  C   UNL     1       0.314   9.353  21.659  0.00  0.00    +0.000 A 
ATOM     26  C   UNL     1      -0.408  10.200  22.514  0.00  0.00    +0.000 A 
ATOM     27  C   UNL     1      -0.603  11.534  22.122  0.00  0.00    +0.000 A 
ATOM     28  C   UNL     1      -0.104  12.003  20.897  0.00  0.00    +0.000 A 
ATOM     29  C   UNL     1       0.615  11.168  20.035  0.00  0.00    +0.000 A 
ATOM     30  C   UNL     1       0.807   9.855  20.461  0.00  0.00    +0.000 A 
ATOM     31  N   UNL     1       1.457   8.791  19.897  0.00  0.00    +0.000 N 
ATOM     32  H   UNL     1       1.923   8.793  19.000  0.00  0.00    +0.000 HD
BRANCH  27  33
ATOM     33  C   UNL     1      -1.353  12.474  23.003  0.00  0.00    +0.000 C 
ATOM     34  N   UNL     1      -0.855  13.589  23.434  0.00  0.00    +0.000 NA
ATOM     35  N   UNL     1      -2.625  12.184  23.400  0.00  0.00    +0.000 N 
ATOM     36  H   UNL     1       0.081  13.755  23.054  0.00  0.00    +0.000 HD
ATOM     37  H   UNL     1      -2.821  11.211  23.595  0.00  0.00    +0.000 HD
ATOM     38  H   UNL     1      -2.914  12.801  24.154  0.00  0.00    +0.000 HD
ENDBRANCH  27  33
ENDBRANCH   5  23
TORSDOF 4
ENDMDL
MODEL 7
REMARK VINA RESULT:      -8.7      3.640      5.234
REMARK  Name = 
REMARK  4 active torsions:
REMARK  status: ('A' for Active; 'I' for Inactive)
REMARK    1  A    between atoms: C_2  and  C_4
REMARK    2  A    between atoms: C_9  and  C_10
REMARK    3  A    between atoms: C_14  and  C_15
REMARK    4  A    between atoms: C_19  and  C_20
REMARK                            x       y       z     vdW  Elec       q    Type
REMARK                         _______ _______ _______ _____ _____    ______ ____
ROOT
ATOM      1  C   UNL     1       0.957  10.256  20.143  0.00  0.00    +0.000 A 
ATOM      2  C   UNL     1       0.374   9.733  21.303  0.00  0.00    +0.000 A 
ATOM      3  C   UNL     1       0.505   8.375  21.604  0.00  0.00    +0.000 A 
ATOM      4  C   UNL     1       1.230   7.533  20.758  0.00  0.00    +0.000 A 
ATOM      5  C   UNL     1       1.845   8.038  19.607  0.00  0.00    +0.000 A 
ATOM      6  C   UNL     1       1.684   9.397  19.305  0.00  0.00    +0.000 A 
ENDROOT
BRANCH   1  12
ATOM      7  C   UNL     1       1.226  15.973  18.476  0.00  0.00    +0.000 A 
ATOM      8  C   UNL     1      -0.093  16.029  18.950  0.00  0.00    +0.000 A 
ATOM      9  C   UNL     1      -0.725  14.898  19.483  0.00  0.00    +0.000 A 
ATOM     10  C   UNL     1       0.032  13.725  19.522  0.00  0.00    +0.000 A 
ATOM     11  N   UNL     1      -0.245  12.459  19.968  0.00  0.00    +0.000 N 
ATOM     12  C   UNL     1       0.870  11.672  19.785  0.00  0.00    +0.000 A 
ATOM     13  N   UNL     1       1.834  12.377  19.220  0.00  0.00    +0.000 NA
ATOM     14  C   UNL     1       1.340  13.646  19.065  0.00  0.00    +0.000 A 
ATOM     15  C   UNL     1       1.962  14.781  18.535  0.00  0.00    +0.000 A 
ATOM     16  H   UNL     1      -1.125  12.150  20.353  0.00  0.00    +0.000 HD
BRANCH   7  18
ATOM     17  N   UNL     1       3.122  17.198  17.646  0.00  0.00    +0.000 NA
ATOM     18  C   UNL     1       1.854  17.194  17.898  0.00  0.00    +0.000 C 
ATOM     19  N   UNL     1       1.099  18.305  17.658  0.00  0.00    +0.000 N 
ATOM     20  H   UNL     1       3.383  18.089  17.218  0.00  0.00    +0.000 HD
ATOM     21  H   UNL     1       1.609  19.177  17.591  0.00  0.00    +0.000 HD
ATOM     22  H   UNL     1       0.268  18.403  18.232  0.00  0.00    +0.000 HD
ENDBRANCH   7  18
ENDBRANCH   1  12
BRANCH   5  23
ATOM     23  C   UNL     1       2.658   7.162  18.761  0.00  0.00    +0.000 A 
ATOM     24  N   UNL     1       3.533   7.535  17.844  0.00  0.00    +0.000 NA
ATOM     25  C   UNL     1       4.036   6.376  17.303  0.00  0.00    +0.000 A 
ATOM     26  C   UNL     1       5.009   6.195  16.309  0.00  0.00    +0.000 A 
ATOM     27  C   UNL     1       5.340   4.884  15.931  0.00  0.00    +0.000 A 
ATOM     28  C   UNL     1       4.699   3.783  16.519  0.00  0.00    +0.000 A 
ATOM     29  C   UNL     1       3.724   3.951  17.509  0.00  0.00    +0.000 A 
ATOM     30  C   UNL     1       3.432   5.263  17.874  0.00  0.00    +0.000 A 
ATOM     31  N   UNL     1       2.565   5.791  18.793  0.00  0.00    +0.000 N 
ATOM     32  H   UNL     1       1.941   5.261  19.386  0.00  0.00    +0.000 HD
BRANCH  27  33
ATOM     33  C   UNL     1       6.378   4.642  14.889  0.00  0.00    +0.000 C 
ATOM     34  N   UNL     1       6.282   3.706  13.999  0.00  0.00    +0.000 NA
ATOM     35  N   UNL     1       7.499   5.417  14.834  0.00  0.00    +0.000 N 
ATOM     36  H   UNL     1       5.394   3.202  14.078  0.00  0.00    +0.000 HD
ATOM     37  H   UNL     1       7.885   5.706  15.724  0.00  0.00    +0.000 HD
ATOM     38  H   UNL     1       8.194   4.999  14.222  0.00  0.00    +0.000 HD
ENDBRANCH  27  33
ENDBRANCH   5  23
TORSDOF 4
ENDMDL
MODEL 8
REMARK VINA RESULT:      -8.7      3.567      4.877
REMARK  Name = 
REMARK  4 active torsions:
REMARK  status: ('A' for Active; 'I' for Inactive)
REMARK    1  A    between atoms: C_2  and  C_4
REMARK    2  A    between atoms: C_9  and  C_10
REMARK    3  A    between atoms: C_14  and  C_15
REMARK    4  A    between atoms: C_19  and  C_20
REMARK                            x       y       z     vdW  Elec       q    Type
REMARK                         _______ _______ _______ _____ _____    ______ ____
ROOT
ATOM      1  C   UNL     1       0.952  10.223  20.079  0.00  0.00    +0.000 A 
ATOM      2  C   UNL     1       0.364   9.694  21.234  0.00  0.00    +0.000 A 
ATOM      3  C   UNL     1       0.500   8.336  21.533  0.00  0.00    +0.000 A 
ATOM      4  C   UNL     1       1.234   7.499  20.689  0.00  0.00    +0.000 A 
ATOM      5  C   UNL     1       1.853   8.010  19.543  0.00  0.00    +0.000 A 
ATOM      6  C   UNL     1       1.688   9.369  19.243  0.00  0.00    +0.000 A 
ENDROOT
BRANCH   1  12
ATOM      7  C   UNL     1      -0.066  15.949  18.770  0.00  0.00    +0.000 A 
ATOM      8  C   UNL     1       1.305  15.981  18.476  0.00  0.00    +0.000 A 
ATOM      9  C   UNL     1       2.110  14.843  18.623  0.00  0.00    +0.000 A 
ATOM     10  C   UNL     1       1.469  13.684  19.065  0.00  0.00    +0.000 A 
ATOM     11  N   UNL     1       1.921  12.414  19.312  0.00  0.00    +0.000 N 
ATOM     12  C   UNL     1       0.860  11.639  19.724  0.00  0.00    +0.000 A 
ATOM     13  N   UNL     1      -0.241  12.369  19.773  0.00  0.00    +0.000 NA
ATOM     14  C   UNL     1       0.113  13.625  19.356  0.00  0.00    +0.000 A 
ATOM     15  C   UNL     1      -0.681  14.767  19.207  0.00  0.00    +0.000 A 
ATOM     16  H   UNL     1       2.876  12.101  19.222  0.00  0.00    +0.000 HD
BRANCH   7  18
ATOM     17  N   UNL     1      -0.365  18.224  18.051  0.00  0.00    +0.000 NA
ATOM     18  C   UNL     1      -0.882  17.186  18.621  0.00  0.00    +0.000 C 
ATOM     19  N   UNL     1      -2.159  17.227  19.102  0.00  0.00    +0.000 N 
ATOM     20  H   UNL     1      -1.065  18.967  17.991  0.00  0.00    +0.000 HD
ATOM     21  H   UNL     1      -2.533  18.151  19.275  0.00  0.00    +0.000 HD
ATOM     22  H   UNL     1      -2.358  16.595  19.870  0.00  0.00    +0.000 HD
ENDBRANCH   7  18
ENDBRANCH   1  12
BRANCH   5  23
ATOM     23  C   UNL     1       2.675   7.140  18.699  0.00  0.00    +0.000 A 
ATOM     24  N   UNL     1       3.561   7.519  17.796  0.00  0.00    +0.000 NA
ATOM     25  C   UNL     1       4.069   6.364  17.252  0.00  0.00    +0.000 A 
ATOM     26  C   UNL     1       5.054   6.189  16.268  0.00  0.00    +0.000 A 
ATOM     27  C   UNL     1       5.388   4.881  15.883  0.00  0.00    +0.000 A 
ATOM     28  C   UNL     1       4.738   3.776  16.454  0.00  0.00    +0.000 A 
ATOM     29  C   UNL     1       3.751   3.937  17.434  0.00  0.00    +0.000 A 
ATOM     30  C   UNL     1       3.457   5.247  17.806  0.00  0.00    +0.000 A 
ATOM     31  N   UNL     1       2.580   5.768  18.720  0.00  0.00    +0.000 N 
ATOM     32  H   UNL     1       1.947   5.235  19.300  0.00  0.00    +0.000 HD
BRANCH  27  33
ATOM     33  C   UNL     1       6.437   4.646  14.851  0.00  0.00    +0.000 C 
ATOM     34  N   UNL     1       7.510   5.364  14.757  0.00  0.00    +0.000 NA
ATOM     35  N   UNL     1       6.300   3.638  13.943  0.00  0.00    +0.000 N 
ATOM     36  H   UNL     1       7.560   6.066  15.501  0.00  0.00    +0.000 HD
ATOM     37  H   UNL     1       5.362   3.466  13.605  0.00  0.00    +0.000 HD
ATOM     38  H   UNL     1       6.975   3.741  13.189  0.00  0.00    +0.000 HD
ENDBRANCH  27  33
ENDBRANCH   5  23
TORSDOF 4
ENDMDL
MODEL 9
REMARK VINA RESULT:      -8.7      1.094     10.352
REMARK  Name = 
REMARK  4 active torsions:
REMARK  status: ('A' for Active; 'I' for Inactive)
REMARK    1  A    between atoms: C_2  and  C_4
REMARK    2  A    between atoms: C_9  and  C_10
REMARK    3  A    between atoms: C_14  and  C_15
REMARK    4  A    between atoms: C_19  and  C_20
REMARK                            x       y       z     vdW  Elec       q    Type
REMARK                         _______ _______ _______ _____ _____    ______ ____
ROOT
ATOM      1  C   UNL     1       1.810   8.856  19.148  0.00  0.00    +0.000 A 
ATOM      2  C   UNL     1       2.360   9.538  18.057  0.00  0.00    +0.000 A 
ATOM      3  C   UNL     1       2.040  10.880  17.833  0.00  0.00    +0.000 A 
ATOM      4  C   UNL     1       1.179  11.553  18.704  0.00  0.00    +0.000 A 
ATOM      5  C   UNL     1       0.638  10.900  19.816  0.00  0.00    +0.000 A 
ATOM      6  C   UNL     1       0.949   9.547  20.014  0.00  0.00    +0.000 A 
ENDROOT
BRANCH   1  12
ATOM      7  C   UNL     1       3.441   3.159  19.798  0.00  0.00    +0.000 A 
ATOM      8  C   UNL     1       2.660   3.214  20.962  0.00  0.00    +0.000 A 
ATOM      9  C   UNL     1       2.000   4.389  21.343  0.00  0.00    +0.000 A 
ATOM     10  C   UNL     1       2.157   5.490  20.499  0.00  0.00    +0.000 A 
ATOM     11  N   UNL     1       1.668   6.769  20.546  0.00  0.00    +0.000 N 
ATOM     12  C   UNL     1       2.123   7.458  19.444  0.00  0.00    +0.000 A 
ATOM     13  N   UNL     1       2.900   6.678  18.712  0.00  0.00    +0.000 NA
ATOM     14  C   UNL     1       2.918   5.460  19.339  0.00  0.00    +0.000 A 
ATOM     15  C   UNL     1       3.574   4.281  18.967  0.00  0.00    +0.000 A 
ATOM     16  H   UNL     1       1.083   7.150  21.275  0.00  0.00    +0.000 HD
BRANCH   7  18
ATOM     17  N   UNL     1       5.184   1.532  20.113  0.00  0.00    +0.000 NA
ATOM     18  C   UNL     1       4.143   1.896  19.439  0.00  0.00    +0.000 C 
ATOM     19  N   UNL     1       3.701   1.140  18.391  0.00  0.00    +0.000 N 
ATOM     20  H   UNL     1       5.518   0.630  19.768  0.00  0.00    +0.000 HD
ATOM     21  H   UNL     1       4.380   0.505  17.991  0.00  0.00    +0.000 HD
ATOM     22  H   UNL     1       3.193   1.644  17.671  0.00  0.00    +0.000 HD
ENDBRANCH   7  18
ENDBRANCH   1  12
BRANCH   5  23
ATOM     23  C   UNL     1      -0.210  11.630  20.760  0.00  0.00    +0.000 A 
ATOM     24  N   UNL     1       0.192  12.414  21.745  0.00  0.00    +0.000 NA
ATOM     25  C   UNL     1      -0.950  12.865  22.363  0.00  0.00    +0.000 A 
ATOM     26  C   UNL     1      -1.099  13.740  23.450  0.00  0.00    +0.000 A 
ATOM     27  C   UNL     1      -2.398  14.036  23.894  0.00  0.00    +0.000 A 
ATOM     28  C   UNL     1      -3.517  13.455  23.278  0.00  0.00    +0.000 A 
ATOM     29  C   UNL     1      -3.381  12.579  22.196  0.00  0.00    +0.000 A 
ATOM     30  C   UNL     1      -2.081  12.320  21.768  0.00  0.00    +0.000 A 
ATOM     31  N   UNL     1      -1.583  11.544  20.757  0.00  0.00    +0.000 N 
ATOM     32  H   UNL     1      -2.131  10.979  20.122  0.00  0.00    +0.000 HD
BRANCH  27  33
ATOM     33  C   UNL     1      -2.607  14.970  25.036  0.00  0.00    +0.000 C 
ATOM     34  N   UNL     1      -3.767  15.447  25.357  0.00  0.00    +0.000 NA
ATOM     35  N   UNL     1      -1.554  15.369  25.806  0.00  0.00    +0.000 N 
ATOM     36  H   UNL     1      -4.508  15.065  24.764  0.00  0.00    +0.000 HD
ATOM     37  H   UNL     1      -0.679  15.520  25.321  0.00  0.00    +0.000 HD
ATOM     38  H   UNL     1      -1.817  16.156  26.393  0.00  0.00    +0.000 HD
ENDBRANCH  27  33
ENDBRANCH   5  23
TORSDOF 4
ENDMDL
