MODEL 1
REMARK VINA RESULT:      -8.5      0.000      0.000
REMARK  Name = 
REMARK  5 active torsions:
REMARK  status: ('A' for Active; 'I' for Inactive)
REMARK    1  A    between atoms: C_2  and  N_3
REMARK    2  A    between atoms: C_2  and  N_18
REMARK    3  A    between atoms: N_3  and  N_4
REMARK    4  A    between atoms: C_5  and  C_6
REMARK    5  A    between atoms: N_18  and  C_19
REMARK                            x       y       z     vdW  Elec       q    Type
REMARK                         _______ _______ _______ _____ _____    ______ ____
ROOT
ATOM      1  N   UNL     1       3.850   5.496  19.806  0.00  0.00    +0.000 N 
ATOM      2  H   UNL     1       4.384   5.411  20.665  0.00  0.00    +0.000 HD
ENDROOT
BRANCH   1   4
ATOM      3  S   UNL     1       1.663   4.083  19.343  0.00  0.00    +0.000 S 
ATOM      4  C   UNL     1       2.471   5.438  19.885  0.00  0.00    +0.000 C 
BRANCH   4   5
ATOM      5  N   UNL     1       1.890   6.562  20.408  0.00  0.00    +0.000 N 
ATOM      6  H   UNL     1       1.239   6.358  21.161  0.00  0.00    +0.000 HD
BRANCH   5   7
ATOM      7  C   UNL     1       2.112   7.964  20.030  0.00  0.00    +0.000 C 
ATOM      8  C   UNL     1       1.691   8.161  18.573  0.00  0.00    +0.000 C 
ATOM      9  C   UNL     1       1.992   9.535  17.980  0.00  0.00    +0.000 C 
ATOM     10  C   UNL     1       1.210  10.735  18.520  0.00  0.00    +0.000 C 
ATOM     11  C   UNL     1      -0.272  10.487  18.799  0.00  0.00    +0.000 C 
ATOM     12  C   UNL     1      -0.623  10.247  20.272  0.00  0.00    +0.000 C 
ATOM     13  C   UNL     1      -0.103   8.966  20.927  0.00  0.00    +0.000 C 
ATOM     14  C   UNL     1       1.420   8.876  21.060  0.00  0.00    +0.000 C 
ENDBRANCH   5   7
ENDBRANCH   4   5
ENDBRANCH   1   4
BRANCH   1  15
ATOM     15  N   UNL     1       4.479   5.563  18.596  0.00  0.00    +0.000 NA
ATOM     16  C   UNL     1       5.144   4.521  18.213  0.00  0.00    +0.000 C 
BRANCH  16  17
ATOM     17  C   UNL     1       5.892   4.577  16.943  0.00  0.00    +0.000 A 
ATOM     18  C   UNL     1       5.446   3.804  15.861  0.00  0.00    +0.000 A 
ATOM     19  C   UNL     1       6.012   3.964  14.595  0.00  0.00    +0.000 A 
ATOM     20  C   UNL     1       5.497   3.256  13.491  0.00  0.00    +0.000 A 
ATOM     21  C   UNL     1       6.001   3.478  12.217  0.00  0.00    +0.000 A 
ATOM     22  C   UNL     1       7.056   4.363  12.040  0.00  0.00    +0.000 A 
ATOM     23  C   UNL     1       7.601   5.034  13.150  0.00  0.00    +0.000 A 
ATOM     24 CL   UNL     1       8.933   6.097  12.864  0.00  0.00    +0.000 Cl
ATOM     25  C   UNL     1       7.085   4.859  14.448  0.00  0.00    +0.000 A 
ATOM     26  N   UNL     1       7.574   5.557  15.508  0.00  0.00    +0.000 NA
ATOM     27  C   UNL     1       6.966   5.412  16.722  0.00  0.00    +0.000 A 
ATOM     28 CL   UNL     1       7.673   6.417  17.920  0.00  0.00    +0.000 Cl
ENDBRANCH  16  17
ENDBRANCH   1  15
TORSDOF 5
ENDMDL
MODEL 2
REMARK VINA RESULT:      -8.3      2.821      8.571
REMARK  Name = 
REMARK  5 active torsions:
REMARK  status: ('A' for Active; 'I' for Inactive)
REMARK    1  A    between atoms: C_2  and  N_3
REMARK    2  A    between atoms: C_2  and  N_18
REMARK    3  A    between atoms: N_3  and  N_4
REMARK    4  A    between atoms: C_5  and  C_6
REMARK    5  A    between atoms: N_18  and  C_19
REMARK                            x       y       z     vdW  Elec       q    Type
REMARK                         _______ _______ _______ _____ _____    ______ ____
ROOT
ATOM      1  N   UNL     1       2.370   4.142  20.650  0.00  0.00    +0.000 N 
ATOM      2  H   UNL     1       2.702   3.775  21.537  0.00  0.00    +0.000 HD
ENDROOT
BRANCH   1   4
ATOM      3  S   UNL     1       1.654   2.623  18.608  0.00  0.00    +0.000 S 
ATOM      4  C   UNL     1       2.763   3.503  19.489  0.00  0.00    +0.000 C 
BRANCH   4   5
ATOM      5  N   UNL     1       4.090   3.656  19.185  0.00  0.00    +0.000 N 
ATOM      6  H   UNL     1       4.631   2.810  19.338  0.00  0.00    +0.000 HD
BRANCH   5   7
ATOM      7  C   UNL     1       4.775   4.848  18.666  0.00  0.00    +0.000 C 
ATOM      8  C   UNL     1       6.287   4.627  18.743  0.00  0.00    +0.000 C 
ATOM      9  C   UNL     1       7.148   5.832  18.372  0.00  0.00    +0.000 C 
ATOM     10  C   UNL     1       7.143   6.294  16.913  0.00  0.00    +0.000 C 
ATOM     11  C   UNL     1       7.146   5.179  15.867  0.00  0.00    +0.000 C 
ATOM     12  C   UNL     1       5.781   4.876  15.240  0.00  0.00    +0.000 C 
ATOM     13  C   UNL     1       4.703   4.270  16.141  0.00  0.00    +0.000 C 
ATOM     14  C   UNL     1       4.214   5.180  17.271  0.00  0.00    +0.000 C 
ENDBRANCH   5   7
ENDBRANCH   4   5
ENDBRANCH   1   4
BRANCH   1  15
ATOM     15  N   UNL     1       1.640   5.294  20.602  0.00  0.00    +0.000 NA
ATOM     16  C   UNL     1       2.280   6.396  20.374  0.00  0.00    +0.000 C 
BRANCH  16  17
ATOM     17  C   UNL     1       1.537   7.670  20.380  0.00  0.00    +0.000 A 
ATOM     18  C   UNL     1       0.786   8.009  21.515  0.00  0.00    +0.000 A 
ATOM     19  C   UNL     1       0.218   9.279  21.634  0.00  0.00    +0.000 A 
ATOM     20  C   UNL     1      -0.453   9.649  22.817  0.00  0.00    +0.000 A 
ATOM     21  C   UNL     1      -0.942  10.938  22.972  0.00  0.00    +0.000 A 
ATOM     22  C   UNL     1      -0.816  11.851  21.935  0.00  0.00    +0.000 A 
ATOM     23  C   UNL     1      -0.188  11.466  20.736  0.00  0.00    +0.000 A 
ATOM     24 CL   UNL     1      -0.093  12.641  19.473  0.00  0.00    +0.000 Cl
ATOM     25  C   UNL     1       0.354  10.178  20.564  0.00  0.00    +0.000 A 
ATOM     26  N   UNL     1       1.016   9.831  19.428  0.00  0.00    +0.000 NA
ATOM     27  C   UNL     1       1.599   8.598  19.363  0.00  0.00    +0.000 A 
ATOM     28 CL   UNL     1       2.444   8.363  17.888  0.00  0.00    +0.000 Cl
ENDBRANCH  16  17
ENDBRANCH   1  15
TORSDOF 5
ENDMDL
MODEL 3
REMARK VINA RESULT:      -8.3      1.006      1.178
REMARK  Name = 
REMARK  5 active torsions:
REMARK  status: ('A' for Active; 'I' for Inactive)
REMARK    1  A    between atoms: C_2  and  N_3
REMARK    2  A    between atoms: C_2  and  N_18
REMARK    3  A    between atoms: N_3  and  N_4
REMARK    4  A    between atoms: C_5  and  C_6
REMARK    5  A    between atoms: N_18  and  C_19
REMARK                            x       y       z     vdW  Elec       q    Type
REMARK                         _______ _______ _______ _____ _____    ______ ____
ROOT
ATOM      1  N   UNL     1       3.544   3.511  19.476  0.00  0.00    +0.000 N 
ATOM      2  H   UNL     1       3.952   3.179  20.345  0.00  0.00    +0.000 HD
ENDROOT
BRANCH   1   4
ATOM      3  S   UNL     1       1.072   2.833  18.826  0.00  0.00    +0.000 S 
ATOM      4  C   UNL     1       2.208   3.867  19.474  0.00  0.00    +0.000 C 
BRANCH   4   5
ATOM      5  N   UNL     1       1.954   5.099  20.016  0.00  0.00    +0.000 N 
ATOM      6  H   UNL     1       1.293   5.064  20.787  0.00  0.00    +0.000 HD
BRANCH   5   7
ATOM      7  C   UNL     1       2.524   6.398  19.635  0.00  0.00    +0.000 C 
ATOM      8  C   UNL     1       2.078   6.740  18.212  0.00  0.00    +0.000 C 
ATOM      9  C   UNL     1       2.702   7.997  17.611  0.00  0.00    +0.000 C 
ATOM     10  C   UNL     1       2.313   9.350  18.214  0.00  0.00    +0.000 C 
ATOM     11  C   UNL     1       0.841   9.504  18.594  0.00  0.00    +0.000 C 
ATOM     12  C   UNL     1       0.535   9.329  20.085  0.00  0.00    +0.000 C 
ATOM     13  C   UNL     1       0.728   7.938  20.692  0.00  0.00    +0.000 C 
ATOM     14  C   UNL     1       2.175   7.436  20.718  0.00  0.00    +0.000 C 
ENDBRANCH   5   7
ENDBRANCH   4   5
ENDBRANCH   1   4
BRANCH   1  15
ATOM     15  N   UNL     1       4.268   3.508  18.319  0.00  0.00    +0.000 NA
ATOM     16  C   UNL     1       5.132   4.459  18.155  0.00  0.00    +0.000 C 
BRANCH  16  17
ATOM     17  C   UNL     1       5.887   4.529  16.891  0.00  0.00    +0.000 A 
ATOM     18  C   UNL     1       5.445   3.772  15.796  0.00  0.00    +0.000 A 
ATOM     19  C   UNL     1       6.018   3.947  14.536  0.00  0.00    +0.000 A 
ATOM     20  C   UNL     1       5.507   3.255  13.419  0.00  0.00    +0.000 A 
ATOM     21  C   UNL     1       6.018   3.493  12.152  0.00  0.00    +0.000 A 
ATOM     22  C   UNL     1       7.076   4.377  11.991  0.00  0.00    +0.000 A 
ATOM     23  C   UNL     1       7.618   5.031  13.113  0.00  0.00    +0.000 A 
ATOM     24 CL   UNL     1       8.954   6.094  12.848  0.00  0.00    +0.000 Cl
ATOM     25  C   UNL     1       7.094   4.841  14.406  0.00  0.00    +0.000 A 
ATOM     26  N   UNL     1       7.579   5.523  15.478  0.00  0.00    +0.000 NA
ATOM     27  C   UNL     1       6.964   5.364  16.687  0.00  0.00    +0.000 A 
ATOM     28 CL   UNL     1       7.668   6.351  17.901  0.00  0.00    +0.000 Cl
ENDBRANCH  16  17
ENDBRANCH   1  15
TORSDOF 5
ENDMDL
MODEL 4
REMARK VINA RESULT:      -8.2      3.147      9.176
REMARK  Name = 
REMARK  5 active torsions:
REMARK  status: ('A' for Active; 'I' for Inactive)
REMARK    1  A    between atoms: C_2  and  N_3
REMARK    2  A    between atoms: C_2  and  N_18
REMARK    3  A    between atoms: N_3  and  N_4
REMARK    4  A    between atoms: C_5  and  C_6
REMARK    5  A    between atoms: N_18  and  C_19
REMARK                            x       y       z     vdW  Elec       q    Type
REMARK                         _______ _______ _______ _____ _____    ______ ____
ROOT
ATOM      1  N   UNL     1       2.390   5.295  20.848  0.00  0.00    +0.000 N 
ATOM      2  H   UNL     1       2.987   5.268  21.669  0.00  0.00    +0.000 HD
ENDROOT
BRANCH   1   4
ATOM      3  S   UNL     1       2.060   2.732  20.284  0.00  0.00    +0.000 S 
ATOM      4  C   UNL     1       2.526   4.289  19.908  0.00  0.00    +0.000 C 
BRANCH   4   5
ATOM      5  N   UNL     1       3.072   4.699  18.721  0.00  0.00    +0.000 N 
ATOM      6  H   UNL     1       2.524   4.413  17.914  0.00  0.00    +0.000 HD
BRANCH   5   7
ATOM      7  C   UNL     1       4.292   5.486  18.502  0.00  0.00    +0.000 C 
ATOM      8  C   UNL     1       5.460   4.805  19.216  0.00  0.00    +0.000 C 
ATOM      9  C   UNL     1       6.779   5.575  19.204  0.00  0.00    +0.000 C 
ATOM     10  C   UNL     1       7.502   5.737  17.865  0.00  0.00    +0.000 C 
ATOM     11  C   UNL     1       7.488   4.510  16.954  0.00  0.00    +0.000 C 
ATOM     12  C   UNL     1       6.459   4.557  15.820  0.00  0.00    +0.000 C 
ATOM     13  C   UNL     1       4.978   4.510  16.202  0.00  0.00    +0.000 C 
ATOM     14  C   UNL     1       4.471   5.721  16.990  0.00  0.00    +0.000 C 
ENDBRANCH   5   7
ENDBRANCH   4   5
ENDBRANCH   1   4
BRANCH   1  15
ATOM     15  N   UNL     1       1.550   6.347  20.628  0.00  0.00    +0.000 NA
ATOM     16  C   UNL     1       1.941   7.515  21.030  0.00  0.00    +0.000 C 
BRANCH  16  17
ATOM     17  C   UNL     1       1.034   8.667  20.871  0.00  0.00    +0.000 A 
ATOM     18  C   UNL     1       0.281   9.091  21.975  0.00  0.00    +0.000 A 
ATOM     19  C   UNL     1      -0.448  10.280  21.921  0.00  0.00    +0.000 A 
ATOM     20  C   UNL     1      -1.124  10.753  23.064  0.00  0.00    +0.000 A 
ATOM     21  C   UNL     1      -1.777  11.977  23.036  0.00  0.00    +0.000 A 
ATOM     22  C   UNL     1      -1.809  12.714  21.860  0.00  0.00    +0.000 A 
ATOM     23  C   UNL     1      -1.174  12.218  20.707  0.00  0.00    +0.000 A 
ATOM     24 CL   UNL     1      -1.280  13.169  19.268  0.00  0.00    +0.000 Cl
ATOM     25  C   UNL     1      -0.470  10.999  20.714  0.00  0.00    +0.000 A 
ATOM     26  N   UNL     1       0.196  10.555  19.614  0.00  0.00    +0.000 NA
ATOM     27  C   UNL     1       0.937   9.413  19.716  0.00  0.00    +0.000 A 
ATOM     28 CL   UNL     1       1.757   9.046  18.255  0.00  0.00    +0.000 Cl
ENDBRANCH  16  17
ENDBRANCH   1  15
TORSDOF 5
ENDMDL
MODEL 5
REMARK VINA RESULT:      -8.2      2.192      4.104
REMARK  Name = 
REMARK  5 active torsions:
REMARK  status: ('A' for Active; 'I' for Inactive)
REMARK    1  A    between atoms: C_2  and  N_3
REMARK    2  A    between atoms: C_2  and  N_18
REMARK    3  A    between atoms: N_3  and  N_4
REMARK    4  A    between atoms: C_5  and  C_6
REMARK    5  A    between atoms: N_18  and  C_19
REMARK                            x       y       z     vdW  Elec       q    Type
REMARK                         _______ _______ _______ _____ _____    ______ ____
ROOT
ATOM      1  N   UNL     1       3.729   6.302  19.719  0.00  0.00    +0.000 N 
ATOM      2  H   UNL     1       4.243   6.082  20.567  0.00  0.00    +0.000 HD
ENDROOT
BRANCH   1   4
ATOM      3  S   UNL     1       1.828   8.043  19.129  0.00  0.00    +0.000 S 
ATOM      4  C   UNL     1       2.393   6.642  19.835  0.00  0.00    +0.000 C 
BRANCH   4   5
ATOM      5  N   UNL     1       1.649   5.756  20.568  0.00  0.00    +0.000 N 
ATOM      6  H   UNL     1       1.287   6.159  21.427  0.00  0.00    +0.000 HD
BRANCH   5   7
ATOM      7  C   UNL     1       1.316   4.361  20.248  0.00  0.00    +0.000 C 
ATOM      8  C   UNL     1       1.469   4.144  18.742  0.00  0.00    +0.000 C 
ATOM      9  C   UNL     1       1.023   2.778  18.225  0.00  0.00    +0.000 C 
ATOM     10  C   UNL     1       1.847   1.554  18.632  0.00  0.00    +0.000 C 
ATOM     11  C   UNL     1       3.362   1.753  18.644  0.00  0.00    +0.000 C 
ATOM     12  C   UNL     1       3.974   1.986  20.030  0.00  0.00    +0.000 C 
ATOM     13  C   UNL     1       3.620   3.287  20.753  0.00  0.00    +0.000 C 
ATOM     14  C   UNL     1       2.148   3.430  21.151  0.00  0.00    +0.000 C 
ENDBRANCH   5   7
ENDBRANCH   4   5
ENDBRANCH   1   4
BRANCH   1  15
ATOM     15  N   UNL     1       4.312   6.166  18.493  0.00  0.00    +0.000 NA
ATOM     16  C   UNL     1       5.208   5.241  18.359  0.00  0.00    +0.000 C 
BRANCH  16  17
ATOM     17  C   UNL     1       5.910   5.106  17.069  0.00  0.00    +0.000 A 
ATOM     18  C   UNL     1       5.393   4.225  16.108  0.00  0.00    +0.000 A 
ATOM     19  C   UNL     1       5.918   4.201  14.815  0.00  0.00    +0.000 A 
ATOM     20  C   UNL     1       5.333   3.385  13.825  0.00  0.00    +0.000 A 
ATOM     21  C   UNL     1       5.798   3.425  12.518  0.00  0.00    +0.000 A 
ATOM     22  C   UNL     1       6.880   4.233  12.197  0.00  0.00    +0.000 A 
ATOM     23  C   UNL     1       7.492   5.012  13.196  0.00  0.00    +0.000 A 
ATOM     24 CL   UNL     1       8.854   5.971  12.736  0.00  0.00    +0.000 Cl
ATOM     25  C   UNL     1       7.018   5.023  14.521  0.00  0.00    +0.000 A 
ATOM     26  N   UNL     1       7.574   5.825  15.469  0.00  0.00    +0.000 NA
ATOM     27  C   UNL     1       7.007   5.859  16.711  0.00  0.00    +0.000 A 
ATOM     28 CL   UNL     1       7.798   6.973  17.749  0.00  0.00    +0.000 Cl
ENDBRANCH  16  17
ENDBRANCH   1  15
TORSDOF 5
ENDMDL
MODEL 6
REMARK VINA RESULT:      -8.2      3.914      6.249
REMARK  Name = 
REMARK  5 active torsions:
REMARK  status: ('A' for Active; 'I' for Inactive)
REMARK    1  A    between atoms: C_2  and  N_3
REMARK    2  A    between atoms: C_2  and  N_18
REMARK    3  A    between atoms: N_3  and  N_4
REMARK    4  A    between atoms: C_5  and  C_6
REMARK    5  A    between atoms: N_18  and  C_19
REMARK                            x       y       z     vdW  Elec       q    Type
REMARK                         _______ _______ _______ _____ _____    ______ ____
ROOT
ATOM      1  N   UNL     1       1.744  10.171  17.819  0.00  0.00    +0.000 N 
ATOM      2  H   UNL     1       2.432  10.571  17.188  0.00  0.00    +0.000 HD
ENDROOT
BRANCH   1   4
ATOM      3  S   UNL     1       1.300  11.977  19.699  0.00  0.00    +0.000 S 
ATOM      4  C   UNL     1       0.831  11.023  18.415  0.00  0.00    +0.000 C 
BRANCH   4   5
ATOM      5  N   UNL     1      -0.424  10.972  17.868  0.00  0.00    +0.000 N 
ATOM      6  H   UNL     1      -0.415  11.004  16.853  0.00  0.00    +0.000 HD
BRANCH   5   7
ATOM      7  C   UNL     1      -1.716  10.861  18.559  0.00  0.00    +0.000 C 
ATOM      8  C   UNL     1      -2.238  12.265  18.869  0.00  0.00    +0.000 C 
ATOM      9  C   UNL     1      -3.508  12.323  19.714  0.00  0.00    +0.000 C 
ATOM     10  C   UNL     1      -4.810  11.819  19.086  0.00  0.00    +0.000 C 
ATOM     11  C   UNL     1      -5.020  12.187  17.617  0.00  0.00    +0.000 C 
ATOM     12  C   UNL     1      -4.707  11.068  16.619  0.00  0.00    +0.000 C 
ATOM     13  C   UNL     1      -3.248  10.624  16.483  0.00  0.00    +0.000 C 
ATOM     14  C   UNL     1      -2.652   9.963  17.729  0.00  0.00    +0.000 C 
ENDBRANCH   5   7
ENDBRANCH   4   5
ENDBRANCH   1   4
BRANCH   1  15
ATOM     15  N   UNL     1       1.783   8.848  18.149  0.00  0.00    +0.000 NA
ATOM     16  C   UNL     1       2.930   8.250  18.076  0.00  0.00    +0.000 C 
BRANCH  16  17
ATOM     17  C   UNL     1       3.003   6.805  18.359  0.00  0.00    +0.000 A 
ATOM     18  C   UNL     1       2.221   6.280  19.398  0.00  0.00    +0.000 A 
ATOM     19  C   UNL     1       2.121   4.900  19.582  0.00  0.00    +0.000 A 
ATOM     20  C   UNL     1       1.259   4.373  20.565  0.00  0.00    +0.000 A 
ATOM     21  C   UNL     1       1.093   3.001  20.691  0.00  0.00    +0.000 A 
ATOM     22  C   UNL     1       1.822   2.142  19.880  0.00  0.00    +0.000 A 
ATOM     23  C   UNL     1       2.719   2.669  18.931  0.00  0.00    +0.000 A 
ATOM     24 CL   UNL     1       3.619   1.545  17.976  0.00  0.00    +0.000 Cl
ATOM     25  C   UNL     1       2.878   4.056  18.753  0.00  0.00    +0.000 A 
ATOM     26  N   UNL     1       3.698   4.560  17.791  0.00  0.00    +0.000 NA
ATOM     27  C   UNL     1       3.736   5.912  17.608  0.00  0.00    +0.000 A 
ATOM     28 CL   UNL     1       4.770   6.357  16.313  0.00  0.00    +0.000 Cl
ENDBRANCH  16  17
ENDBRANCH   1  15
TORSDOF 5
ENDMDL
MODEL 7
REMARK VINA RESULT:      -8.2      3.930      6.125
REMARK  Name = 
REMARK  5 active torsions:
REMARK  status: ('A' for Active; 'I' for Inactive)
REMARK    1  A    between atoms: C_2  and  N_3
REMARK    2  A    between atoms: C_2  and  N_18
REMARK    3  A    between atoms: N_3  and  N_4
REMARK    4  A    between atoms: C_5  and  C_6
REMARK    5  A    between atoms: N_18  and  C_19
REMARK                            x       y       z     vdW  Elec       q    Type
REMARK                         _______ _______ _______ _____ _____    ______ ____
ROOT
ATOM      1  N   UNL     1       1.846  10.048  17.677  0.00  0.00    +0.000 N 
ATOM      2  H   UNL     1       2.449  10.380  16.930  0.00  0.00    +0.000 HD
ENDROOT
BRANCH   1   4
ATOM      3  S   UNL     1       1.784  12.333  19.007  0.00  0.00    +0.000 S 
ATOM      4  C   UNL     1       1.072  10.974  18.353  0.00  0.00    +0.000 C 
BRANCH   4   5
ATOM      5  N   UNL     1      -0.256  10.646  18.432  0.00  0.00    +0.000 N 
ATOM      6  H   UNL     1      -0.458   9.990  19.180  0.00  0.00    +0.000 HD
BRANCH   5   7
ATOM      7  C   UNL     1      -1.366  11.136  17.604  0.00  0.00    +0.000 C 
ATOM      8  C   UNL     1      -2.319   9.975  17.311  0.00  0.00    +0.000 C 
ATOM      9  C   UNL     1      -3.456  10.286  16.340  0.00  0.00    +0.000 C 
ATOM     10  C   UNL     1      -4.546  11.256  16.802  0.00  0.00    +0.000 C 
ATOM     11  C   UNL     1      -4.990  11.107  18.256  0.00  0.00    +0.000 C 
ATOM     12  C   UNL     1      -4.388  12.130  19.225  0.00  0.00    +0.000 C 
ATOM     13  C   UNL     1      -2.883  12.056  19.492  0.00  0.00    +0.000 C 
ATOM     14  C   UNL     1      -1.993  12.366  18.285  0.00  0.00    +0.000 C 
ENDBRANCH   5   7
ENDBRANCH   4   5
ENDBRANCH   1   4
BRANCH   1  15
ATOM     15  N   UNL     1       1.874   8.741  18.068  0.00  0.00    +0.000 NA
ATOM     16  C   UNL     1       3.004   8.116  17.975  0.00  0.00    +0.000 C 
BRANCH  16  17
ATOM     17  C   UNL     1       3.061   6.685  18.325  0.00  0.00    +0.000 A 
ATOM     18  C   UNL     1       2.265   6.214  19.379  0.00  0.00    +0.000 A 
ATOM     19  C   UNL     1       2.152   4.845  19.624  0.00  0.00    +0.000 A 
ATOM     20  C   UNL     1       1.275   4.371  20.622  0.00  0.00    +0.000 A 
ATOM     21  C   UNL     1       1.096   3.008  20.808  0.00  0.00    +0.000 A 
ATOM     22  C   UNL     1       1.825   2.107  20.044  0.00  0.00    +0.000 A 
ATOM     23  C   UNL     1       2.735   2.582  19.081  0.00  0.00    +0.000 A 
ATOM     24 CL   UNL     1       3.634   1.408  18.188  0.00  0.00    +0.000 Cl
ATOM     25  C   UNL     1       2.909   3.958  18.842  0.00  0.00    +0.000 A 
ATOM     26  N   UNL     1       3.742   4.410  17.867  0.00  0.00    +0.000 NA
ATOM     27  C   UNL     1       3.794   5.753  17.622  0.00  0.00    +0.000 A 
ATOM     28 CL   UNL     1       4.844   6.129  16.318  0.00  0.00    +0.000 Cl
ENDBRANCH  16  17
ENDBRANCH   1  15
TORSDOF 5
ENDMDL
MODEL 8
REMARK VINA RESULT:      -8.1      3.822      5.990
REMARK  Name = 
REMARK  5 active torsions:
REMARK  status: ('A' for Active; 'I' for Inactive)
REMARK    1  A    between atoms: C_2  and  N_3
REMARK    2  A    between atoms: C_2  and  N_18
REMARK    3  A    between atoms: N_3  and  N_4
REMARK    4  A    between atoms: C_5  and  C_6
REMARK    5  A    between atoms: N_18  and  C_19
REMARK                            x       y       z     vdW  Elec       q    Type
REMARK                         _______ _______ _______ _____ _____    ______ ____
ROOT
ATOM      1  N   UNL     1       2.014  10.313  17.746  0.00  0.00    +0.000 N 
ATOM      2  H   UNL     1       2.580  10.612  16.958  0.00  0.00    +0.000 HD
ENDROOT
BRANCH   1   4
ATOM      3  S   UNL     1       2.025  12.631  19.019  0.00  0.00    +0.000 S 
ATOM      4  C   UNL     1       1.274  11.268  18.420  0.00  0.00    +0.000 C 
BRANCH   4   5
ATOM      5  N   UNL     1      -0.056  10.965  18.543  0.00  0.00    +0.000 N 
ATOM      6  H   UNL     1      -0.527  10.880  17.648  0.00  0.00    +0.000 HD
BRANCH   5   7
ATOM      7  C   UNL     1      -0.830  10.739  19.771  0.00  0.00    +0.000 C 
ATOM      8  C   UNL     1       0.132  10.638  20.956  0.00  0.00    +0.000 C 
ATOM      9  C   UNL     1      -0.505  10.262  22.292  0.00  0.00    +0.000 C 
ATOM     10  C   UNL     1      -1.441  11.279  22.951  0.00  0.00    +0.000 C 
ATOM     11  C   UNL     1      -0.999  12.739  22.859  0.00  0.00    +0.000 C 
ATOM     12  C   UNL     1      -1.703  13.562  21.776  0.00  0.00    +0.000 C 
ATOM     13  C   UNL     1      -1.424  13.202  20.315  0.00  0.00    +0.000 C 
ATOM     14  C   UNL     1      -1.922  11.820  19.880  0.00  0.00    +0.000 C 
ENDBRANCH   5   7
ENDBRANCH   4   5
ENDBRANCH   1   4
BRANCH   1  15
ATOM     15  N   UNL     1       2.061   9.023  18.191  0.00  0.00    +0.000 NA
ATOM     16  C   UNL     1       3.038   8.285  17.771  0.00  0.00    +0.000 C 
BRANCH  16  17
ATOM     17  C   UNL     1       3.088   6.867  18.175  0.00  0.00    +0.000 A 
ATOM     18  C   UNL     1       2.291   6.442  19.247  0.00  0.00    +0.000 A 
ATOM     19  C   UNL     1       2.171   5.083  19.545  0.00  0.00    +0.000 A 
ATOM     20  C   UNL     1       1.293   4.652  20.561  0.00  0.00    +0.000 A 
ATOM     21  C   UNL     1       1.107   3.298  20.799  0.00  0.00    +0.000 A 
ATOM     22  C   UNL     1       1.831   2.365  20.070  0.00  0.00    +0.000 A 
ATOM     23  C   UNL     1       2.742   2.798  19.089  0.00  0.00    +0.000 A 
ATOM     24 CL   UNL     1       3.633   1.586  18.240  0.00  0.00    +0.000 Cl
ATOM     25  C   UNL     1       2.922   4.163  18.796  0.00  0.00    +0.000 A 
ATOM     26  N   UNL     1       3.757   4.573  17.803  0.00  0.00    +0.000 NA
ATOM     27  C   UNL     1       3.815   5.905  17.507  0.00  0.00    +0.000 A 
ATOM     28 CL   UNL     1       4.865   6.226  16.189  0.00  0.00    +0.000 Cl
ENDBRANCH  16  17
ENDBRANCH   1  15
TORSDOF 5
ENDMDL
MODEL 9
REMARK VINA RESULT:      -8.0      2.933      8.672
REMARK  Name = 
REMARK  5 active torsions:
REMARK  status: ('A' for Active; 'I' for Inactive)
REMARK    1  A    between atoms: C_2  and  N_3
REMARK    2  A    between atoms: C_2  and  N_18
REMARK    3  A    between atoms: N_3  and  N_4
REMARK    4  A    between atoms: C_5  and  C_6
REMARK    5  A    between atoms: N_18  and  C_19
REMARK                            x       y       z     vdW  Elec       q    Type
REMARK                         _______ _______ _______ _____ _____    ______ ____
ROOT
ATOM      1  N   UNL     1       2.410   4.503  20.045  0.00  0.00    +0.000 N 
ATOM      2  H   UNL     1       2.917   4.251  20.888  0.00  0.00    +0.000 HD
ENDROOT
BRANCH   1   4
ATOM      3  S   UNL     1       2.171   2.101  18.964  0.00  0.00    +0.000 S 
ATOM      4  C   UNL     1       2.581   3.717  18.920  0.00  0.00    +0.000 C 
BRANCH   4   5
ATOM      5  N   UNL     1       3.112   4.381  17.846  0.00  0.00    +0.000 N 
ATOM      6  H   UNL     1       2.477   5.069  17.453  0.00  0.00    +0.000 HD
BRANCH   5   7
ATOM      7  C   UNL     1       4.445   4.228  17.247  0.00  0.00    +0.000 C 
ATOM      8  C   UNL     1       4.706   5.403  16.304  0.00  0.00    +0.000 C 
ATOM      9  C   UNL     1       5.995   5.321  15.490  0.00  0.00    +0.000 C 
ATOM     10  C   UNL     1       7.324   5.438  16.239  0.00  0.00    +0.000 C 
ATOM     11  C   UNL     1       7.360   6.475  17.362  0.00  0.00    +0.000 C 
ATOM     12  C   UNL     1       7.202   5.905  18.775  0.00  0.00    +0.000 C 
ATOM     13  C   UNL     1       5.851   5.290  19.147  0.00  0.00    +0.000 C 
ATOM     14  C   UNL     1       5.478   4.023  18.371  0.00  0.00    +0.000 C 
ENDBRANCH   5   7
ENDBRANCH   4   5
ENDBRANCH   1   4
BRANCH   1  15
ATOM     15  N   UNL     1       1.660   5.641  19.995  0.00  0.00    +0.000 NA
ATOM     16  C   UNL     1       2.225   6.744  20.371  0.00  0.00    +0.000 C 
BRANCH  16  17
ATOM     17  C   UNL     1       1.429   7.985  20.394  0.00  0.00    +0.000 A 
ATOM     18  C   UNL     1       0.711   8.305  21.556  0.00  0.00    +0.000 A 
ATOM     19  C   UNL     1       0.095   9.551  21.686  0.00  0.00    +0.000 A 
ATOM     20  C   UNL     1      -0.542   9.906  22.892  0.00  0.00    +0.000 A 
ATOM     21  C   UNL     1      -1.080  11.175  23.054  0.00  0.00    +0.000 A 
ATOM     22  C   UNL     1      -1.037  12.080  22.003  0.00  0.00    +0.000 A 
ATOM     23  C   UNL     1      -0.442  11.708  20.783  0.00  0.00    +0.000 A 
ATOM     24 CL   UNL     1      -0.451  12.870  19.505  0.00  0.00    +0.000 Cl
ATOM     25  C   UNL     1       0.147  10.443  20.602  0.00  0.00    +0.000 A 
ATOM     26  N   UNL     1       0.776  10.110  19.442  0.00  0.00    +0.000 NA
ATOM     27  C   UNL     1       1.409   8.902  19.366  0.00  0.00    +0.000 A 
ATOM     28 CL   UNL     1       2.201   8.685  17.859  0.00  0.00    +0.000 Cl
ENDBRANCH  16  17
ENDBRANCH   1  15
TORSDOF 5
ENDMDL
