MODEL 1
REMARK VINA RESULT:      -7.4      0.000      0.000
REMARK  Name = 
REMARK  9 active torsions:
REMARK  status: ('A' for Active; 'I' for Inactive)
REMARK    1  A    between atoms: C_1  and  O_2
REMARK    2  A    between atoms: O_2  and  C_3
REMARK    3  A    between atoms: C_7  and  C_8
REMARK    4  A    between atoms: C_9  and  S_10
REMARK    5  A    between atoms: S_10  and  C_11
REMARK    6  A    between atoms: C_11  and  C_12
REMARK    7  A    between atoms: C_12  and  N_13
REMARK    8  A    between atoms: C_22  and  O_23
REMARK    9  A    between atoms: O_23  and  C_24
REMARK                            x       y       z     vdW  Elec       q    Type
REMARK                         _______ _______ _______ _____ _____    ______ ____
ROOT
ATOM      1  C   UNL     1       0.561   9.361  19.777  0.00  0.00    +0.000 A 
ATOM      2  C   UNL     1       1.420   9.234  18.679  0.00  0.00    +0.000 A 
ATOM      3  C   UNL     1       2.333   8.177  18.601  0.00  0.00    +0.000 A 
ATOM      4  C   UNL     1       3.161   8.019  17.486  0.00  0.00    +0.000 A 
ATOM      5  C   UNL     1       4.022   6.915  17.397  0.00  0.00    +0.000 A 
ATOM      6  C   UNL     1       4.882   6.744  16.174  0.00  0.00    +0.000 C 
ATOM      7  C   UNL     1       4.044   5.983  18.457  0.00  0.00    +0.000 A 
ATOM      8  N   UNL     1       3.256   6.183  19.548  0.00  0.00    +0.000 NA
ATOM      9  C   UNL     1       2.405   7.238  19.644  0.00  0.00    +0.000 A 
ATOM     10  C   UNL     1       1.585   7.375  20.766  0.00  0.00    +0.000 A 
ATOM     11  C   UNL     1       0.649   8.429  20.847  0.00  0.00    +0.000 A 
ENDROOT
BRANCH   1  13
ATOM     12  C   UNL     1      -1.088  10.786  18.637  0.00  0.00    +0.000 C 
ATOM     13  O   UNL     1      -0.347  10.376  19.727  0.00  0.00    +0.000 OA
ENDBRANCH   1  13
BRANCH  11  14
ATOM     14  O   UNL     1      -0.173   8.561  21.921  0.00  0.00    +0.000 OA
ATOM     15  C   UNL     1       0.070   9.299  23.059  0.00  0.00    +0.000 C 
ENDBRANCH  11  14
BRANCH   7  16
ATOM     16  S   UNL     1       5.071   4.500  18.390  0.00  0.00    +0.000 S 
BRANCH  16  17
ATOM     17  C   UNL     1       3.933   3.501  17.347  0.00  0.00    +0.000 C 
BRANCH  17  18
ATOM     18  C   UNL     1       3.645   2.119  17.964  0.00  0.00    +0.000 C 
BRANCH  18  19
ATOM     19  N   UNL     1       2.701   2.164  19.108  0.00  0.00    +0.000 NA
ATOM     20  C   UNL     1       3.372   2.568  20.370  0.00  0.00    +0.000 C 
ATOM     21  C   UNL     1       2.370   2.641  21.533  0.00  0.00    +0.000 C 
ATOM     22  C   UNL     1       1.258   3.634  21.200  0.00  0.00    +0.000 C 
ATOM     23  C   UNL     1       0.574   3.200  19.906  0.00  0.00    +0.000 C 
ATOM     24  C   UNL     1       1.610   3.117  18.778  0.00  0.00    +0.000 C 
ENDBRANCH  18  19
ENDBRANCH  17  18
ENDBRANCH  16  17
ENDBRANCH   7  16
TORSDOF 6
ENDMDL
MODEL 2
REMARK VINA RESULT:      -7.4      3.445      6.686
REMARK  Name = 
REMARK  9 active torsions:
REMARK  status: ('A' for Active; 'I' for Inactive)
REMARK    1  A    between atoms: C_1  and  O_2
REMARK    2  A    between atoms: O_2  and  C_3
REMARK    3  A    between atoms: C_7  and  C_8
REMARK    4  A    between atoms: C_9  and  S_10
REMARK    5  A    between atoms: S_10  and  C_11
REMARK    6  A    between atoms: C_11  and  C_12
REMARK    7  A    between atoms: C_12  and  N_13
REMARK    8  A    between atoms: C_22  and  O_23
REMARK    9  A    between atoms: O_23  and  C_24
REMARK                            x       y       z     vdW  Elec       q    Type
REMARK                         _______ _______ _______ _____ _____    ______ ____
ROOT
ATOM      1  C   UNL     1       6.738   5.281  15.924  0.00  0.00    +0.000 A 
ATOM      2  C   UNL     1       5.831   4.225  16.073  0.00  0.00    +0.000 A 
ATOM      3  C   UNL     1       5.036   4.117  17.218  0.00  0.00    +0.000 A 
ATOM      4  C   UNL     1       4.095   3.092  17.351  0.00  0.00    +0.000 A 
ATOM      5  C   UNL     1       3.261   3.040  18.478  0.00  0.00    +0.000 A 
ATOM      6  C   UNL     1       2.233   1.947  18.588  0.00  0.00    +0.000 C 
ATOM      7  C   UNL     1       3.402   4.031  19.473  0.00  0.00    +0.000 A 
ATOM      8  N   UNL     1       4.352   4.995  19.336  0.00  0.00    +0.000 NA
ATOM      9  C   UNL     1       5.158   5.069  18.244  0.00  0.00    +0.000 A 
ATOM     10  C   UNL     1       6.089   6.104  18.131  0.00  0.00    +0.000 A 
ATOM     11  C   UNL     1       6.884   6.231  16.972  0.00  0.00    +0.000 A 
ENDROOT
BRANCH   1  13
ATOM     12  C   UNL     1       7.077   4.732  13.551  0.00  0.00    +0.000 C 
ATOM     13  O   UNL     1       7.411   5.346  14.741  0.00  0.00    +0.000 OA
ENDBRANCH   1  13
BRANCH  11  14
ATOM     14  O   UNL     1       7.777   7.246  16.837  0.00  0.00    +0.000 OA
ATOM     15  C   UNL     1       7.947   8.314  17.691  0.00  0.00    +0.000 C 
ENDBRANCH  11  14
BRANCH   7  16
ATOM     16  S   UNL     1       2.322   4.078  20.919  0.00  0.00    +0.000 S 
BRANCH  16  17
ATOM     17  C   UNL     1       1.326   5.531  20.393  0.00  0.00    +0.000 C 
BRANCH  17  18
ATOM     18  C   UNL     1       1.793   6.831  21.075  0.00  0.00    +0.000 C 
BRANCH  18  19
ATOM     19  N   UNL     1       2.003   7.956  20.131  0.00  0.00    +0.000 NA
ATOM     20  C   UNL     1       2.073   7.496  18.721  0.00  0.00    +0.000 C 
ATOM     21  C   UNL     1       2.256   8.680  17.759  0.00  0.00    +0.000 C 
ATOM     22  C   UNL     1       1.101   9.666  17.923  0.00  0.00    +0.000 C 
ATOM     23  C   UNL     1       1.048  10.135  19.374  0.00  0.00    +0.000 C 
ATOM     24  C   UNL     1       0.888   8.923  20.301  0.00  0.00    +0.000 C 
ENDBRANCH  18  19
ENDBRANCH  17  18
ENDBRANCH  16  17
ENDBRANCH   7  16
TORSDOF 6
ENDMDL
MODEL 3
REMARK VINA RESULT:      -7.0      3.356      6.643
REMARK  Name = 
REMARK  9 active torsions:
REMARK  status: ('A' for Active; 'I' for Inactive)
REMARK    1  A    between atoms: C_1  and  O_2
REMARK    2  A    between atoms: O_2  and  C_3
REMARK    3  A    between atoms: C_7  and  C_8
REMARK    4  A    between atoms: C_9  and  S_10
REMARK    5  A    between atoms: S_10  and  C_11
REMARK    6  A    between atoms: C_11  and  C_12
REMARK    7  A    between atoms: C_12  and  N_13
REMARK    8  A    between atoms: C_22  and  O_23
REMARK    9  A    between atoms: O_23  and  C_24
REMARK                            x       y       z     vdW  Elec       q    Type
REMARK                         _______ _______ _______ _____ _____    ______ ____
ROOT
ATOM      1  C   UNL     1       6.149   5.349  15.702  0.00  0.00    +0.000 A 
ATOM      2  C   UNL     1       5.082   4.450  15.815  0.00  0.00    +0.000 A 
ATOM      3  C   UNL     1       4.430   4.261  17.038  0.00  0.00    +0.000 A 
ATOM      4  C   UNL     1       3.334   3.400  17.146  0.00  0.00    +0.000 A 
ATOM      5  C   UNL     1       2.652   3.274  18.366  0.00  0.00    +0.000 A 
ATOM      6  C   UNL     1       1.455   2.367  18.454  0.00  0.00    +0.000 C 
ATOM      7  C   UNL     1       3.104   4.020  19.476  0.00  0.00    +0.000 A 
ATOM      8  N   UNL     1       4.196   4.821  19.352  0.00  0.00    +0.000 NA
ATOM      9  C   UNL     1       4.859   4.966  18.175  0.00  0.00    +0.000 A 
ATOM     10  C   UNL     1       5.950   5.834  18.089  0.00  0.00    +0.000 A 
ATOM     11  C   UNL     1       6.604   6.044  16.856  0.00  0.00    +0.000 A 
ENDROOT
BRANCH   1  13
ATOM     12  C   UNL     1       7.036   4.546  13.553  0.00  0.00    +0.000 C 
ATOM     13  O   UNL     1       6.670   5.525  14.456  0.00  0.00    +0.000 OA
ENDBRANCH   1  13
BRANCH  11  14
ATOM     14  O   UNL     1       7.651   6.904  16.751  0.00  0.00    +0.000 OA
ATOM     15  C   UNL     1       7.910   7.990  17.558  0.00  0.00    +0.000 C 
ENDBRANCH  11  14
BRANCH   7  16
ATOM     16  S   UNL     1       2.241   3.970  21.061  0.00  0.00    +0.000 S 
BRANCH  16  17
ATOM     17  C   UNL     1       1.316   5.545  20.850  0.00  0.00    +0.000 C 
BRANCH  17  18
ATOM     18  C   UNL     1       2.220   6.681  20.334  0.00  0.00    +0.000 C 
BRANCH  18  19
ATOM     19  N   UNL     1       1.475   7.780  19.671  0.00  0.00    +0.000 NA
ATOM     20  C   UNL     1       1.158   8.886  20.610  0.00  0.00    +0.000 C 
ATOM     21  C   UNL     1       0.418  10.027  19.895  0.00  0.00    +0.000 C 
ATOM     22  C   UNL     1       1.270  10.557  18.743  0.00  0.00    +0.000 C 
ATOM     23  C   UNL     1       1.580   9.412  17.784  0.00  0.00    +0.000 C 
ATOM     24  C   UNL     1       2.296   8.285  18.541  0.00  0.00    +0.000 C 
ENDBRANCH  18  19
ENDBRANCH  17  18
ENDBRANCH  16  17
ENDBRANCH   7  16
TORSDOF 6
ENDMDL
MODEL 4
REMARK VINA RESULT:      -6.9      2.091      4.425
REMARK  Name = 
REMARK  9 active torsions:
REMARK  status: ('A' for Active; 'I' for Inactive)
REMARK    1  A    between atoms: C_1  and  O_2
REMARK    2  A    between atoms: O_2  and  C_3
REMARK    3  A    between atoms: C_7  and  C_8
REMARK    4  A    between atoms: C_9  and  S_10
REMARK    5  A    between atoms: S_10  and  C_11
REMARK    6  A    between atoms: C_11  and  C_12
REMARK    7  A    between atoms: C_12  and  N_13
REMARK    8  A    between atoms: C_22  and  O_23
REMARK    9  A    between atoms: O_23  and  C_24
REMARK                            x       y       z     vdW  Elec       q    Type
REMARK                         _______ _______ _______ _____ _____    ______ ____
ROOT
ATOM      1  C   UNL     1       1.305   8.876  20.057  0.00  0.00    +0.000 A 
ATOM      2  C   UNL     1       1.374   7.677  20.777  0.00  0.00    +0.000 A 
ATOM      3  C   UNL     1       1.854   6.508  20.180  0.00  0.00    +0.000 A 
ATOM      4  C   UNL     1       1.969   5.320  20.908  0.00  0.00    +0.000 A 
ATOM      5  C   UNL     1       2.515   4.175  20.310  0.00  0.00    +0.000 A 
ATOM      6  C   UNL     1       2.660   2.915  21.119  0.00  0.00    +0.000 C 
ATOM      7  C   UNL     1       2.930   4.245  18.962  0.00  0.00    +0.000 A 
ATOM      8  N   UNL     1       2.770   5.403  18.267  0.00  0.00    +0.000 NA
ATOM      9  C   UNL     1       2.257   6.526  18.835  0.00  0.00    +0.000 A 
ATOM     10  C   UNL     1       2.154   7.702  18.089  0.00  0.00    +0.000 A 
ATOM     11  C   UNL     1       1.687   8.892  18.687  0.00  0.00    +0.000 A 
ENDROOT
BRANCH   1  13
ATOM     12  C   UNL     1       0.214  10.017  21.943  0.00  0.00    +0.000 C 
ATOM     13  O   UNL     1       0.899   9.980  20.744  0.00  0.00    +0.000 OA
ENDBRANCH   1  13
BRANCH  11  14
ATOM     14  O   UNL     1       1.604  10.050  17.982  0.00  0.00    +0.000 OA
ATOM     15  C   UNL     1       2.431  11.147  18.097  0.00  0.00    +0.000 C 
ENDBRANCH  11  14
BRANCH   7  16
ATOM     16  S   UNL     1       3.707   2.838  18.139  0.00  0.00    +0.000 S 
BRANCH  16  17
ATOM     17  C   UNL     1       4.204   3.735  16.612  0.00  0.00    +0.000 C 
BRANCH  17  18
ATOM     18  C   UNL     1       5.720   4.006  16.568  0.00  0.00    +0.000 C 
BRANCH  18  19
ATOM     19  N   UNL     1       6.149   5.129  17.438  0.00  0.00    +0.000 NA
ATOM     20  C   UNL     1       7.491   4.895  18.029  0.00  0.00    +0.000 C 
ATOM     21  C   UNL     1       7.931   6.084  18.898  0.00  0.00    +0.000 C 
ATOM     22  C   UNL     1       7.952   7.361  18.058  0.00  0.00    +0.000 C 
ATOM     23  C   UNL     1       6.566   7.591  17.465  0.00  0.00    +0.000 C 
ATOM     24  C   UNL     1       6.155   6.373  16.626  0.00  0.00    +0.000 C 
ENDBRANCH  18  19
ENDBRANCH  17  18
ENDBRANCH  16  17
ENDBRANCH   7  16
TORSDOF 6
ENDMDL
MODEL 5
REMARK VINA RESULT:      -6.9      3.583      7.078
REMARK  Name = 
REMARK  9 active torsions:
REMARK  status: ('A' for Active; 'I' for Inactive)
REMARK    1  A    between atoms: C_1  and  O_2
REMARK    2  A    between atoms: O_2  and  C_3
REMARK    3  A    between atoms: C_7  and  C_8
REMARK    4  A    between atoms: C_9  and  S_10
REMARK    5  A    between atoms: S_10  and  C_11
REMARK    6  A    between atoms: C_11  and  C_12
REMARK    7  A    between atoms: C_12  and  N_13
REMARK    8  A    between atoms: C_22  and  O_23
REMARK    9  A    between atoms: O_23  and  C_24
REMARK                            x       y       z     vdW  Elec       q    Type
REMARK                         _______ _______ _______ _____ _____    ______ ____
ROOT
ATOM      1  C   UNL     1       6.503   5.046  16.030  0.00  0.00    +0.000 A 
ATOM      2  C   UNL     1       5.427   4.166  16.200  0.00  0.00    +0.000 A 
ATOM      3  C   UNL     1       4.510   4.346  17.240  0.00  0.00    +0.000 A 
ATOM      4  C   UNL     1       3.408   3.499  17.385  0.00  0.00    +0.000 A 
ATOM      5  C   UNL     1       2.463   3.736  18.394  0.00  0.00    +0.000 A 
ATOM      6  C   UNL     1       1.266   2.832  18.515  0.00  0.00    +0.000 C 
ATOM      7  C   UNL     1       2.657   4.832  19.262  0.00  0.00    +0.000 A 
ATOM      8  N   UNL     1       3.759   5.617  19.122  0.00  0.00    +0.000 NA
ATOM      9  C   UNL     1       4.676   5.412  18.140  0.00  0.00    +0.000 A 
ATOM     10  C   UNL     1       5.768   6.272  18.012  0.00  0.00    +0.000 A 
ATOM     11  C   UNL     1       6.690   6.109  16.956  0.00  0.00    +0.000 A 
ENDROOT
BRANCH   1  13
ATOM     12  C   UNL     1       6.907   4.427  13.685  0.00  0.00    +0.000 C 
ATOM     13  O   UNL     1       7.298   4.837  14.944  0.00  0.00    +0.000 OA
ENDBRANCH   1  13
BRANCH  11  14
ATOM     14  O   UNL     1       7.744   6.953  16.804  0.00  0.00    +0.000 OA
ATOM     15  C   UNL     1       7.962   8.131  17.485  0.00  0.00    +0.000 C 
ENDBRANCH  11  14
BRANCH   7  16
ATOM     16  S   UNL     1       1.453   5.249  20.542  0.00  0.00    +0.000 S 
BRANCH  16  17
ATOM     17  C   UNL     1       1.794   7.055  20.574  0.00  0.00    +0.000 C 
BRANCH  17  18
ATOM     18  C   UNL     1       0.669   7.844  21.271  0.00  0.00    +0.000 C 
BRANCH  18  19
ATOM     19  N   UNL     1       0.389   9.160  20.645  0.00  0.00    +0.000 NA
ATOM     20  C   UNL     1       0.704  10.289  21.556  0.00  0.00    +0.000 C 
ATOM     21  C   UNL     1       0.440  11.642  20.875  0.00  0.00    +0.000 C 
ATOM     22  C   UNL     1       1.277  11.756  19.602  0.00  0.00    +0.000 C 
ATOM     23  C   UNL     1       0.936  10.593  18.675  0.00  0.00    +0.000 C 
ATOM     24  C   UNL     1       1.191   9.265  19.399  0.00  0.00    +0.000 C 
ENDBRANCH  18  19
ENDBRANCH  17  18
ENDBRANCH  16  17
ENDBRANCH   7  16
TORSDOF 6
ENDMDL
MODEL 6
REMARK VINA RESULT:      -6.8      0.774      1.248
REMARK  Name = 
REMARK  9 active torsions:
REMARK  status: ('A' for Active; 'I' for Inactive)
REMARK    1  A    between atoms: C_1  and  O_2
REMARK    2  A    between atoms: O_2  and  C_3
REMARK    3  A    between atoms: C_7  and  C_8
REMARK    4  A    between atoms: C_9  and  S_10
REMARK    5  A    between atoms: S_10  and  C_11
REMARK    6  A    between atoms: C_11  and  C_12
REMARK    7  A    between atoms: C_12  and  N_13
REMARK    8  A    between atoms: C_22  and  O_23
REMARK    9  A    between atoms: O_23  and  C_24
REMARK                            x       y       z     vdW  Elec       q    Type
REMARK                         _______ _______ _______ _____ _____    ______ ____
ROOT
ATOM      1  C   UNL     1       1.137   9.287  19.361  0.00  0.00    +0.000 A 
ATOM      2  C   UNL     1       1.973   9.128  18.249  0.00  0.00    +0.000 A 
ATOM      3  C   UNL     1       2.828   8.027  18.147  0.00  0.00    +0.000 A 
ATOM      4  C   UNL     1       3.631   7.838  17.017  0.00  0.00    +0.000 A 
ATOM      5  C   UNL     1       4.432   6.692  16.903  0.00  0.00    +0.000 A 
ATOM      6  C   UNL     1       5.264   6.492  15.666  0.00  0.00    +0.000 C 
ATOM      7  C   UNL     1       4.421   5.749  17.953  0.00  0.00    +0.000 A 
ATOM      8  N   UNL     1       3.660   5.977  19.058  0.00  0.00    +0.000 NA
ATOM      9  C   UNL     1       2.866   7.073  19.178  0.00  0.00    +0.000 A 
ATOM     10  C   UNL     1       2.071   7.240  20.314  0.00  0.00    +0.000 A 
ATOM     11  C   UNL     1       1.192   8.339  20.420  0.00  0.00    +0.000 A 
ENDROOT
BRANCH   1  13
ATOM     12  C   UNL     1       0.609  11.685  19.227  0.00  0.00    +0.000 C 
ATOM     13  O   UNL     1       0.282  10.348  19.337  0.00  0.00    +0.000 OA
ENDBRANCH   1  13
BRANCH  11  14
ATOM     14  O   UNL     1       0.394   8.502  21.508  0.00  0.00    +0.000 OA
ATOM     15  C   UNL     1       0.686   9.226  22.643  0.00  0.00    +0.000 C 
ENDBRANCH  11  14
BRANCH   7  16
ATOM     16  S   UNL     1       5.368   4.215  17.855  0.00  0.00    +0.000 S 
BRANCH  16  17
ATOM     17  C   UNL     1       4.084   3.229  16.983  0.00  0.00    +0.000 C 
BRANCH  17  18
ATOM     18  C   UNL     1       3.393   2.221  17.921  0.00  0.00    +0.000 C 
BRANCH  18  19
ATOM     19  N   UNL     1       2.692   2.856  19.064  0.00  0.00    +0.000 NA
ATOM     20  C   UNL     1       1.261   2.465  19.127  0.00  0.00    +0.000 C 
ATOM     21  C   UNL     1       0.563   3.105  20.338  0.00  0.00    +0.000 C 
ATOM     22  C   UNL     1       1.269   2.686  21.626  0.00  0.00    +0.000 C 
ATOM     23  C   UNL     1       2.735   3.101  21.549  0.00  0.00    +0.000 C 
ATOM     24  C   UNL     1       3.387   2.461  20.316  0.00  0.00    +0.000 C 
ENDBRANCH  18  19
ENDBRANCH  17  18
ENDBRANCH  16  17
ENDBRANCH   7  16
TORSDOF 6
ENDMDL
MODEL 7
REMARK VINA RESULT:      -6.8      3.532      6.923
REMARK  Name = 
REMARK  9 active torsions:
REMARK  status: ('A' for Active; 'I' for Inactive)
REMARK    1  A    between atoms: C_1  and  O_2
REMARK    2  A    between atoms: O_2  and  C_3
REMARK    3  A    between atoms: C_7  and  C_8
REMARK    4  A    between atoms: C_9  and  S_10
REMARK    5  A    between atoms: S_10  and  C_11
REMARK    6  A    between atoms: C_11  and  C_12
REMARK    7  A    between atoms: C_12  and  N_13
REMARK    8  A    between atoms: C_22  and  O_23
REMARK    9  A    between atoms: O_23  and  C_24
REMARK                            x       y       z     vdW  Elec       q    Type
REMARK                         _______ _______ _______ _____ _____    ______ ____
ROOT
ATOM      1  C   UNL     1       6.590   5.306  16.044  0.00  0.00    +0.000 A 
ATOM      2  C   UNL     1       5.492   4.442  16.119  0.00  0.00    +0.000 A 
ATOM      3  C   UNL     1       4.549   4.567  17.144  0.00  0.00    +0.000 A 
ATOM      4  C   UNL     1       3.425   3.737  17.198  0.00  0.00    +0.000 A 
ATOM      5  C   UNL     1       2.457   3.922  18.195  0.00  0.00    +0.000 A 
ATOM      6  C   UNL     1       1.239   3.039  18.217  0.00  0.00    +0.000 C 
ATOM      7  C   UNL     1       2.648   4.948  19.146  0.00  0.00    +0.000 A 
ATOM      8  N   UNL     1       3.770   5.716  19.093  0.00  0.00    +0.000 NA
ATOM      9  C   UNL     1       4.711   5.561  18.124  0.00  0.00    +0.000 A 
ATOM     10  C   UNL     1       5.824   6.403  18.089  0.00  0.00    +0.000 A 
ATOM     11  C   UNL     1       6.773   6.296  17.049  0.00  0.00    +0.000 A 
ENDROOT
BRANCH   1  13
ATOM     12  C   UNL     1       7.064   4.743  13.698  0.00  0.00    +0.000 C 
ATOM     13  O   UNL     1       7.412   5.159  14.968  0.00  0.00    +0.000 OA
ENDBRANCH   1  13
BRANCH  11  14
ATOM     14  O   UNL     1       7.848   7.125  16.987  0.00  0.00    +0.000 OA
ATOM     15  C   UNL     1       7.962   8.371  17.564  0.00  0.00    +0.000 C 
ENDBRANCH  11  14
BRANCH   7  16
ATOM     16  S   UNL     1       1.417   5.299  20.419  0.00  0.00    +0.000 S 
BRANCH  16  17
ATOM     17  C   UNL     1       2.095   6.930  20.927  0.00  0.00    +0.000 C 
BRANCH  17  18
ATOM     18  C   UNL     1       1.502   8.087  20.100  0.00  0.00    +0.000 C 
BRANCH  18  19
ATOM     19  N   UNL     1       0.455   8.856  20.818  0.00  0.00    +0.000 NA
ATOM     20  C   UNL     1       0.821   9.107  22.235  0.00  0.00    +0.000 C 
ATOM     21  C   UNL     1      -0.260   9.935  22.949  0.00  0.00    +0.000 C 
ATOM     22  C   UNL     1      -0.461  11.264  22.224  0.00  0.00    +0.000 C 
ATOM     23  C   UNL     1      -0.843  10.988  20.772  0.00  0.00    +0.000 C 
ATOM     24  C   UNL     1       0.248  10.142  20.104  0.00  0.00    +0.000 C 
ENDBRANCH  18  19
ENDBRANCH  17  18
ENDBRANCH  16  17
ENDBRANCH   7  16
TORSDOF 6
ENDMDL
MODEL 8
REMARK VINA RESULT:      -6.8      3.582      7.153
REMARK  Name = 
REMARK  9 active torsions:
REMARK  status: ('A' for Active; 'I' for Inactive)
REMARK    1  A    between atoms: C_1  and  O_2
REMARK    2  A    between atoms: O_2  and  C_3
REMARK    3  A    between atoms: C_7  and  C_8
REMARK    4  A    between atoms: C_9  and  S_10
REMARK    5  A    between atoms: S_10  and  C_11
REMARK    6  A    between atoms: C_11  and  C_12
REMARK    7  A    between atoms: C_12  and  N_13
REMARK    8  A    between atoms: C_22  and  O_23
REMARK    9  A    between atoms: O_23  and  C_24
REMARK                            x       y       z     vdW  Elec       q    Type
REMARK                         _______ _______ _______ _____ _____    ______ ____
ROOT
ATOM      1  C   UNL     1       6.643   4.958  16.130  0.00  0.00    +0.000 A 
ATOM      2  C   UNL     1       5.609   4.034  16.324  0.00  0.00    +0.000 A 
ATOM      3  C   UNL     1       4.663   4.218  17.337  0.00  0.00    +0.000 A 
ATOM      4  C   UNL     1       3.601   3.323  17.504  0.00  0.00    +0.000 A 
ATOM      5  C   UNL     1       2.624   3.562  18.483  0.00  0.00    +0.000 A 
ATOM      6  C   UNL     1       1.472   2.605  18.626  0.00  0.00    +0.000 C 
ATOM      7  C   UNL     1       2.745   4.708  19.298  0.00  0.00    +0.000 A 
ATOM      8  N   UNL     1       3.809   5.541  19.138  0.00  0.00    +0.000 NA
ATOM      9  C   UNL     1       4.756   5.334  18.185  0.00  0.00    +0.000 A 
ATOM     10  C   UNL     1       5.806   6.242  18.034  0.00  0.00    +0.000 A 
ATOM     11  C   UNL     1       6.757   6.074  17.004  0.00  0.00    +0.000 A 
ENDROOT
BRANCH   1  13
ATOM     12  C   UNL     1       7.182   4.910  13.732  0.00  0.00    +0.000 C 
ATOM     13  O   UNL     1       7.470   4.737  15.071  0.00  0.00    +0.000 OA
ENDBRANCH   1  13
BRANCH  11  14
ATOM     14  O   UNL     1       7.770   6.962  16.829  0.00  0.00    +0.000 OA
ATOM     15  C   UNL     1       8.024   8.083  17.589  0.00  0.00    +0.000 C 
ENDBRANCH  11  14
BRANCH   7  16
ATOM     16  S   UNL     1       1.495   5.125  20.532  0.00  0.00    +0.000 S 
BRANCH  16  17
ATOM     17  C   UNL     1       1.796   6.939  20.534  0.00  0.00    +0.000 C 
BRANCH  17  18
ATOM     18  C   UNL     1       0.716   7.704  21.322  0.00  0.00    +0.000 C 
BRANCH  18  19
ATOM     19  N   UNL     1       0.820   9.179  21.197  0.00  0.00    +0.000 NA
ATOM     20  C   UNL     1       0.790   9.622  19.780  0.00  0.00    +0.000 C 
ATOM     21  C   UNL     1       0.864  11.154  19.676  0.00  0.00    +0.000 C 
ATOM     22  C   UNL     1      -0.301  11.784  20.439  0.00  0.00    +0.000 C 
ATOM     23  C   UNL     1      -0.251  11.325  21.893  0.00  0.00    +0.000 C 
ATOM     24  C   UNL     1      -0.303   9.792  21.952  0.00  0.00    +0.000 C 
ENDBRANCH  18  19
ENDBRANCH  17  18
ENDBRANCH  16  17
ENDBRANCH   7  16
TORSDOF 6
ENDMDL
MODEL 9
REMARK VINA RESULT:      -6.8      3.470      6.756
REMARK  Name = 
REMARK  9 active torsions:
REMARK  status: ('A' for Active; 'I' for Inactive)
REMARK    1  A    between atoms: C_1  and  O_2
REMARK    2  A    between atoms: O_2  and  C_3
REMARK    3  A    between atoms: C_7  and  C_8
REMARK    4  A    between atoms: C_9  and  S_10
REMARK    5  A    between atoms: S_10  and  C_11
REMARK    6  A    between atoms: C_11  and  C_12
REMARK    7  A    between atoms: C_12  and  N_13
REMARK    8  A    between atoms: C_22  and  O_23
REMARK    9  A    between atoms: O_23  and  C_24
REMARK                            x       y       z     vdW  Elec       q    Type
REMARK                         _______ _______ _______ _____ _____    ______ ____
ROOT
ATOM      1  C   UNL     1       6.713   5.097  16.066  0.00  0.00    +0.000 A 
ATOM      2  C   UNL     1       5.784   4.068  16.267  0.00  0.00    +0.000 A 
ATOM      3  C   UNL     1       4.968   4.049  17.402  0.00  0.00    +0.000 A 
ATOM      4  C   UNL     1       4.007   3.050  17.585  0.00  0.00    +0.000 A 
ATOM      5  C   UNL     1       3.153   3.087  18.697  0.00  0.00    +0.000 A 
ATOM      6  C   UNL     1       2.104   2.020  18.859  0.00  0.00    +0.000 C 
ATOM      7  C   UNL     1       3.295   4.138  19.628  0.00  0.00    +0.000 A 
ATOM      8  N   UNL     1       4.264   5.075  19.445  0.00  0.00    +0.000 NA
ATOM      9  C   UNL     1       5.090   5.064  18.366  0.00  0.00    +0.000 A 
ATOM     10  C   UNL     1       6.041   6.074  18.203  0.00  0.00    +0.000 A 
ATOM     11  C   UNL     1       6.858   6.111  17.052  0.00  0.00    +0.000 A 
ENDROOT
BRANCH   1  13
ATOM     12  C   UNL     1       6.905   4.857  13.626  0.00  0.00    +0.000 C 
ATOM     13  O   UNL     1       7.407   5.074  14.894  0.00  0.00    +0.000 OA
ENDBRANCH   1  13
BRANCH  11  14
ATOM     14  O   UNL     1       7.771   7.100  16.867  0.00  0.00    +0.000 OA
ATOM     15  C   UNL     1       7.939   8.223  17.648  0.00  0.00    +0.000 C 
ENDBRANCH  11  14
BRANCH   7  16
ATOM     16  S   UNL     1       2.191   4.298  21.048  0.00  0.00    +0.000 S 
BRANCH  16  17
ATOM     17  C   UNL     1       1.253   5.751  20.425  0.00  0.00    +0.000 C 
BRANCH  17  18
ATOM     18  C   UNL     1       2.182   6.917  20.039  0.00  0.00    +0.000 C 
BRANCH  18  19
ATOM     19  N   UNL     1       1.718   8.237  20.534  0.00  0.00    +0.000 NA
ATOM     20  C   UNL     1       1.282   9.126  19.428  0.00  0.00    +0.000 C 
ATOM     21  C   UNL     1       0.772  10.473  19.966  0.00  0.00    +0.000 C 
ATOM     22  C   UNL     1      -0.390  10.242  20.930  0.00  0.00    +0.000 C 
ATOM     23  C   UNL     1       0.076   9.333  22.064  0.00  0.00    +0.000 C 
ATOM     24  C   UNL     1       0.598   8.012  21.484  0.00  0.00    +0.000 C 
ENDBRANCH  18  19
ENDBRANCH  17  18
ENDBRANCH  16  17
ENDBRANCH   7  16
TORSDOF 6
ENDMDL
