MODEL 1
REMARK VINA RESULT:      -8.6      0.000      0.000
REMARK  Name = 
REMARK  3 active torsions:
REMARK  status: ('A' for Active; 'I' for Inactive)
REMARK    1  A    between atoms: C_1  and  N_2
REMARK    2  A    between atoms: C_7  and  S_8
REMARK    3  A    between atoms: S_8  and  N_11
REMARK                            x       y       z     vdW  Elec       q    Type
REMARK                         _______ _______ _______ _____ _____    ______ ____
ROOT
ATOM      1  C   UNL     1       4.766   5.678  16.909  0.00  0.00    +0.000 C 
ATOM      2  N   UNL     1       3.796   5.898  17.957  0.00  0.00    +0.000 N 
ATOM      3  C   UNL     1       3.440   5.009  18.930  0.00  0.00    +0.000 A 
ATOM      4  C   UNL     1       2.434   5.565  19.697  0.00  0.00    +0.000 A 
ATOM      5  C   UNL     1       2.216   6.882  19.220  0.00  0.00    +0.000 A 
ATOM      6  C   UNL     1       1.385   7.940  19.631  0.00  0.00    +0.000 A 
ATOM      7  C   UNL     1       1.452   9.165  18.950  0.00  0.00    +0.000 A 
ATOM      8  C   UNL     1       2.322   9.347  17.876  0.00  0.00    +0.000 A 
ATOM      9  C   UNL     1       3.144   8.299  17.444  0.00  0.00    +0.000 A 
ATOM     10  C   UNL     1       3.083   7.075  18.134  0.00  0.00    +0.000 A 
ATOM     11  C   UNL     1       1.824   4.801  20.835  0.00  0.00    +0.000 C 
ATOM     12  C   UNL     1       0.728   3.846  20.413  0.00  0.00    +0.000 C 
ATOM     13  C   UNL     1       1.458   2.504  20.390  0.00  0.00    +0.000 C 
ATOM     14  C   UNL     1       2.989   2.807  20.163  0.00  0.00    +0.000 C 
ATOM     15  C   UNL     1       4.008   3.653  19.237  0.00  0.00    +0.000 C 
ATOM     16  N   UNL     1       2.847   3.821  21.268  0.00  0.00    +0.000 NA
ATOM     17  H   UNL     1       3.719   4.314  21.453  0.00  0.00    +0.000 HD
ENDROOT
BRANCH   7  18
ATOM     18  S   UNL     1       0.507  10.535  19.568  0.00  0.00    +0.000 S 
ATOM     19  O   UNL     1       0.140  10.247  20.942  0.00  0.00    +0.000 OA
ATOM     20  O   UNL     1       1.174  11.769  19.206  0.00  0.00    +0.000 OA
BRANCH  18  21
ATOM     21  N   UNL     1      -0.950  10.487  18.687  0.00  0.00    +0.000 N 
ATOM     22  C   UNL     1      -1.082   9.775  17.519  0.00  0.00    +0.000 A 
ATOM     23  C   UNL     1      -2.349  10.006  17.036  0.00  0.00    +0.000 A 
ATOM     24  C   UNL     1      -2.993  10.907  17.930  0.00  0.00    +0.000 A 
ATOM     25  C   UNL     1      -4.272  11.484  17.952  0.00  0.00    +0.000 A 
ATOM     26  C   UNL     1      -4.550  12.331  19.011  0.00  0.00    +0.000 A 
ATOM     27  N   UNL     1      -3.679  12.633  19.996  0.00  0.00    +0.000 NA
ATOM     28  C   UNL     1      -2.444  12.079  19.989  0.00  0.00    +0.000 A 
ATOM     29  C   UNL     1      -2.090  11.214  18.956  0.00  0.00    +0.000 A 
ENDBRANCH  18  21
ENDBRANCH   7  18
TORSDOF 2
ENDMDL
MODEL 2
REMARK VINA RESULT:      -8.2      1.917      2.424
REMARK  Name = 
REMARK  3 active torsions:
REMARK  status: ('A' for Active; 'I' for Inactive)
REMARK    1  A    between atoms: C_1  and  N_2
REMARK    2  A    between atoms: C_7  and  S_8
REMARK    3  A    between atoms: S_8  and  N_11
REMARK                            x       y       z     vdW  Elec       q    Type
REMARK                         _______ _______ _______ _____ _____    ______ ____
ROOT
ATOM      1  C   UNL     1       4.542   6.017  16.572  0.00  0.00    +0.000 C 
ATOM      2  N   UNL     1       3.743   5.858  17.766  0.00  0.00    +0.000 N 
ATOM      3  C   UNL     1       3.598   4.714  18.496  0.00  0.00    +0.000 A 
ATOM      4  C   UNL     1       2.700   4.948  19.520  0.00  0.00    +0.000 A 
ATOM      5  C   UNL     1       2.337   6.317  19.461  0.00  0.00    +0.000 A 
ATOM      6  C   UNL     1       1.527   7.144  20.260  0.00  0.00    +0.000 A 
ATOM      7  C   UNL     1       1.417   8.506  19.941  0.00  0.00    +0.000 A 
ATOM      8  C   UNL     1       2.092   9.048  18.847  0.00  0.00    +0.000 A 
ATOM      9  C   UNL     1       2.888   8.235  18.032  0.00  0.00    +0.000 A 
ATOM     10  C   UNL     1       3.006   6.873  18.360  0.00  0.00    +0.000 A 
ATOM     11  C   UNL     1       2.325   3.856  20.478  0.00  0.00    +0.000 C 
ATOM     12  C   UNL     1       1.228   2.946  19.967  0.00  0.00    +0.000 C 
ATOM     13  C   UNL     1       2.017   1.734  19.473  0.00  0.00    +0.000 C 
ATOM     14  C   UNL     1       3.472   2.231  19.125  0.00  0.00    +0.000 C 
ATOM     15  C   UNL     1       4.280   3.386  18.334  0.00  0.00    +0.000 C 
ATOM     16  N   UNL     1       3.455   2.900  20.476  0.00  0.00    +0.000 NA
ATOM     17  H   UNL     1       4.318   3.407  20.665  0.00  0.00    +0.000 HD
ENDROOT
BRANCH   7  18
ATOM     18  S   UNL     1       0.512   9.567  21.039  0.00  0.00    +0.000 S 
ATOM     19  O   UNL     1      -0.631   8.827  21.543  0.00  0.00    +0.000 OA
ATOM     20  O   UNL     1       1.442  10.223  21.935  0.00  0.00    +0.000 OA
BRANCH  18  21
ATOM     21  N   UNL     1      -0.138  10.778  20.032  0.00  0.00    +0.000 N 
ATOM     22  C   UNL     1      -1.211  10.550  19.204  0.00  0.00    +0.000 A 
ATOM     23  C   UNL     1      -1.430  11.702  18.486  0.00  0.00    +0.000 A 
ATOM     24  C   UNL     1      -0.441  12.648  18.877  0.00  0.00    +0.000 A 
ATOM     25  C   UNL     1      -0.176  13.971  18.493  0.00  0.00    +0.000 A 
ATOM     26  C   UNL     1       0.898  14.591  19.109  0.00  0.00    +0.000 A 
ATOM     27  N   UNL     1       1.691  14.006  20.030  0.00  0.00    +0.000 NA
ATOM     28  C   UNL     1       1.443  12.732  20.413  0.00  0.00    +0.000 A 
ATOM     29  C   UNL     1       0.377  12.042  19.839  0.00  0.00    +0.000 A 
ENDBRANCH  18  21
ENDBRANCH   7  18
TORSDOF 2
ENDMDL
MODEL 3
REMARK VINA RESULT:      -8.1      1.730      2.338
REMARK  Name = 
REMARK  3 active torsions:
REMARK  status: ('A' for Active; 'I' for Inactive)
REMARK    1  A    between atoms: C_1  and  N_2
REMARK    2  A    between atoms: C_7  and  S_8
REMARK    3  A    between atoms: S_8  and  N_11
REMARK                            x       y       z     vdW  Elec       q    Type
REMARK                         _______ _______ _______ _____ _____    ______ ____
ROOT
ATOM      1  C   UNL     1       4.573   6.074  16.343  0.00  0.00    +0.000 C 
ATOM      2  N   UNL     1       3.832   5.791  17.551  0.00  0.00    +0.000 N 
ATOM      3  C   UNL     1       3.731   4.580  18.174  0.00  0.00    +0.000 A 
ATOM      4  C   UNL     1       2.880   4.703  19.255  0.00  0.00    +0.000 A 
ATOM      5  C   UNL     1       2.503   6.067  19.345  0.00  0.00    +0.000 A 
ATOM      6  C   UNL     1       1.724   6.802  20.257  0.00  0.00    +0.000 A 
ATOM      7  C   UNL     1       1.587   8.187  20.076  0.00  0.00    +0.000 A 
ATOM      8  C   UNL     1       2.205   8.841  19.010  0.00  0.00    +0.000 A 
ATOM      9  C   UNL     1       2.969   8.120  18.085  0.00  0.00    +0.000 A 
ATOM     10  C   UNL     1       3.114   6.734  18.273  0.00  0.00    +0.000 A 
ATOM     11  C   UNL     1       2.560   3.519  20.119  0.00  0.00    +0.000 C 
ATOM     12  C   UNL     1       1.448   2.648  19.574  0.00  0.00    +0.000 C 
ATOM     13  C   UNL     1       2.223   1.500  18.929  0.00  0.00    +0.000 C 
ATOM     14  C   UNL     1       3.656   2.047  18.564  0.00  0.00    +0.000 C 
ATOM     15  C   UNL     1       4.416   3.283  17.853  0.00  0.00    +0.000 C 
ATOM     16  N   UNL     1       3.697   2.582  19.973  0.00  0.00    +0.000 NA
ATOM     17  H   UNL     1       4.563   3.081  20.170  0.00  0.00    +0.000 HD
ENDROOT
BRANCH   7  18
ATOM     18  S   UNL     1       0.725   9.125  21.312  0.00  0.00    +0.000 S 
ATOM     19  O   UNL     1      -0.546   8.474  21.570  0.00  0.00    +0.000 OA
ATOM     20  O   UNL     1       1.643   9.445  22.386  0.00  0.00    +0.000 OA
BRANCH  18  21
ATOM     21  N   UNL     1       0.335  10.595  20.544  0.00  0.00    +0.000 N 
ATOM     22  C   UNL     1       0.811  11.806  20.986  0.00  0.00    +0.000 A 
ATOM     23  C   UNL     1       0.252  12.783  20.195  0.00  0.00    +0.000 A 
ATOM     24  C   UNL     1      -0.607  12.140  19.259  0.00  0.00    +0.000 A 
ATOM     25  C   UNL     1      -1.421  12.617  18.222  0.00  0.00    +0.000 A 
ATOM     26  C   UNL     1      -2.129  11.668  17.504  0.00  0.00    +0.000 A 
ATOM     27  N   UNL     1      -2.087  10.342  17.745  0.00  0.00    +0.000 NA
ATOM     28  C   UNL     1      -1.301   9.868  18.740  0.00  0.00    +0.000 A 
ATOM     29  C   UNL     1      -0.557  10.762  19.507  0.00  0.00    +0.000 A 
ENDBRANCH  18  21
ENDBRANCH   7  18
TORSDOF 2
ENDMDL
MODEL 4
REMARK VINA RESULT:      -8.1      1.109      2.998
REMARK  Name = 
REMARK  3 active torsions:
REMARK  status: ('A' for Active; 'I' for Inactive)
REMARK    1  A    between atoms: C_1  and  N_2
REMARK    2  A    between atoms: C_7  and  S_8
REMARK    3  A    between atoms: S_8  and  N_11
REMARK                            x       y       z     vdW  Elec       q    Type
REMARK                         _______ _______ _______ _____ _____    ______ ____
ROOT
ATOM      1  C   UNL     1       2.617   3.986  20.421  0.00  0.00    +0.000 C 
ATOM      2  N   UNL     1       2.905   5.109  19.558  0.00  0.00    +0.000 N 
ATOM      3  C   UNL     1       3.731   5.104  18.471  0.00  0.00    +0.000 A 
ATOM      4  C   UNL     1       3.798   6.383  17.954  0.00  0.00    +0.000 A 
ATOM      5  C   UNL     1       2.915   7.193  18.712  0.00  0.00    +0.000 A 
ATOM      6  C   UNL     1       2.512   8.538  18.623  0.00  0.00    +0.000 A 
ATOM      7  C   UNL     1       1.556   9.025  19.527  0.00  0.00    +0.000 A 
ATOM      8  C   UNL     1       1.006   8.201  20.510  0.00  0.00    +0.000 A 
ATOM      9  C   UNL     1       1.409   6.866  20.621  0.00  0.00    +0.000 A 
ATOM     10  C   UNL     1       2.359   6.377  19.707  0.00  0.00    +0.000 A 
ATOM     11  C   UNL     1       4.656   6.686  16.761  0.00  0.00    +0.000 C 
ATOM     12  C   UNL     1       6.109   6.941  17.102  0.00  0.00    +0.000 C 
ATOM     13  C   UNL     1       6.761   5.601  16.767  0.00  0.00    +0.000 C 
ATOM     14  C   UNL     1       5.642   4.495  16.874  0.00  0.00    +0.000 C 
ATOM     15  C   UNL     1       4.457   3.955  17.831  0.00  0.00    +0.000 C 
ATOM     16  N   UNL     1       4.800   5.410  16.023  0.00  0.00    +0.000 NA
ATOM     17  H   UNL     1       3.874   5.025  15.844  0.00  0.00    +0.000 HD
ENDROOT
BRANCH   7  18
ATOM     18  S   UNL     1       0.948  10.679  19.314  0.00  0.00    +0.000 S 
ATOM     19  O   UNL     1       0.686  11.237  20.628  0.00  0.00    +0.000 OA
ATOM     20  O   UNL     1       1.782  11.368  18.352  0.00  0.00    +0.000 OA
BRANCH  18  21
ATOM     21  N   UNL     1      -0.582  10.486  18.589  0.00  0.00    +0.000 N 
ATOM     22  C   UNL     1      -0.782   9.680  17.495  0.00  0.00    +0.000 A 
ATOM     23  C   UNL     1      -2.101   9.807  17.124  0.00  0.00    +0.000 A 
ATOM     24  C   UNL     1      -2.710  10.739  18.012  0.00  0.00    +0.000 A 
ATOM     25  C   UNL     1      -4.012  11.248  18.120  0.00  0.00    +0.000 A 
ATOM     26  C   UNL     1      -4.238  12.159  19.137  0.00  0.00    +0.000 A 
ATOM     27  N   UNL     1      -3.296  12.581  20.006  0.00  0.00    +0.000 NA
ATOM     28  C   UNL     1      -2.037  12.094  19.916  0.00  0.00    +0.000 A 
ATOM     29  C   UNL     1      -1.732  11.171  18.918  0.00  0.00    +0.000 A 
ENDBRANCH  18  21
ENDBRANCH   7  18
TORSDOF 2
ENDMDL
MODEL 5
REMARK VINA RESULT:      -8.0      1.284      1.631
REMARK  Name = 
REMARK  3 active torsions:
REMARK  status: ('A' for Active; 'I' for Inactive)
REMARK    1  A    between atoms: C_1  and  N_2
REMARK    2  A    between atoms: C_7  and  S_8
REMARK    3  A    between atoms: S_8  and  N_11
REMARK                            x       y       z     vdW  Elec       q    Type
REMARK                         _______ _______ _______ _____ _____    ______ ____
ROOT
ATOM      1  C   UNL     1       4.502   5.983  16.705  0.00  0.00    +0.000 C 
ATOM      2  N   UNL     1       3.662   6.014  17.881  0.00  0.00    +0.000 N 
ATOM      3  C   UNL     1       3.455   4.985  18.754  0.00  0.00    +0.000 A 
ATOM      4  C   UNL     1       2.536   5.385  19.705  0.00  0.00    +0.000 A 
ATOM      5  C   UNL     1       2.223   6.743  19.448  0.00  0.00    +0.000 A 
ATOM      6  C   UNL     1       1.419   7.697  20.099  0.00  0.00    +0.000 A 
ATOM      7  C   UNL     1       1.366   9.005  19.595  0.00  0.00    +0.000 A 
ATOM      8  C   UNL     1       2.092   9.371  18.461  0.00  0.00    +0.000 A 
ATOM      9  C   UNL     1       2.883   8.430  17.792  0.00  0.00    +0.000 A 
ATOM     10  C   UNL     1       2.943   7.122  18.305  0.00  0.00    +0.000 A 
ATOM     11  C   UNL     1       2.094   4.446  20.788  0.00  0.00    +0.000 C 
ATOM     12  C   UNL     1       0.981   3.509  20.369  0.00  0.00    +0.000 C 
ATOM     13  C   UNL     1       1.741   2.217  20.071  0.00  0.00    +0.000 C 
ATOM     14  C   UNL     1       3.223   2.617  19.709  0.00  0.00    +0.000 C 
ATOM     15  C   UNL     1       4.095   3.627  18.797  0.00  0.00    +0.000 C 
ATOM     16  N   UNL     1       3.189   3.464  20.955  0.00  0.00    +0.000 NA
ATOM     17  H   UNL     1       4.063   3.966  21.103  0.00  0.00    +0.000 HD
ENDROOT
BRANCH   7  18
ATOM     18  S   UNL     1       0.467  10.233  20.507  0.00  0.00    +0.000 S 
ATOM     19  O   UNL     1      -0.582   9.563  21.254  0.00  0.00    +0.000 OA
ATOM     20  O   UNL     1       1.408  11.122  21.157  0.00  0.00    +0.000 OA
BRANCH  18  21
ATOM     21  N   UNL     1      -0.337  11.151  19.318  0.00  0.00    +0.000 N 
ATOM     22  C   UNL     1      -0.037  12.471  19.079  0.00  0.00    +0.000 A 
ATOM     23  C   UNL     1      -0.910  12.924  18.118  0.00  0.00    +0.000 A 
ATOM     24  C   UNL     1      -1.781  11.849  17.784  0.00  0.00    +0.000 A 
ATOM     25  C   UNL     1      -2.847  11.724  16.881  0.00  0.00    +0.000 A 
ATOM     26  C   UNL     1      -3.472  10.490  16.829  0.00  0.00    +0.000 A 
ATOM     27  N   UNL     1      -3.127   9.427  17.584  0.00  0.00    +0.000 NA
ATOM     28  C   UNL     1      -2.097   9.533  18.455  0.00  0.00    +0.000 A 
ATOM     29  C   UNL     1      -1.417  10.744  18.565  0.00  0.00    +0.000 A 
ENDBRANCH  18  21
ENDBRANCH   7  18
TORSDOF 2
ENDMDL
MODEL 6
REMARK VINA RESULT:      -8.0      2.730      4.187
REMARK  Name = 
REMARK  3 active torsions:
REMARK  status: ('A' for Active; 'I' for Inactive)
REMARK    1  A    between atoms: C_1  and  N_2
REMARK    2  A    between atoms: C_7  and  S_8
REMARK    3  A    between atoms: S_8  and  N_11
REMARK                            x       y       z     vdW  Elec       q    Type
REMARK                         _______ _______ _______ _____ _____    ______ ____
ROOT
ATOM      1  C   UNL     1       3.194   2.362  18.340  0.00  0.00    +0.000 C 
ATOM      2  N   UNL     1       3.400   3.793  18.295  0.00  0.00    +0.000 N 
ATOM      3  C   UNL     1       4.238   4.463  17.452  0.00  0.00    +0.000 A 
ATOM      4  C   UNL     1       4.206   5.808  17.767  0.00  0.00    +0.000 A 
ATOM      5  C   UNL     1       3.249   5.979  18.799  0.00  0.00    +0.000 A 
ATOM      6  C   UNL     1       2.737   7.103  19.474  0.00  0.00    +0.000 A 
ATOM      7  C   UNL     1       1.733   6.922  20.436  0.00  0.00    +0.000 A 
ATOM      8  C   UNL     1       1.240   5.652  20.735  0.00  0.00    +0.000 A 
ATOM      9  C   UNL     1       1.750   4.522  20.084  0.00  0.00    +0.000 A 
ATOM     10  C   UNL     1       2.750   4.707  19.112  0.00  0.00    +0.000 A 
ATOM     11  C   UNL     1       5.052   6.793  17.015  0.00  0.00    +0.000 C 
ATOM     12  C   UNL     1       6.474   6.892  17.526  0.00  0.00    +0.000 C 
ATOM     13  C   UNL     1       7.239   6.032  16.521  0.00  0.00    +0.000 C 
ATOM     14  C   UNL     1       6.214   5.001  15.910  0.00  0.00    +0.000 C 
ATOM     15  C   UNL     1       5.065   3.939  16.313  0.00  0.00    +0.000 C 
ATOM     16  N   UNL     1       5.311   6.187  15.689  0.00  0.00    +0.000 NA
ATOM     17  H   UNL     1       4.422   5.921  15.269  0.00  0.00    +0.000 HD
ENDROOT
BRANCH   7  18
ATOM     18  S   UNL     1       0.993   8.356  21.174  0.00  0.00    +0.000 S 
ATOM     19  O   UNL     1      -0.412   8.073  21.405  0.00  0.00    +0.000 OA
ATOM     20  O   UNL     1       1.851   8.835  22.238  0.00  0.00    +0.000 OA
BRANCH  18  21
ATOM     21  N   UNL     1       1.024   9.538  19.947  0.00  0.00    +0.000 N 
ATOM     22  C   UNL     1       1.393   9.248  18.655  0.00  0.00    +0.000 A 
ATOM     23  C   UNL     1       1.377  10.428  17.948  0.00  0.00    +0.000 A 
ATOM     24  C   UNL     1       1.010  11.467  18.850  0.00  0.00    +0.000 A 
ATOM     25  C   UNL     1       0.829  12.849  18.697  0.00  0.00    +0.000 A 
ATOM     26  C   UNL     1       0.456  13.554  19.829  0.00  0.00    +0.000 A 
ATOM     27  N   UNL     1       0.269  13.000  21.044  0.00  0.00    +0.000 NA
ATOM     28  C   UNL     1       0.435  11.667  21.204  0.00  0.00    +0.000 A 
ATOM     29  C   UNL     1       0.808  10.889  20.111  0.00  0.00    +0.000 A 
ENDBRANCH  18  21
ENDBRANCH   7  18
TORSDOF 2
ENDMDL
MODEL 7
REMARK VINA RESULT:      -7.9      1.932      2.581
REMARK  Name = 
REMARK  3 active torsions:
REMARK  status: ('A' for Active; 'I' for Inactive)
REMARK    1  A    between atoms: C_1  and  N_2
REMARK    2  A    between atoms: C_7  and  S_8
REMARK    3  A    between atoms: S_8  and  N_11
REMARK                            x       y       z     vdW  Elec       q    Type
REMARK                         _______ _______ _______ _____ _____    ______ ____
ROOT
ATOM      1  C   UNL     1       5.473   4.800  17.441  0.00  0.00    +0.000 C 
ATOM      2  N   UNL     1       4.338   5.173  18.255  0.00  0.00    +0.000 N 
ATOM      3  C   UNL     1       3.770   4.423  19.244  0.00  0.00    +0.000 A 
ATOM      4  C   UNL     1       2.667   5.094  19.736  0.00  0.00    +0.000 A 
ATOM      5  C   UNL     1       2.601   6.344  19.072  0.00  0.00    +0.000 A 
ATOM      6  C   UNL     1       1.758   7.464  19.190  0.00  0.00    +0.000 A 
ATOM      7  C   UNL     1       2.004   8.592  18.391  0.00  0.00    +0.000 A 
ATOM      8  C   UNL     1       3.064   8.616  17.485  0.00  0.00    +0.000 A 
ATOM      9  C   UNL     1       3.902   7.504  17.344  0.00  0.00    +0.000 A 
ATOM     10  C   UNL     1       3.660   6.379  18.153  0.00  0.00    +0.000 A 
ATOM     11  C   UNL     1       1.826   4.494  20.824  0.00  0.00    +0.000 C 
ATOM     12  C   UNL     1       0.783   3.519  20.322  0.00  0.00    +0.000 C 
ATOM     13  C   UNL     1       1.443   2.168  20.598  0.00  0.00    +0.000 C 
ATOM     14  C   UNL     1       3.001   2.405  20.627  0.00  0.00    +0.000 C 
ATOM     15  C   UNL     1       4.210   3.104  19.813  0.00  0.00    +0.000 C 
ATOM     16  N   UNL     1       2.706   3.555  21.555  0.00  0.00    +0.000 NA
ATOM     17  H   UNL     1       3.551   4.047  21.840  0.00  0.00    +0.000 HD
ENDROOT
BRANCH   7  18
ATOM     18  S   UNL     1       1.026  10.050  18.652  0.00  0.00    +0.000 S 
ATOM     19  O   UNL     1       1.887  11.207  18.489  0.00  0.00    +0.000 OA
ATOM     20  O   UNL     1      -0.216   9.922  17.917  0.00  0.00    +0.000 OA
BRANCH  18  21
ATOM     21  N   UNL     1       0.625  10.010  20.307  0.00  0.00    +0.000 N 
ATOM     22  C   UNL     1       1.182   9.105  21.179  0.00  0.00    +0.000 A 
ATOM     23  C   UNL     1       0.592   9.298  22.406  0.00  0.00    +0.000 A 
ATOM     24  C   UNL     1      -0.369  10.339  22.264  0.00  0.00    +0.000 A 
ATOM     25  C   UNL     1      -1.253  10.956  23.162  0.00  0.00    +0.000 A 
ATOM     26  C   UNL     1      -2.055  11.960  22.648  0.00  0.00    +0.000 A 
ATOM     27  N   UNL     1      -2.041  12.365  21.362  0.00  0.00    +0.000 NA
ATOM     28  C   UNL     1      -1.189  11.782  20.487  0.00  0.00    +0.000 A 
ATOM     29  C   UNL     1      -0.348  10.763  20.929  0.00  0.00    +0.000 A 
ENDBRANCH  18  21
ENDBRANCH   7  18
TORSDOF 2
ENDMDL
MODEL 8
REMARK VINA RESULT:      -7.8      1.840      2.216
REMARK  Name = 
REMARK  3 active torsions:
REMARK  status: ('A' for Active; 'I' for Inactive)
REMARK    1  A    between atoms: C_1  and  N_2
REMARK    2  A    between atoms: C_7  and  S_8
REMARK    3  A    between atoms: S_8  and  N_11
REMARK                            x       y       z     vdW  Elec       q    Type
REMARK                         _______ _______ _______ _____ _____    ______ ____
ROOT
ATOM      1  C   UNL     1       4.448   6.502  16.599  0.00  0.00    +0.000 C 
ATOM      2  N   UNL     1       3.721   6.126  17.790  0.00  0.00    +0.000 N 
ATOM      3  C   UNL     1       3.711   4.895  18.378  0.00  0.00    +0.000 A 
ATOM      4  C   UNL     1       2.843   4.919  19.453  0.00  0.00    +0.000 A 
ATOM      5  C   UNL     1       2.357   6.245  19.575  0.00  0.00    +0.000 A 
ATOM      6  C   UNL     1       1.514   6.891  20.497  0.00  0.00    +0.000 A 
ATOM      7  C   UNL     1       1.268   8.265  20.353  0.00  0.00    +0.000 A 
ATOM      8  C   UNL     1       1.842   8.995  19.312  0.00  0.00    +0.000 A 
ATOM      9  C   UNL     1       2.670   8.364  18.376  0.00  0.00    +0.000 A 
ATOM     10  C   UNL     1       2.923   6.989  18.529  0.00  0.00    +0.000 A 
ATOM     11  C   UNL     1       2.610   3.690  20.280  0.00  0.00    +0.000 C 
ATOM     12  C   UNL     1       1.577   2.748  19.698  0.00  0.00    +0.000 C 
ATOM     13  C   UNL     1       2.447   1.684  19.032  0.00  0.00    +0.000 C 
ATOM     14  C   UNL     1       3.835   2.354  18.699  0.00  0.00    +0.000 C 
ATOM     15  C   UNL     1       4.501   3.666  18.030  0.00  0.00    +0.000 C 
ATOM     16  N   UNL     1       3.820   2.851  20.121  0.00  0.00    +0.000 NA
ATOM     17  H   UNL     1       4.642   3.411  20.343  0.00  0.00    +0.000 HD
ENDROOT
BRANCH   7  18
ATOM     18  S   UNL     1       0.323   9.096  21.604  0.00  0.00    +0.000 S 
ATOM     19  O   UNL     1      -0.697   8.181  22.083  0.00  0.00    +0.000 OA
ATOM     20  O   UNL     1       1.229   9.763  22.515  0.00  0.00    +0.000 OA
BRANCH  18  21
ATOM     21  N   UNL     1      -0.520  10.318  20.767  0.00  0.00    +0.000 N 
ATOM     22  C   UNL     1      -0.682  10.299  19.402  0.00  0.00    +0.000 A 
ATOM     23  C   UNL     1      -1.338  11.455  19.049  0.00  0.00    +0.000 A 
ATOM     24  C   UNL     1      -1.557  12.207  20.238  0.00  0.00    +0.000 A 
ATOM     25  C   UNL     1      -2.172  13.442  20.490  0.00  0.00    +0.000 A 
ATOM     26  C   UNL     1      -2.201  13.861  21.809  0.00  0.00    +0.000 A 
ATOM     27  N   UNL     1      -1.676  13.169  22.841  0.00  0.00    +0.000 NA
ATOM     28  C   UNL     1      -1.085  11.973  22.612  0.00  0.00    +0.000 A 
ATOM     29  C   UNL     1      -1.018  11.483  21.309  0.00  0.00    +0.000 A 
ENDBRANCH  18  21
ENDBRANCH   7  18
TORSDOF 2
ENDMDL
MODEL 9
REMARK VINA RESULT:      -7.8      4.166      9.257
REMARK  Name = 
REMARK  3 active torsions:
REMARK  status: ('A' for Active; 'I' for Inactive)
REMARK    1  A    between atoms: C_1  and  N_2
REMARK    2  A    between atoms: C_7  and  S_8
REMARK    3  A    between atoms: S_8  and  N_11
REMARK                            x       y       z     vdW  Elec       q    Type
REMARK                         _______ _______ _______ _____ _____    ______ ____
ROOT
ATOM      1  C   UNL     1      -7.512  10.824  19.577  0.00  0.00    +0.000 C 
ATOM      2  N   UNL     1      -6.548  11.581  20.343  0.00  0.00    +0.000 N 
ATOM      3  C   UNL     1      -6.738  12.111  21.586  0.00  0.00    +0.000 A 
ATOM      4  C   UNL     1      -5.609  12.820  21.947  0.00  0.00    +0.000 A 
ATOM      5  C   UNL     1      -4.655  12.654  20.912  0.00  0.00    +0.000 A 
ATOM      6  C   UNL     1      -3.323  13.072  20.741  0.00  0.00    +0.000 A 
ATOM      7  C   UNL     1      -2.628  12.684  19.585  0.00  0.00    +0.000 A 
ATOM      8  C   UNL     1      -3.237  11.898  18.607  0.00  0.00    +0.000 A 
ATOM      9  C   UNL     1      -4.568  11.488  18.754  0.00  0.00    +0.000 A 
ATOM     10  C   UNL     1      -5.259  11.869  19.918  0.00  0.00    +0.000 A 
ATOM     11  C   UNL     1      -5.540  13.536  23.264  0.00  0.00    +0.000 C 
ATOM     12  C   UNL     1      -6.177  14.909  23.247  0.00  0.00    +0.000 C 
ATOM     13  C   UNL     1      -7.540  14.642  23.884  0.00  0.00    +0.000 C 
ATOM     14  C   UNL     1      -7.878  13.120  23.649  0.00  0.00    +0.000 C 
ATOM     15  C   UNL     1      -7.913  11.972  22.512  0.00  0.00    +0.000 C 
ATOM     16  N   UNL     1      -6.489  12.839  24.162  0.00  0.00    +0.000 NA
ATOM     17  H   UNL     1      -6.272  11.843  24.163  0.00  0.00    +0.000 HD
ENDROOT
BRANCH   7  18
ATOM     18  S   UNL     1      -0.906  13.092  19.450  0.00  0.00    +0.000 S 
ATOM     19  O   UNL     1      -0.610  13.345  18.051  0.00  0.00    +0.000 OA
ATOM     20  O   UNL     1      -0.567  14.053  20.480  0.00  0.00    +0.000 OA
BRANCH  18  21
ATOM     21  N   UNL     1      -0.088  11.648  19.835  0.00  0.00    +0.000 N 
ATOM     22  C   UNL     1       0.594  10.915  18.894  0.00  0.00    +0.000 A 
ATOM     23  C   UNL     1       1.071   9.785  19.517  0.00  0.00    +0.000 A 
ATOM     24  C   UNL     1       0.640   9.828  20.874  0.00  0.00    +0.000 A 
ATOM     25  C   UNL     1       0.826   8.967  21.965  0.00  0.00    +0.000 A 
ATOM     26  C   UNL     1       0.246   9.350  23.162  0.00  0.00    +0.000 A 
ATOM     27  N   UNL     1      -0.478  10.475  23.333  0.00  0.00    +0.000 NA
ATOM     28  C   UNL     1      -0.660  11.318  22.289  0.00  0.00    +0.000 A 
ATOM     29  C   UNL     1      -0.105  11.001  21.051  0.00  0.00    +0.000 A 
ENDBRANCH  18  21
ENDBRANCH   7  18
TORSDOF 2
ENDMDL
