MODEL 1
REMARK VINA RESULT:      -7.8      0.000      0.000
REMARK  Name = 
REMARK  7 active torsions:
REMARK  status: ('A' for Active; 'I' for Inactive)
REMARK    1  A    between atoms: C_1  and  C_2
REMARK    2  A    between atoms: C_2  and  O_3
REMARK    3  A    between atoms: O_3  and  C_4
REMARK    4  A    between atoms: C_7  and  C_8
REMARK    5  A    between atoms: C_8  and  C_10
REMARK    6  A    between atoms: C_14  and  C_16
REMARK    7  A    between atoms: C_19  and  N_20
REMARK                            x       y       z     vdW  Elec       q    Type
REMARK                         _______ _______ _______ _____ _____    ______ ____
ROOT
ATOM      1  C   UNL     1       6.633   5.261  18.627  0.00  0.00    +0.000 C 
ATOM      2  C   UNL     1       5.594   4.325  19.279  0.00  0.00    +0.000 C 
ATOM      3  C   UNL     1       4.172   4.408  18.734  0.00  0.00    +0.000 C 
ATOM      4  N   UNL     1       3.771   5.788  18.519  0.00  0.00    +0.000 N 
ATOM      5  C   UNL     1       2.615   6.252  19.162  0.00  0.00    +0.000 C 
ATOM      6  O   UNL     1       1.939   5.523  19.887  0.00  0.00    +0.000 OA
ATOM      7  C   UNL     1       4.622   6.461  17.544  0.00  0.00    +0.000 C 
ATOM      8  C   UNL     1       6.034   6.594  18.116  0.00  0.00    +0.000 C 
ENDROOT
BRANCH   5   9
ATOM      9  C   UNL     1       2.121   7.653  19.000  0.00  0.00    +0.000 A 
ATOM     10  C   UNL     1       1.529   8.274  20.117  0.00  0.00    +0.000 A 
ATOM     11  C   UNL     1       1.056   9.592  20.045  0.00  0.00    +0.000 A 
ATOM     12  C   UNL     1       1.159  10.291  18.837  0.00  0.00    +0.000 A 
ATOM     13  C   UNL     1       1.778   9.697  17.729  0.00  0.00    +0.000 A 
ATOM     14  C   UNL     1       2.295   8.400  17.831  0.00  0.00    +0.000 A 
BRANCH  12  15
ATOM     15  N   UNL     1       0.640  11.656  18.728  0.00  0.00    +0.000 N 
ATOM     16  O   UNL     1       1.461  12.566  18.506  0.00  0.00    +0.000 OA
ATOM     17  O   UNL     1      -0.580  11.825  18.867  0.00  0.00    +0.000 OA
ENDBRANCH  12  15
ENDBRANCH   5   9
BRANCH   1  18
ATOM     18  C   UNL     1       7.499   4.559  17.570  0.00  0.00    +0.000 C 
ATOM     19  O   UNL     1       8.591   4.072  17.856  0.00  0.00    +0.000 OA
BRANCH  18  23
ATOM     20  C   UNL     1       6.058   4.157  13.499  0.00  0.00    +0.000 A 
ATOM     21  C   UNL     1       7.144   4.982  13.799  0.00  0.00    +0.000 A 
ATOM     22  C   UNL     1       7.604   5.107  15.118  0.00  0.00    +0.000 A 
ATOM     23  C   UNL     1       6.976   4.409  16.161  0.00  0.00    +0.000 A 
ATOM     24  C   UNL     1       5.882   3.591  15.848  0.00  0.00    +0.000 A 
ATOM     25  C   UNL     1       5.411   3.486  14.533  0.00  0.00    +0.000 A 
BRANCH  20  26
ATOM     26  O   UNL     1       5.713   4.081  12.178  0.00  0.00    +0.000 OA
BRANCH  26  28
ATOM     27  C   UNL     1       3.800   3.115  11.116  0.00  0.00    +0.000 C 
ATOM     28  C   UNL     1       5.149   2.836  11.753  0.00  0.00    +0.000 C 
ENDBRANCH  26  28
ENDBRANCH  20  26
ENDBRANCH  18  23
ENDBRANCH   1  18
TORSDOF 6
ENDMDL
MODEL 2
REMARK VINA RESULT:      -7.6      2.396      4.202
REMARK  Name = 
REMARK  7 active torsions:
REMARK  status: ('A' for Active; 'I' for Inactive)
REMARK    1  A    between atoms: C_1  and  C_2
REMARK    2  A    between atoms: C_2  and  O_3
REMARK    3  A    between atoms: O_3  and  C_4
REMARK    4  A    between atoms: C_7  and  C_8
REMARK    5  A    between atoms: C_8  and  C_10
REMARK    6  A    between atoms: C_14  and  C_16
REMARK    7  A    between atoms: C_19  and  N_20
REMARK                            x       y       z     vdW  Elec       q    Type
REMARK                         _______ _______ _______ _____ _____    ______ ____
ROOT
ATOM      1  C   UNL     1       2.101   5.170  19.141  0.00  0.00    +0.000 C 
ATOM      2  C   UNL     1       2.151   6.017  17.853  0.00  0.00    +0.000 C 
ATOM      3  C   UNL     1       2.539   7.482  18.021  0.00  0.00    +0.000 C 
ATOM      4  N   UNL     1       1.875   8.073  19.170  0.00  0.00    +0.000 N 
ATOM      5  C   UNL     1       1.085   9.214  18.970  0.00  0.00    +0.000 C 
ATOM      6  O   UNL     1       0.951   9.722  17.857  0.00  0.00    +0.000 OA
ATOM      7  C   UNL     1       2.241   7.408  20.417  0.00  0.00    +0.000 C 
ATOM      8  C   UNL     1       1.702   5.977  20.400  0.00  0.00    +0.000 C 
ENDROOT
BRANCH   5   9
ATOM      9  C   UNL     1       0.367   9.893  20.090  0.00  0.00    +0.000 A 
ATOM     10  C   UNL     1      -0.108  11.201  19.868  0.00  0.00    +0.000 A 
ATOM     11  C   UNL     1      -0.804  11.896  20.867  0.00  0.00    +0.000 A 
ATOM     12  C   UNL     1      -1.012  11.284  22.109  0.00  0.00    +0.000 A 
ATOM     13  C   UNL     1      -0.576   9.971  22.330  0.00  0.00    +0.000 A 
ATOM     14  C   UNL     1       0.070   9.268  21.305  0.00  0.00    +0.000 A 
BRANCH  12  15
ATOM     15  N   UNL     1      -1.705  12.003  23.179  0.00  0.00    +0.000 N 
ATOM     16  O   UNL     1      -2.778  11.524  23.592  0.00  0.00    +0.000 OA
ATOM     17  O   UNL     1      -1.187  13.046  23.607  0.00  0.00    +0.000 OA
ENDBRANCH  12  15
ENDBRANCH   5   9
BRANCH   1  18
ATOM     18  C   UNL     1       3.365   4.324  19.358  0.00  0.00    +0.000 C 
ATOM     19  O   UNL     1       3.454   3.530  20.292  0.00  0.00    +0.000 OA
BRANCH  18  23
ATOM     20  C   UNL     1       6.587   4.585  16.467  0.00  0.00    +0.000 A 
ATOM     21  C   UNL     1       5.397   3.922  16.159  0.00  0.00    +0.000 A 
ATOM     22  C   UNL     1       4.360   3.843  17.100  0.00  0.00    +0.000 A 
ATOM     23  C   UNL     1       4.503   4.422  18.369  0.00  0.00    +0.000 A 
ATOM     24  C   UNL     1       5.706   5.075  18.669  0.00  0.00    +0.000 A 
ATOM     25  C   UNL     1       6.748   5.134  17.735  0.00  0.00    +0.000 A 
BRANCH  20  26
ATOM     26  O   UNL     1       7.520   4.633  15.467  0.00  0.00    +0.000 OA
BRANCH  26  28
ATOM     27  C   UNL     1       7.887   5.320  13.206  0.00  0.00    +0.000 C 
ATOM     28  C   UNL     1       7.013   4.498  14.136  0.00  0.00    +0.000 C 
ENDBRANCH  26  28
ENDBRANCH  20  26
ENDBRANCH  18  23
ENDBRANCH   1  18
TORSDOF 6
ENDMDL
MODEL 3
REMARK VINA RESULT:      -7.5      0.170      1.087
REMARK  Name = 
REMARK  7 active torsions:
REMARK  status: ('A' for Active; 'I' for Inactive)
REMARK    1  A    between atoms: C_1  and  C_2
REMARK    2  A    between atoms: C_2  and  O_3
REMARK    3  A    between atoms: O_3  and  C_4
REMARK    4  A    between atoms: C_7  and  C_8
REMARK    5  A    between atoms: C_8  and  C_10
REMARK    6  A    between atoms: C_14  and  C_16
REMARK    7  A    between atoms: C_19  and  N_20
REMARK                            x       y       z     vdW  Elec       q    Type
REMARK                         _______ _______ _______ _____ _____    ______ ____
ROOT
ATOM      1  C   UNL     1       6.650   5.256  18.605  0.00  0.00    +0.000 C 
ATOM      2  C   UNL     1       5.640   4.307  19.283  0.00  0.00    +0.000 C 
ATOM      3  C   UNL     1       4.208   4.356  18.759  0.00  0.00    +0.000 C 
ATOM      4  N   UNL     1       3.776   5.725  18.537  0.00  0.00    +0.000 N 
ATOM      5  C   UNL     1       2.622   6.174  19.193  0.00  0.00    +0.000 C 
ATOM      6  O   UNL     1       1.971   5.439  19.936  0.00  0.00    +0.000 OA
ATOM      7  C   UNL     1       4.599   6.405  17.541  0.00  0.00    +0.000 C 
ATOM      8  C   UNL     1       6.017   6.571  18.090  0.00  0.00    +0.000 C 
ENDROOT
BRANCH   5   9
ATOM      9  C   UNL     1       2.098   7.563  19.024  0.00  0.00    +0.000 A 
ATOM     10  C   UNL     1       1.581   8.212  20.162  0.00  0.00    +0.000 A 
ATOM     11  C   UNL     1       1.085   9.521  20.085  0.00  0.00    +0.000 A 
ATOM     12  C   UNL     1       1.090  10.183  18.852  0.00  0.00    +0.000 A 
ATOM     13  C   UNL     1       1.635   9.562  17.720  0.00  0.00    +0.000 A 
ATOM     14  C   UNL     1       2.175   8.274  17.823  0.00  0.00    +0.000 A 
BRANCH  12  15
ATOM     15  N   UNL     1       0.546  11.538  18.739  0.00  0.00    +0.000 N 
ATOM     16  O   UNL     1      -0.671  11.650  18.502  0.00  0.00    +0.000 OA
ATOM     17  O   UNL     1       1.328  12.490  18.881  0.00  0.00    +0.000 OA
ENDBRANCH  12  15
ENDBRANCH   5   9
BRANCH   1  18
ATOM     18  C   UNL     1       7.513   4.560  17.542  0.00  0.00    +0.000 C 
ATOM     19  O   UNL     1       8.576   4.016  17.833  0.00  0.00    +0.000 OA
BRANCH  18  23
ATOM     20  C   UNL     1       6.038   4.320  13.470  0.00  0.00    +0.000 A 
ATOM     21  C   UNL     1       5.439   3.586  14.496  0.00  0.00    +0.000 A 
ATOM     22  C   UNL     1       5.923   3.669  15.810  0.00  0.00    +0.000 A 
ATOM     23  C   UNL     1       7.020   4.487  16.115  0.00  0.00    +0.000 A 
ATOM     24  C   UNL     1       7.618   5.212  15.075  0.00  0.00    +0.000 A 
ATOM     25  C   UNL     1       7.147   5.110  13.760  0.00  0.00    +0.000 A 
BRANCH  20  26
ATOM     26  O   UNL     1       5.468   4.193  12.233  0.00  0.00    +0.000 OA
BRANCH  26  28
ATOM     27  C   UNL     1       3.738   3.123  10.977  0.00  0.00    +0.000 C 
ATOM     28  C   UNL     1       4.891   2.916  11.941  0.00  0.00    +0.000 C 
ENDBRANCH  26  28
ENDBRANCH  20  26
ENDBRANCH  18  23
ENDBRANCH   1  18
TORSDOF 6
ENDMDL
MODEL 4
REMARK VINA RESULT:      -7.3      2.392      4.057
REMARK  Name = 
REMARK  7 active torsions:
REMARK  status: ('A' for Active; 'I' for Inactive)
REMARK    1  A    between atoms: C_1  and  C_2
REMARK    2  A    between atoms: C_2  and  O_3
REMARK    3  A    between atoms: O_3  and  C_4
REMARK    4  A    between atoms: C_7  and  C_8
REMARK    5  A    between atoms: C_8  and  C_10
REMARK    6  A    between atoms: C_14  and  C_16
REMARK    7  A    between atoms: C_19  and  N_20
REMARK                            x       y       z     vdW  Elec       q    Type
REMARK                         _______ _______ _______ _____ _____    ______ ____
ROOT
ATOM      1  C   UNL     1       2.146   5.237  19.155  0.00  0.00    +0.000 C 
ATOM      2  C   UNL     1       2.063   6.016  17.826  0.00  0.00    +0.000 C 
ATOM      3  C   UNL     1       2.423   7.497  17.887  0.00  0.00    +0.000 C 
ATOM      4  N   UNL     1       1.843   8.132  19.058  0.00  0.00    +0.000 N 
ATOM      5  C   UNL     1       1.008   9.242  18.870  0.00  0.00    +0.000 C 
ATOM      6  O   UNL     1       0.766   9.688  17.748  0.00  0.00    +0.000 OA
ATOM      7  C   UNL     1       2.332   7.541  20.300  0.00  0.00    +0.000 C 
ATOM      8  C   UNL     1       1.833   6.100  20.401  0.00  0.00    +0.000 C 
ENDROOT
BRANCH   5   9
ATOM      9  C   UNL     1       0.369   9.962  20.012  0.00  0.00    +0.000 A 
ATOM     10  C   UNL     1       0.096  11.335  19.853  0.00  0.00    +0.000 A 
ATOM     11  C   UNL     1      -0.515  12.073  20.876  0.00  0.00    +0.000 A 
ATOM     12  C   UNL     1      -0.841  11.436  22.079  0.00  0.00    +0.000 A 
ATOM     13  C   UNL     1      -0.608  10.063  22.236  0.00  0.00    +0.000 A 
ATOM     14  C   UNL     1      -0.047   9.327  21.187  0.00  0.00    +0.000 A 
BRANCH  12  15
ATOM     15  N   UNL     1      -1.449  12.195  23.175  0.00  0.00    +0.000 N 
ATOM     16  O   UNL     1      -0.841  13.202  23.582  0.00  0.00    +0.000 OA
ATOM     17  O   UNL     1      -2.526  11.788  23.634  0.00  0.00    +0.000 OA
ENDBRANCH  12  15
ENDBRANCH   5   9
BRANCH   1  18
ATOM     18  C   UNL     1       3.446   4.433  19.304  0.00  0.00    +0.000 C 
ATOM     19  O   UNL     1       3.641   3.700  20.271  0.00  0.00    +0.000 OA
BRANCH  18  23
ATOM     20  C   UNL     1       6.478   4.645  16.209  0.00  0.00    +0.000 A 
ATOM     21  C   UNL     1       6.548   5.459  17.342  0.00  0.00    +0.000 A 
ATOM     22  C   UNL     1       5.564   5.384  18.338  0.00  0.00    +0.000 A 
ATOM     23  C   UNL     1       4.487   4.494  18.210  0.00  0.00    +0.000 A 
ATOM     24  C   UNL     1       4.422   3.691  17.064  0.00  0.00    +0.000 A 
ATOM     25  C   UNL     1       5.395   3.783  16.061  0.00  0.00    +0.000 A 
BRANCH  20  26
ATOM     26  O   UNL     1       7.506   4.774  15.317  0.00  0.00    +0.000 OA
BRANCH  26  28
ATOM     27  C   UNL     1       8.130   5.501  13.126  0.00  0.00    +0.000 C 
ATOM     28  C   UNL     1       7.147   4.675  13.934  0.00  0.00    +0.000 C 
ENDBRANCH  26  28
ENDBRANCH  20  26
ENDBRANCH  18  23
ENDBRANCH   1  18
TORSDOF 6
ENDMDL
MODEL 5
REMARK VINA RESULT:      -7.2      4.805      8.033
REMARK  Name = 
REMARK  7 active torsions:
REMARK  status: ('A' for Active; 'I' for Inactive)
REMARK    1  A    between atoms: C_1  and  C_2
REMARK    2  A    between atoms: C_2  and  O_3
REMARK    3  A    between atoms: O_3  and  C_4
REMARK    4  A    between atoms: C_7  and  C_8
REMARK    5  A    between atoms: C_8  and  C_10
REMARK    6  A    between atoms: C_14  and  C_16
REMARK    7  A    between atoms: C_19  and  N_20
REMARK                            x       y       z     vdW  Elec       q    Type
REMARK                         _______ _______ _______ _____ _____    ______ ____
ROOT
ATOM      1  C   UNL     1       0.348   9.444  20.437  0.00  0.00    +0.000 C 
ATOM      2  C   UNL     1       0.825  10.880  20.136  0.00  0.00    +0.000 C 
ATOM      3  C   UNL     1       0.553  11.923  21.215  0.00  0.00    +0.000 C 
ATOM      4  N   UNL     1      -0.785  11.777  21.763  0.00  0.00    +0.000 N 
ATOM      5  C   UNL     1      -1.649  12.879  21.713  0.00  0.00    +0.000 C 
ATOM      6  O   UNL     1      -1.300  13.956  21.229  0.00  0.00    +0.000 OA
ATOM      7  C   UNL     1      -0.979  10.475  22.394  0.00  0.00    +0.000 C 
ATOM      8  C   UNL     1      -0.919   9.384  21.325  0.00  0.00    +0.000 C 
ENDROOT
BRANCH   5   9
ATOM      9  C   UNL     1      -3.042  12.826  22.253  0.00  0.00    +0.000 A 
ATOM     10  C   UNL     1      -3.203  12.789  23.652  0.00  0.00    +0.000 A 
ATOM     11  C   UNL     1      -4.478  12.753  24.231  0.00  0.00    +0.000 A 
ATOM     12  C   UNL     1      -5.606  12.734  23.403  0.00  0.00    +0.000 A 
ATOM     13  C   UNL     1      -5.461  12.806  22.011  0.00  0.00    +0.000 A 
ATOM     14  C   UNL     1      -4.182  12.897  21.448  0.00  0.00    +0.000 A 
BRANCH  12  15
ATOM     15  N   UNL     1      -6.948  12.661  23.985  0.00  0.00    +0.000 N 
ATOM     16  O   UNL     1      -7.526  11.559  23.958  0.00  0.00    +0.000 OA
ATOM     17  O   UNL     1      -7.429  13.699  24.464  0.00  0.00    +0.000 OA
ENDBRANCH  12  15
ENDBRANCH   5   9
BRANCH   1  18
ATOM     18  C   UNL     1       1.471   8.528  20.945  0.00  0.00    +0.000 C 
ATOM     19  O   UNL     1       1.972   8.682  22.057  0.00  0.00    +0.000 OA
BRANCH  18  23
ATOM     20  C   UNL     1       2.757   5.163  18.529  0.00  0.00    +0.000 A 
ATOM     21  C   UNL     1       2.226   4.970  19.806  0.00  0.00    +0.000 A 
ATOM     22  C   UNL     1       1.812   6.064  20.581  0.00  0.00    +0.000 A 
ATOM     23  C   UNL     1       1.931   7.371  20.088  0.00  0.00    +0.000 A 
ATOM     24  C   UNL     1       2.475   7.553  18.810  0.00  0.00    +0.000 A 
ATOM     25  C   UNL     1       2.908   6.461  18.048  0.00  0.00    +0.000 A 
BRANCH  20  26
ATOM     26  O   UNL     1       3.098   4.029  17.846  0.00  0.00    +0.000 OA
BRANCH  26  28
ATOM     27  C   UNL     1       3.395   1.723  18.404  0.00  0.00    +0.000 C 
ATOM     28  C   UNL     1       3.966   3.123  18.535  0.00  0.00    +0.000 C 
ENDBRANCH  26  28
ENDBRANCH  20  26
ENDBRANCH  18  23
ENDBRANCH   1  18
TORSDOF 6
ENDMDL
MODEL 6
REMARK VINA RESULT:      -7.1      3.564      5.998
REMARK  Name = 
REMARK  7 active torsions:
REMARK  status: ('A' for Active; 'I' for Inactive)
REMARK    1  A    between atoms: C_1  and  C_2
REMARK    2  A    between atoms: C_2  and  O_3
REMARK    3  A    between atoms: O_3  and  C_4
REMARK    4  A    between atoms: C_7  and  C_8
REMARK    5  A    between atoms: C_8  and  C_10
REMARK    6  A    between atoms: C_14  and  C_16
REMARK    7  A    between atoms: C_19  and  N_20
REMARK                            x       y       z     vdW  Elec       q    Type
REMARK                         _______ _______ _______ _____ _____    ______ ____
ROOT
ATOM      1  C   UNL     1       1.687   8.761  17.804  0.00  0.00    +0.000 C 
ATOM      2  C   UNL     1       2.210  10.206  17.937  0.00  0.00    +0.000 C 
ATOM      3  C   UNL     1       1.470  11.106  18.922  0.00  0.00    +0.000 C 
ATOM      4  N   UNL     1       0.031  10.935  18.811  0.00  0.00    +0.000 N 
ATOM      5  C   UNL     1      -0.755  12.063  18.542  0.00  0.00    +0.000 C 
ATOM      6  O   UNL     1      -0.259  13.182  18.407  0.00  0.00    +0.000 OA
ATOM      7  C   UNL     1      -0.384   9.568  19.114  0.00  0.00    +0.000 C 
ATOM      8  C   UNL     1       0.163   8.628  18.040  0.00  0.00    +0.000 C 
ENDROOT
BRANCH   5   9
ATOM      9  C   UNL     1      -2.242  11.988  18.414  0.00  0.00    +0.000 A 
ATOM     10  C   UNL     1      -2.773  11.497  17.205  0.00  0.00    +0.000 A 
ATOM     11  C   UNL     1      -4.157  11.384  17.017  0.00  0.00    +0.000 A 
ATOM     12  C   UNL     1      -5.022  11.782  18.042  0.00  0.00    +0.000 A 
ATOM     13  C   UNL     1      -4.506  12.238  19.263  0.00  0.00    +0.000 A 
ATOM     14  C   UNL     1      -3.121  12.295  19.457  0.00  0.00    +0.000 A 
BRANCH  12  15
ATOM     15  N   UNL     1      -6.472  11.705  17.856  0.00  0.00    +0.000 N 
ATOM     16  O   UNL     1      -7.064  10.728  18.351  0.00  0.00    +0.000 OA
ATOM     17  O   UNL     1      -7.024  12.613  17.215  0.00  0.00    +0.000 OA
ENDBRANCH  12  15
ENDBRANCH   5   9
BRANCH   1  18
ATOM     18  C   UNL     1       2.502   7.746  18.619  0.00  0.00    +0.000 C 
ATOM     19  O   UNL     1       2.455   7.722  19.847  0.00  0.00    +0.000 OA
BRANCH  18  23
ATOM     20  C   UNL     1       4.947   4.827  16.540  0.00  0.00    +0.000 A 
ATOM     21  C   UNL     1       5.253   6.189  16.489  0.00  0.00    +0.000 A 
ATOM     22  C   UNL     1       4.457   7.126  17.164  0.00  0.00    +0.000 A 
ATOM     23  C   UNL     1       3.335   6.712  17.897  0.00  0.00    +0.000 A 
ATOM     24  C   UNL     1       3.033   5.345  17.933  0.00  0.00    +0.000 A 
ATOM     25  C   UNL     1       3.817   4.413  17.240  0.00  0.00    +0.000 A 
BRANCH  20  26
ATOM     26  O   UNL     1       5.805   3.996  15.876  0.00  0.00    +0.000 OA
BRANCH  26  28
ATOM     27  C   UNL     1       5.988   3.805  13.499  0.00  0.00    +0.000 C 
ATOM     28  C   UNL     1       6.456   4.558  14.731  0.00  0.00    +0.000 C 
ENDBRANCH  26  28
ENDBRANCH  20  26
ENDBRANCH  18  23
ENDBRANCH   1  18
TORSDOF 6
ENDMDL
MODEL 7
REMARK VINA RESULT:      -7.1      2.325      4.038
REMARK  Name = 
REMARK  7 active torsions:
REMARK  status: ('A' for Active; 'I' for Inactive)
REMARK    1  A    between atoms: C_1  and  C_2
REMARK    2  A    between atoms: C_2  and  O_3
REMARK    3  A    between atoms: O_3  and  C_4
REMARK    4  A    between atoms: C_7  and  C_8
REMARK    5  A    between atoms: C_8  and  C_10
REMARK    6  A    between atoms: C_14  and  C_16
REMARK    7  A    between atoms: C_19  and  N_20
REMARK                            x       y       z     vdW  Elec       q    Type
REMARK                         _______ _______ _______ _____ _____    ______ ____
ROOT
ATOM      1  C   UNL     1       1.968   5.253  19.335  0.00  0.00    +0.000 C 
ATOM      2  C   UNL     1       1.950   5.954  17.961  0.00  0.00    +0.000 C 
ATOM      3  C   UNL     1       2.428   7.402  17.934  0.00  0.00    +0.000 C 
ATOM      4  N   UNL     1       1.901   8.152  19.062  0.00  0.00    +0.000 N 
ATOM      5  C   UNL     1       1.158   9.312  18.802  0.00  0.00    +0.000 C 
ATOM      6  O   UNL     1       0.954   9.707  17.654  0.00  0.00    +0.000 OA
ATOM      7  C   UNL     1       2.339   7.600  20.340  0.00  0.00    +0.000 C 
ATOM      8  C   UNL     1       1.725   6.212  20.526  0.00  0.00    +0.000 C 
ENDROOT
BRANCH   5   9
ATOM      9  C   UNL     1       0.578  10.149  19.895  0.00  0.00    +0.000 A 
ATOM     10  C   UNL     1      -0.262   9.516  20.832  0.00  0.00    +0.000 A 
ATOM     11  C   UNL     1      -0.831  10.234  21.893  0.00  0.00    +0.000 A 
ATOM     12  C   UNL     1      -0.571  11.604  22.009  0.00  0.00    +0.000 A 
ATOM     13  C   UNL     1       0.291  12.238  21.105  0.00  0.00    +0.000 A 
ATOM     14  C   UNL     1       0.895  11.498  20.081  0.00  0.00    +0.000 A 
BRANCH  12  15
ATOM     15  N   UNL     1      -1.182  12.382  23.089  0.00  0.00    +0.000 N 
ATOM     16  O   UNL     1      -0.537  13.348  23.537  0.00  0.00    +0.000 OA
ATOM     17  O   UNL     1      -2.301  12.031  23.495  0.00  0.00    +0.000 OA
ENDBRANCH  12  15
ENDBRANCH   5   9
BRANCH   1  18
ATOM     18  C   UNL     1       3.199   4.357  19.540  0.00  0.00    +0.000 C 
ATOM     19  O   UNL     1       3.300   3.616  20.516  0.00  0.00    +0.000 OA
BRANCH  18  23
ATOM     20  C   UNL     1       6.366   4.331  16.576  0.00  0.00    +0.000 A 
ATOM     21  C   UNL     1       6.467   5.113  17.729  0.00  0.00    +0.000 A 
ATOM     22  C   UNL     1       5.438   5.115  18.683  0.00  0.00    +0.000 A 
ATOM     23  C   UNL     1       4.287   4.337  18.491  0.00  0.00    +0.000 A 
ATOM     24  C   UNL     1       4.193   3.566  17.326  0.00  0.00    +0.000 A 
ATOM     25  C   UNL     1       5.212   3.582  16.365  0.00  0.00    +0.000 A 
BRANCH  20  26
ATOM     26  O   UNL     1       7.438   4.376  15.729  0.00  0.00    +0.000 OA
BRANCH  26  28
ATOM     27  C   UNL     1       6.778   4.163  13.440  0.00  0.00    +0.000 C 
ATOM     28  C   UNL     1       7.248   5.120  14.521  0.00  0.00    +0.000 C 
ENDBRANCH  26  28
ENDBRANCH  20  26
ENDBRANCH  18  23
ENDBRANCH   1  18
TORSDOF 6
ENDMDL
MODEL 8
REMARK VINA RESULT:      -7.1      4.862      8.084
REMARK  Name = 
REMARK  7 active torsions:
REMARK  status: ('A' for Active; 'I' for Inactive)
REMARK    1  A    between atoms: C_1  and  C_2
REMARK    2  A    between atoms: C_2  and  O_3
REMARK    3  A    between atoms: O_3  and  C_4
REMARK    4  A    between atoms: C_7  and  C_8
REMARK    5  A    between atoms: C_8  and  C_10
REMARK    6  A    between atoms: C_14  and  C_16
REMARK    7  A    between atoms: C_19  and  N_20
REMARK                            x       y       z     vdW  Elec       q    Type
REMARK                         _______ _______ _______ _____ _____    ______ ____
ROOT
ATOM      1  C   UNL     1       0.278   9.530  20.539  0.00  0.00    +0.000 C 
ATOM      2  C   UNL     1       0.730  10.973  20.233  0.00  0.00    +0.000 C 
ATOM      3  C   UNL     1       0.483  12.006  21.328  0.00  0.00    +0.000 C 
ATOM      4  N   UNL     1      -0.834  11.841  21.919  0.00  0.00    +0.000 N 
ATOM      5  C   UNL     1      -1.711  12.933  21.907  0.00  0.00    +0.000 C 
ATOM      6  O   UNL     1      -1.390  14.017  21.419  0.00  0.00    +0.000 OA
ATOM      7  C   UNL     1      -0.993  10.533  22.548  0.00  0.00    +0.000 C 
ATOM      8  C   UNL     1      -0.956   9.450  21.469  0.00  0.00    +0.000 C 
ENDROOT
BRANCH   5   9
ATOM      9  C   UNL     1      -3.084  12.861  22.494  0.00  0.00    +0.000 A 
ATOM     10  C   UNL     1      -4.177  12.841  21.605  0.00  0.00    +0.000 A 
ATOM     11  C   UNL     1      -5.493  12.759  22.081  0.00  0.00    +0.000 A 
ATOM     12  C   UNL     1      -5.720  12.715  23.461  0.00  0.00    +0.000 A 
ATOM     13  C   UNL     1      -4.640  12.698  24.354  0.00  0.00    +0.000 A 
ATOM     14  C   UNL     1      -3.329  12.726  23.863  0.00  0.00    +0.000 A 
BRANCH  12  15
ATOM     15  N   UNL     1      -7.088  12.665  23.983  0.00  0.00    +0.000 N 
ATOM     16  O   UNL     1      -7.709  11.593  23.862  0.00  0.00    +0.000 OA
ATOM     17  O   UNL     1      -7.546  13.690  24.509  0.00  0.00    +0.000 OA
ENDBRANCH  12  15
ENDBRANCH   5   9
BRANCH   1  18
ATOM     18  C   UNL     1       1.428   8.622  21.002  0.00  0.00    +0.000 C 
ATOM     19  O   UNL     1       1.958   8.768  22.102  0.00  0.00    +0.000 OA
BRANCH  18  23
ATOM     20  C   UNL     1       2.760   5.406  18.415  0.00  0.00    +0.000 A 
ATOM     21  C   UNL     1       2.817   6.737  17.996  0.00  0.00    +0.000 A 
ATOM     22  C   UNL     1       2.384   7.771  18.838  0.00  0.00    +0.000 A 
ATOM     23  C   UNL     1       1.880   7.485  20.116  0.00  0.00    +0.000 A 
ATOM     24  C   UNL     1       1.818   6.146  20.521  0.00  0.00    +0.000 A 
ATOM     25  C   UNL     1       2.231   5.114  19.669  0.00  0.00    +0.000 A 
BRANCH  20  26
ATOM     26  O   UNL     1       3.237   4.479  17.530  0.00  0.00    +0.000 OA
BRANCH  26  28
ATOM     27  C   UNL     1       5.463   4.254  18.377  0.00  0.00    +0.000 C 
ATOM     28  C   UNL     1       4.616   4.615  17.170  0.00  0.00    +0.000 C 
ENDBRANCH  26  28
ENDBRANCH  20  26
ENDBRANCH  18  23
ENDBRANCH   1  18
TORSDOF 6
ENDMDL
MODEL 9
REMARK VINA RESULT:      -7.1      2.307      8.818
REMARK  Name = 
REMARK  7 active torsions:
REMARK  status: ('A' for Active; 'I' for Inactive)
REMARK    1  A    between atoms: C_1  and  C_2
REMARK    2  A    between atoms: C_2  and  O_3
REMARK    3  A    between atoms: O_3  and  C_4
REMARK    4  A    between atoms: C_7  and  C_8
REMARK    5  A    between atoms: C_8  and  C_10
REMARK    6  A    between atoms: C_14  and  C_16
REMARK    7  A    between atoms: C_19  and  N_20
REMARK                            x       y       z     vdW  Elec       q    Type
REMARK                         _______ _______ _______ _____ _____    ______ ____
ROOT
ATOM      1  C   UNL     1       1.725   6.823  19.392  0.00  0.00    +0.000 C 
ATOM      2  C   UNL     1       1.879   5.392  19.950  0.00  0.00    +0.000 C 
ATOM      3  C   UNL     1       3.303   4.852  20.040  0.00  0.00    +0.000 C 
ATOM      4  N   UNL     1       4.067   5.179  18.849  0.00  0.00    +0.000 N 
ATOM      5  C   UNL     1       4.651   4.132  18.123  0.00  0.00    +0.000 C 
ATOM      6  O   UNL     1       4.538   2.958  18.475  0.00  0.00    +0.000 OA
ATOM      7  C   UNL     1       4.189   6.621  18.654  0.00  0.00    +0.000 C 
ATOM      8  C   UNL     1       2.808   7.206  18.355  0.00  0.00    +0.000 C 
ENDROOT
BRANCH   5   9
ATOM      9  C   UNL     1       5.457   4.370  16.887  0.00  0.00    +0.000 A 
ATOM     10  C   UNL     1       4.822   4.183  15.644  0.00  0.00    +0.000 A 
ATOM     11  C   UNL     1       5.510   4.401  14.442  0.00  0.00    +0.000 A 
ATOM     12  C   UNL     1       6.852   4.793  14.483  0.00  0.00    +0.000 A 
ATOM     13  C   UNL     1       7.485   5.017  15.714  0.00  0.00    +0.000 A 
ATOM     14  C   UNL     1       6.771   4.847  16.906  0.00  0.00    +0.000 A 
BRANCH  12  15
ATOM     15  N   UNL     1       7.601   4.993  13.241  0.00  0.00    +0.000 N 
ATOM     16  O   UNL     1       7.225   4.362  12.236  0.00  0.00    +0.000 OA
ATOM     17  O   UNL     1       8.565   5.773  13.264  0.00  0.00    +0.000 OA
ENDBRANCH  12  15
ENDBRANCH   5   9
BRANCH   1  18
ATOM     18  C   UNL     1       1.557   7.884  20.490  0.00  0.00    +0.000 C 
ATOM     19  O   UNL     1       1.998   7.711  21.625  0.00  0.00    +0.000 OA
BRANCH  18  23
ATOM     20  C   UNL     1      -0.375  11.666  19.607  0.00  0.00    +0.000 A 
ATOM     21  C   UNL     1      -0.490  11.077  20.868  0.00  0.00    +0.000 A 
ATOM     22  C   UNL     1       0.138   9.854  21.145  0.00  0.00    +0.000 A 
ATOM     23  C   UNL     1       0.887   9.198  20.158  0.00  0.00    +0.000 A 
ATOM     24  C   UNL     1       0.987   9.794  18.894  0.00  0.00    +0.000 A 
ATOM     25  C   UNL     1       0.341  11.004  18.614  0.00  0.00    +0.000 A 
BRANCH  20  26
ATOM     26  O   UNL     1      -0.997  12.874  19.453  0.00  0.00    +0.000 OA
BRANCH  26  28
ATOM     27  C   UNL     1       0.200  14.917  19.118  0.00  0.00    +0.000 C 
ATOM     28  C   UNL     1      -0.456  13.728  18.440  0.00  0.00    +0.000 C 
ENDBRANCH  26  28
ENDBRANCH  20  26
ENDBRANCH  18  23
ENDBRANCH   1  18
TORSDOF 6
ENDMDL
