MODEL 1
REMARK VINA RESULT:      -7.7      0.000      0.000
REMARK  Name = 
REMARK  9 active torsions:
REMARK  status: ('A' for Active; 'I' for Inactive)
REMARK    1  A    between atoms: C_1  and  O_2
REMARK    2  A    between atoms: O_2  and  C_3
REMARK    3  A    between atoms: C_5  and  C_6
REMARK    4  A    between atoms: C_9  and  C_11
REMARK    5  A    between atoms: C_16  and  O_17
REMARK    6  A    between atoms: C_19  and  O_20
REMARK    7  A    between atoms: O_20  and  C_21
REMARK    8  A    between atoms: C_22  and  O_23
REMARK    9  A    between atoms: O_23  and  C_24
REMARK                            x       y       z     vdW  Elec       q    Type
REMARK                         _______ _______ _______ _____ _____    ______ ____
ROOT
ATOM      1  C   UNL     1       5.713   5.386  17.826  0.00  0.00    +0.000 C 
ATOM      2  O   UNL     1       6.423   6.222  18.375  0.00  0.00    +0.000 OA
ATOM      3  N   UNL     1       5.882   4.891  16.545  0.00  0.00    +0.000 N 
ATOM      4  C   UNL     1       6.810   5.383  15.644  0.00  0.00    +0.000 C 
ATOM      5  O   UNL     1       7.648   6.243  15.904  0.00  0.00    +0.000 OA
ATOM      6  H   UNL     1       5.209   4.233  16.172  0.00  0.00    +0.000 HD
ENDROOT
BRANCH   1   9
ATOM      7  C   UNL     1       2.623   5.474  19.981  0.00  0.00    +0.000 A 
ATOM      8  C   UNL     1       3.808   5.827  19.321  0.00  0.00    +0.000 A 
ATOM      9  C   UNL     1       4.534   4.890  18.585  0.00  0.00    +0.000 A 
ATOM     10  C   UNL     1       4.128   3.560  18.597  0.00  0.00    +0.000 A 
ATOM     11  C   UNL     1       2.989   3.164  19.327  0.00  0.00    +0.000 A 
ATOM     12  C   UNL     1       2.215   4.124  20.025  0.00  0.00    +0.000 A 
BRANCH   7  14
ATOM     13  C   UNL     1       1.911   7.739  20.026  0.00  0.00    +0.000 C 
ATOM     14  O   UNL     1       1.885   6.438  20.618  0.00  0.00    +0.000 OA
ENDBRANCH   7  14
BRANCH  11  15
ATOM     15  O   UNL     1       2.782   1.810  19.221  0.00  0.00    +0.000 OA
ATOM     16  C   UNL     1       3.699   1.015  18.482  0.00  0.00    +0.000 C 
ENDBRANCH  11  15
BRANCH  12  17
ATOM     17  O   UNL     1       1.125   3.643  20.699  0.00  0.00    +0.000 OA
ATOM     18  C   UNL     1       1.277   2.784  21.818  0.00  0.00    +0.000 C 
ENDBRANCH  12  17
ENDBRANCH   1   9
BRANCH   4  19
ATOM     19  C   UNL     1       6.797   4.817  14.257  0.00  0.00    +0.000 A 
ATOM     20  C   UNL     1       5.766   3.908  13.953  0.00  0.00    +0.000 A 
ATOM     21  C   UNL     1       5.654   3.337  12.684  0.00  0.00    +0.000 A 
ATOM     22  C   UNL     1       6.572   3.668  11.697  0.00  0.00    +0.000 A 
ATOM     23  C   UNL     1       7.609   4.560  11.977  0.00  0.00    +0.000 A 
ATOM     24  C   UNL     1       7.725   5.129  13.253  0.00  0.00    +0.000 A 
BRANCH  24  25
ATOM     25  O   UNL     1       8.762   5.991  13.502  0.00  0.00    +0.000 OA
ATOM     26  H   UNL     1       8.685   6.745  12.885  0.00  0.00    +0.000 HD
ENDBRANCH  24  25
ENDBRANCH   4  19
TORSDOF 6
ENDMDL
MODEL 2
REMARK VINA RESULT:      -7.7      3.363      8.125
REMARK  Name = 
REMARK  9 active torsions:
REMARK  status: ('A' for Active; 'I' for Inactive)
REMARK    1  A    between atoms: C_1  and  O_2
REMARK    2  A    between atoms: O_2  and  C_3
REMARK    3  A    between atoms: C_5  and  C_6
REMARK    4  A    between atoms: C_9  and  C_11
REMARK    5  A    between atoms: C_16  and  O_17
REMARK    6  A    between atoms: C_19  and  O_20
REMARK    7  A    between atoms: O_20  and  C_21
REMARK    8  A    between atoms: C_22  and  O_23
REMARK    9  A    between atoms: O_23  and  C_24
REMARK                            x       y       z     vdW  Elec       q    Type
REMARK                         _______ _______ _______ _____ _____    ______ ____
ROOT
ATOM      1  C   UNL     1       2.232   8.132  18.363  0.00  0.00    +0.000 C 
ATOM      2  O   UNL     1       2.548   8.769  17.363  0.00  0.00    +0.000 OA
ATOM      3  N   UNL     1       1.431   8.585  19.396  0.00  0.00    +0.000 N 
ATOM      4  C   UNL     1       0.983   9.889  19.509  0.00  0.00    +0.000 C 
ATOM      5  O   UNL     1       1.161  10.766  18.666  0.00  0.00    +0.000 OA
ATOM      6  H   UNL     1       1.271   7.991  20.200  0.00  0.00    +0.000 HD
ENDROOT
BRANCH   1   9
ATOM      7  C   UNL     1       2.896   4.737  19.856  0.00  0.00    +0.000 A 
ATOM      8  C   UNL     1       2.498   6.068  19.678  0.00  0.00    +0.000 A 
ATOM      9  C   UNL     1       2.798   6.764  18.506  0.00  0.00    +0.000 A 
ATOM     10  C   UNL     1       3.598   6.154  17.545  0.00  0.00    +0.000 A 
ATOM     11  C   UNL     1       4.085   4.847  17.742  0.00  0.00    +0.000 A 
ATOM     12  C   UNL     1       3.732   4.116  18.903  0.00  0.00    +0.000 A 
BRANCH   7  14
ATOM     13  C   UNL     1       1.250   3.376  20.895  0.00  0.00    +0.000 C 
ATOM     14  O   UNL     1       2.506   4.054  20.979  0.00  0.00    +0.000 OA
ENDBRANCH   7  14
BRANCH  11  15
ATOM     15  O   UNL     1       4.870   4.450  16.686  0.00  0.00    +0.000 OA
ATOM     16  C   UNL     1       5.431   5.428  15.821  0.00  0.00    +0.000 C 
ENDBRANCH  11  15
BRANCH  12  17
ATOM     17  O   UNL     1       4.250   2.853  19.001  0.00  0.00    +0.000 OA
ATOM     18  C   UNL     1       3.554   1.734  18.476  0.00  0.00    +0.000 C 
ENDBRANCH  12  17
ENDBRANCH   1   9
BRANCH   4  19
ATOM     19  C   UNL     1       0.216  10.254  20.743  0.00  0.00    +0.000 A 
ATOM     20  C   UNL     1       0.351   9.396  21.851  0.00  0.00    +0.000 A 
ATOM     21  C   UNL     1      -0.306   9.655  23.054  0.00  0.00    +0.000 A 
ATOM     22  C   UNL     1      -1.112  10.780  23.170  0.00  0.00    +0.000 A 
ATOM     23  C   UNL     1      -1.269  11.641  22.082  0.00  0.00    +0.000 A 
ATOM     24  C   UNL     1      -0.614  11.378  20.872  0.00  0.00    +0.000 A 
BRANCH  24  25
ATOM     25  O   UNL     1      -0.799  12.235  19.817  0.00  0.00    +0.000 OA
ATOM     26  H   UNL     1      -1.044  13.110  20.176  0.00  0.00    +0.000 HD
ENDBRANCH  24  25
ENDBRANCH   4  19
TORSDOF 6
ENDMDL
MODEL 3
REMARK VINA RESULT:      -7.7      3.154      8.064
REMARK  Name = 
REMARK  9 active torsions:
REMARK  status: ('A' for Active; 'I' for Inactive)
REMARK    1  A    between atoms: C_1  and  O_2
REMARK    2  A    between atoms: O_2  and  C_3
REMARK    3  A    between atoms: C_5  and  C_6
REMARK    4  A    between atoms: C_9  and  C_11
REMARK    5  A    between atoms: C_16  and  O_17
REMARK    6  A    between atoms: C_19  and  O_20
REMARK    7  A    between atoms: O_20  and  C_21
REMARK    8  A    between atoms: C_22  and  O_23
REMARK    9  A    between atoms: O_23  and  C_24
REMARK                            x       y       z     vdW  Elec       q    Type
REMARK                         _______ _______ _______ _____ _____    ______ ____
ROOT
ATOM      1  C   UNL     1       2.276   8.131  18.341  0.00  0.00    +0.000 C 
ATOM      2  O   UNL     1       2.571   8.778  17.342  0.00  0.00    +0.000 OA
ATOM      3  N   UNL     1       1.499   8.575  19.397  0.00  0.00    +0.000 N 
ATOM      4  C   UNL     1       1.056   9.879  19.534  0.00  0.00    +0.000 C 
ATOM      5  O   UNL     1       1.218  10.764  18.697  0.00  0.00    +0.000 OA
ATOM      6  H   UNL     1       1.354   7.973  20.198  0.00  0.00    +0.000 HD
ENDROOT
BRANCH   1   9
ATOM      7  C   UNL     1       2.836   4.659  19.692  0.00  0.00    +0.000 A 
ATOM      8  C   UNL     1       2.441   5.996  19.555  0.00  0.00    +0.000 A 
ATOM      9  C   UNL     1       2.840   6.760  18.457  0.00  0.00    +0.000 A 
ATOM     10  C   UNL     1       3.732   6.212  17.542  0.00  0.00    +0.000 A 
ATOM     11  C   UNL     1       4.213   4.899  17.707  0.00  0.00    +0.000 A 
ATOM     12  C   UNL     1       3.762   4.099  18.787  0.00  0.00    +0.000 A 
BRANCH   7  14
ATOM     13  C   UNL     1       1.085   3.281  20.517  0.00  0.00    +0.000 C 
ATOM     14  O   UNL     1       2.351   3.909  20.733  0.00  0.00    +0.000 OA
ENDBRANCH   7  14
BRANCH  11  15
ATOM     15  O   UNL     1       5.096   4.568  16.708  0.00  0.00    +0.000 OA
ATOM     16  C   UNL     1       5.339   5.487  15.652  0.00  0.00    +0.000 C 
ENDBRANCH  11  15
BRANCH  12  17
ATOM     17  O   UNL     1       4.283   2.836  18.860  0.00  0.00    +0.000 OA
ATOM     18  C   UNL     1       3.614   1.733  18.267  0.00  0.00    +0.000 C 
ENDBRANCH  12  17
ENDBRANCH   1   9
BRANCH   4  19
ATOM     19  C   UNL     1       0.318  10.232  20.788  0.00  0.00    +0.000 A 
ATOM     20  C   UNL     1      -0.647  11.253  20.691  0.00  0.00    +0.000 A 
ATOM     21  C   UNL     1      -1.402  11.646  21.796  0.00  0.00    +0.000 A 
ATOM     22  C   UNL     1      -1.206  11.021  23.021  0.00  0.00    +0.000 A 
ATOM     23  C   UNL     1      -0.249  10.012  23.145  0.00  0.00    +0.000 A 
ATOM     24  C   UNL     1       0.514   9.622  22.036  0.00  0.00    +0.000 A 
BRANCH  24  25
ATOM     25  O   UNL     1       1.456   8.638  22.192  0.00  0.00    +0.000 OA
ATOM     26  H   UNL     1       1.164   7.854  21.686  0.00  0.00    +0.000 HD
ENDBRANCH  24  25
ENDBRANCH   4  19
TORSDOF 6
ENDMDL
MODEL 4
REMARK VINA RESULT:      -7.6      3.301      7.963
REMARK  Name = 
REMARK  9 active torsions:
REMARK  status: ('A' for Active; 'I' for Inactive)
REMARK    1  A    between atoms: C_1  and  O_2
REMARK    2  A    between atoms: O_2  and  C_3
REMARK    3  A    between atoms: C_5  and  C_6
REMARK    4  A    between atoms: C_9  and  C_11
REMARK    5  A    between atoms: C_16  and  O_17
REMARK    6  A    between atoms: C_19  and  O_20
REMARK    7  A    between atoms: O_20  and  C_21
REMARK    8  A    between atoms: C_22  and  O_23
REMARK    9  A    between atoms: O_23  and  C_24
REMARK                            x       y       z     vdW  Elec       q    Type
REMARK                         _______ _______ _______ _____ _____    ______ ____
ROOT
ATOM      1  C   UNL     1       2.329   7.959  18.144  0.00  0.00    +0.000 C 
ATOM      2  O   UNL     1       2.633   8.653  17.179  0.00  0.00    +0.000 OA
ATOM      3  N   UNL     1       1.589   8.370  19.238  0.00  0.00    +0.000 N 
ATOM      4  C   UNL     1       1.203   9.680  19.461  0.00  0.00    +0.000 C 
ATOM      5  O   UNL     1       1.387  10.607  18.674  0.00  0.00    +0.000 OA
ATOM      6  H   UNL     1       1.433   7.727  20.005  0.00  0.00    +0.000 HD
ENDROOT
BRANCH   1   9
ATOM      7  C   UNL     1       2.292   4.196  17.961  0.00  0.00    +0.000 A 
ATOM      8  C   UNL     1       1.898   5.537  18.055  0.00  0.00    +0.000 A 
ATOM      9  C   UNL     1       2.839   6.563  18.167  0.00  0.00    +0.000 A 
ATOM     10  C   UNL     1       4.184   6.233  18.295  0.00  0.00    +0.000 A 
ATOM     11  C   UNL     1       4.596   4.886  18.293  0.00  0.00    +0.000 A 
ATOM     12  C   UNL     1       3.650   3.846  18.117  0.00  0.00    +0.000 A 
BRANCH   7  14
ATOM     13  C   UNL     1       0.707   2.717  18.932  0.00  0.00    +0.000 C 
ATOM     14  O   UNL     1       1.348   3.222  17.758  0.00  0.00    +0.000 OA
ENDBRANCH   7  14
BRANCH  11  15
ATOM     15  O   UNL     1       5.957   4.787  18.454  0.00  0.00    +0.000 OA
ATOM     16  C   UNL     1       6.796   4.708  17.310  0.00  0.00    +0.000 C 
ENDBRANCH  11  15
BRANCH  12  17
ATOM     17  O   UNL     1       4.147   2.571  18.124  0.00  0.00    +0.000 OA
ATOM     18  C   UNL     1       4.227   1.823  19.327  0.00  0.00    +0.000 C 
ENDBRANCH  12  17
ENDBRANCH   1   9
BRANCH   4  19
ATOM     19  C   UNL     1       0.500   9.987  20.748  0.00  0.00    +0.000 A 
ATOM     20  C   UNL     1      -0.452  11.023  20.720  0.00  0.00    +0.000 A 
ATOM     21  C   UNL     1      -1.175  11.375  21.861  0.00  0.00    +0.000 A 
ATOM     22  C   UNL     1      -0.957  10.694  23.051  0.00  0.00    +0.000 A 
ATOM     23  C   UNL     1      -0.010   9.669  23.106  0.00  0.00    +0.000 A 
ATOM     24  C   UNL     1       0.719   9.319  21.963  0.00  0.00    +0.000 A 
BRANCH  24  25
ATOM     25  O   UNL     1       1.652   8.317  22.051  0.00  0.00    +0.000 OA
ATOM     26  H   UNL     1       1.265   7.588  22.574  0.00  0.00    +0.000 HD
ENDBRANCH  24  25
ENDBRANCH   4  19
TORSDOF 6
ENDMDL
MODEL 5
REMARK VINA RESULT:      -7.6      0.129      2.688
REMARK  Name = 
REMARK  9 active torsions:
REMARK  status: ('A' for Active; 'I' for Inactive)
REMARK    1  A    between atoms: C_1  and  O_2
REMARK    2  A    between atoms: O_2  and  C_3
REMARK    3  A    between atoms: C_5  and  C_6
REMARK    4  A    between atoms: C_9  and  C_11
REMARK    5  A    between atoms: C_16  and  O_17
REMARK    6  A    between atoms: C_19  and  O_20
REMARK    7  A    between atoms: O_20  and  C_21
REMARK    8  A    between atoms: C_22  and  O_23
REMARK    9  A    between atoms: O_23  and  C_24
REMARK                            x       y       z     vdW  Elec       q    Type
REMARK                         _______ _______ _______ _____ _____    ______ ____
ROOT
ATOM      1  C   UNL     1       5.702   5.516  17.841  0.00  0.00    +0.000 C 
ATOM      2  O   UNL     1       6.439   6.339  18.373  0.00  0.00    +0.000 OA
ATOM      3  N   UNL     1       5.859   4.984  16.573  0.00  0.00    +0.000 N 
ATOM      4  C   UNL     1       6.808   5.420  15.666  0.00  0.00    +0.000 C 
ATOM      5  O   UNL     1       7.677   6.255  15.909  0.00  0.00    +0.000 OA
ATOM      6  H   UNL     1       5.164   4.343  16.212  0.00  0.00    +0.000 HD
ENDROOT
BRANCH   1   9
ATOM      7  C   UNL     1       3.175   3.201  19.406  0.00  0.00    +0.000 A 
ATOM      8  C   UNL     1       4.220   3.714  18.628  0.00  0.00    +0.000 A 
ATOM      9  C   UNL     1       4.502   5.082  18.604  0.00  0.00    +0.000 A 
ATOM     10  C   UNL     1       3.660   5.956  19.284  0.00  0.00    +0.000 A 
ATOM     11  C   UNL     1       2.549   5.470  20.001  0.00  0.00    +0.000 A 
ATOM     12  C   UNL     1       2.296   4.078  20.077  0.00  0.00    +0.000 A 
BRANCH   7  14
ATOM     13  C   UNL     1       3.668   1.062  18.499  0.00  0.00    +0.000 C 
ATOM     14  O   UNL     1       2.984   1.845  19.480  0.00  0.00    +0.000 OA
ENDBRANCH   7  14
BRANCH  11  15
ATOM     15  O   UNL     1       1.844   6.501  20.574  0.00  0.00    +0.000 OA
ATOM     16  C   UNL     1       1.950   7.811  20.033  0.00  0.00    +0.000 C 
ENDBRANCH  11  15
BRANCH  12  17
ATOM     17  O   UNL     1       1.197   3.704  20.801  0.00  0.00    +0.000 OA
ATOM     18  C   UNL     1       1.295   2.735  21.834  0.00  0.00    +0.000 C 
ENDBRANCH  12  17
ENDBRANCH   1   9
BRANCH   4  19
ATOM     19  C   UNL     1       6.782   4.821  14.293  0.00  0.00    +0.000 A 
ATOM     20  C   UNL     1       5.752   3.900  14.022  0.00  0.00    +0.000 A 
ATOM     21  C   UNL     1       5.627   3.299  12.770  0.00  0.00    +0.000 A 
ATOM     22  C   UNL     1       6.532   3.611  11.763  0.00  0.00    +0.000 A 
ATOM     23  C   UNL     1       7.567   4.514  12.010  0.00  0.00    +0.000 A 
ATOM     24  C   UNL     1       7.696   5.113  13.270  0.00  0.00    +0.000 A 
BRANCH  24  25
ATOM     25  O   UNL     1       8.731   5.987  13.486  0.00  0.00    +0.000 OA
ATOM     26  H   UNL     1       9.437   5.508  13.965  0.00  0.00    +0.000 HD
ENDBRANCH  24  25
ENDBRANCH   4  19
TORSDOF 6
ENDMDL
MODEL 6
REMARK VINA RESULT:      -7.6      3.832      7.936
REMARK  Name = 
REMARK  9 active torsions:
REMARK  status: ('A' for Active; 'I' for Inactive)
REMARK    1  A    between atoms: C_1  and  O_2
REMARK    2  A    between atoms: O_2  and  C_3
REMARK    3  A    between atoms: C_5  and  C_6
REMARK    4  A    between atoms: C_9  and  C_11
REMARK    5  A    between atoms: C_16  and  O_17
REMARK    6  A    between atoms: C_19  and  O_20
REMARK    7  A    between atoms: O_20  and  C_21
REMARK    8  A    between atoms: C_22  and  O_23
REMARK    9  A    between atoms: O_23  and  C_24
REMARK                            x       y       z     vdW  Elec       q    Type
REMARK                         _______ _______ _______ _____ _____    ______ ____
ROOT
ATOM      1  C   UNL     1       2.311   7.888  18.164  0.00  0.00    +0.000 C 
ATOM      2  O   UNL     1       2.652   8.547  17.187  0.00  0.00    +0.000 OA
ATOM      3  N   UNL     1       1.537   8.339  19.219  0.00  0.00    +0.000 N 
ATOM      4  C   UNL     1       1.152   9.658  19.384  0.00  0.00    +0.000 C 
ATOM      5  O   UNL     1       1.368  10.557  18.573  0.00  0.00    +0.000 OA
ATOM      6  H   UNL     1       1.351   7.723  20.001  0.00  0.00    +0.000 HD
ENDROOT
BRANCH   1   9
ATOM      7  C   UNL     1       4.678   5.032  18.826  0.00  0.00    +0.000 A 
ATOM      8  C   UNL     1       4.147   6.311  18.614  0.00  0.00    +0.000 A 
ATOM      9  C   UNL     1       2.810   6.490  18.252  0.00  0.00    +0.000 A 
ATOM     10  C   UNL     1       2.026   5.371  17.994  0.00  0.00    +0.000 A 
ATOM     11  C   UNL     1       2.563   4.075  18.113  0.00  0.00    +0.000 A 
ATOM     12  C   UNL     1       3.902   3.889  18.540  0.00  0.00    +0.000 A 
BRANCH   7  14
ATOM     13  C   UNL     1       6.993   5.145  18.306  0.00  0.00    +0.000 C 
ATOM     14  O   UNL     1       5.968   4.896  19.271  0.00  0.00    +0.000 OA
ENDBRANCH   7  14
BRANCH  11  15
ATOM     15  O   UNL     1       1.627   3.122  17.792  0.00  0.00    +0.000 OA
ATOM     16  C   UNL     1       0.774   2.605  18.803  0.00  0.00    +0.000 C 
ENDBRANCH  11  15
BRANCH  12  17
ATOM     17  O   UNL     1       4.331   2.592  18.631  0.00  0.00    +0.000 OA
ATOM     18  C   UNL     1       4.356   1.915  19.878  0.00  0.00    +0.000 C 
ENDBRANCH  12  17
ENDBRANCH   1   9
BRANCH   4  19
ATOM     19  C   UNL     1       0.409  10.012  20.635  0.00  0.00    +0.000 A 
ATOM     20  C   UNL     1       0.551   9.135  21.727  0.00  0.00    +0.000 A 
ATOM     21  C   UNL     1      -0.084   9.382  22.944  0.00  0.00    +0.000 A 
ATOM     22  C   UNL     1      -0.874  10.515  23.091  0.00  0.00    +0.000 A 
ATOM     23  C   UNL     1      -1.039  11.395  22.019  0.00  0.00    +0.000 A 
ATOM     24  C   UNL     1      -0.405  11.144  20.795  0.00  0.00    +0.000 A 
BRANCH  24  25
ATOM     25  O   UNL     1      -0.596  12.019  19.757  0.00  0.00    +0.000 OA
ATOM     26  H   UNL     1      -1.550  12.226  19.706  0.00  0.00    +0.000 HD
ENDBRANCH  24  25
ENDBRANCH   4  19
TORSDOF 6
ENDMDL
MODEL 7
REMARK VINA RESULT:      -7.6      3.287      8.119
REMARK  Name = 
REMARK  9 active torsions:
REMARK  status: ('A' for Active; 'I' for Inactive)
REMARK    1  A    between atoms: C_1  and  O_2
REMARK    2  A    between atoms: O_2  and  C_3
REMARK    3  A    between atoms: C_5  and  C_6
REMARK    4  A    between atoms: C_9  and  C_11
REMARK    5  A    between atoms: C_16  and  O_17
REMARK    6  A    between atoms: C_19  and  O_20
REMARK    7  A    between atoms: O_20  and  C_21
REMARK    8  A    between atoms: C_22  and  O_23
REMARK    9  A    between atoms: O_23  and  C_24
REMARK                            x       y       z     vdW  Elec       q    Type
REMARK                         _______ _______ _______ _____ _____    ______ ____
ROOT
ATOM      1  C   UNL     1       2.282   7.918  18.477  0.00  0.00    +0.000 C 
ATOM      2  O   UNL     1       2.677   8.521  17.485  0.00  0.00    +0.000 OA
ATOM      3  N   UNL     1       1.465   8.432  19.469  0.00  0.00    +0.000 N 
ATOM      4  C   UNL     1       1.090   9.761  19.548  0.00  0.00    +0.000 C 
ATOM      5  O   UNL     1       1.355  10.614  18.703  0.00  0.00    +0.000 OA
ATOM      6  H   UNL     1       1.235   7.859  20.272  0.00  0.00    +0.000 HD
ENDROOT
BRANCH   1   9
ATOM      7  C   UNL     1       4.125   4.708  17.774  0.00  0.00    +0.000 A 
ATOM      8  C   UNL     1       3.543   5.975  17.643  0.00  0.00    +0.000 A 
ATOM      9  C   UNL     1       2.758   6.522  18.660  0.00  0.00    +0.000 A 
ATOM     10  C   UNL     1       2.466   5.745  19.777  0.00  0.00    +0.000 A 
ATOM     11  C   UNL     1       2.966   4.434  19.890  0.00  0.00    +0.000 A 
ATOM     12  C   UNL     1       3.813   3.899  18.887  0.00  0.00    +0.000 A 
BRANCH   7  14
ATOM     13  C   UNL     1       6.308   4.727  16.838  0.00  0.00    +0.000 C 
ATOM     14  O   UNL     1       4.964   4.240  16.796  0.00  0.00    +0.000 OA
ENDBRANCH   7  14
BRANCH  11  15
ATOM     15  O   UNL     1       2.539   3.842  21.054  0.00  0.00    +0.000 OA
ATOM     16  C   UNL     1       1.331   3.093  21.059  0.00  0.00    +0.000 C 
ENDBRANCH  11  15
BRANCH  12  17
ATOM     17  O   UNL     1       4.253   2.619  19.089  0.00  0.00    +0.000 OA
ATOM     18  C   UNL     1       3.590   1.514  18.495  0.00  0.00    +0.000 C 
ENDBRANCH  12  17
ENDBRANCH   1   9
BRANCH   4  19
ATOM     19  C   UNL     1       0.293  10.187  20.742  0.00  0.00    +0.000 A 
ATOM     20  C   UNL     1       0.343   9.347  21.871  0.00  0.00    +0.000 A 
ATOM     21  C   UNL     1      -0.349   9.662  23.041  0.00  0.00    +0.000 A 
ATOM     22  C   UNL     1      -1.102  10.827  23.103  0.00  0.00    +0.000 A 
ATOM     23  C   UNL     1      -1.175  11.672  21.994  0.00  0.00    +0.000 A 
ATOM     24  C   UNL     1      -0.485  11.352  20.817  0.00  0.00    +0.000 A 
BRANCH  24  25
ATOM     25  O   UNL     1      -0.587  12.195  19.739  0.00  0.00    +0.000 OA
ATOM     26  H   UNL     1      -1.410  11.977  19.259  0.00  0.00    +0.000 HD
ENDBRANCH  24  25
ENDBRANCH   4  19
TORSDOF 6
ENDMDL
MODEL 8
REMARK VINA RESULT:      -7.5      3.220      8.177
REMARK  Name = 
REMARK  9 active torsions:
REMARK  status: ('A' for Active; 'I' for Inactive)
REMARK    1  A    between atoms: C_1  and  O_2
REMARK    2  A    between atoms: O_2  and  C_3
REMARK    3  A    between atoms: C_5  and  C_6
REMARK    4  A    between atoms: C_9  and  C_11
REMARK    5  A    between atoms: C_16  and  O_17
REMARK    6  A    between atoms: C_19  and  O_20
REMARK    7  A    between atoms: O_20  and  C_21
REMARK    8  A    between atoms: C_22  and  O_23
REMARK    9  A    between atoms: O_23  and  C_24
REMARK                            x       y       z     vdW  Elec       q    Type
REMARK                         _______ _______ _______ _____ _____    ______ ____
ROOT
ATOM      1  C   UNL     1       2.187   8.112  18.459  0.00  0.00    +0.000 C 
ATOM      2  O   UNL     1       2.562   8.723  17.463  0.00  0.00    +0.000 OA
ATOM      3  N   UNL     1       1.384   8.616  19.467  0.00  0.00    +0.000 N 
ATOM      4  C   UNL     1       1.001   9.943  19.557  0.00  0.00    +0.000 C 
ATOM      5  O   UNL     1       1.247  10.801  18.712  0.00  0.00    +0.000 OA
ATOM      6  H   UNL     1       1.171   8.039  20.271  0.00  0.00    +0.000 HD
ENDROOT
BRANCH   1   9
ATOM      7  C   UNL     1       4.040   4.917  17.712  0.00  0.00    +0.000 A 
ATOM      8  C   UNL     1       3.448   6.182  17.596  0.00  0.00    +0.000 A 
ATOM      9  C   UNL     1       2.676   6.718  18.628  0.00  0.00    +0.000 A 
ATOM     10  C   UNL     1       2.406   5.935  19.746  0.00  0.00    +0.000 A 
ATOM     11  C   UNL     1       2.917   4.626  19.845  0.00  0.00    +0.000 A 
ATOM     12  C   UNL     1       3.751   4.101  18.826  0.00  0.00    +0.000 A 
BRANCH   7  14
ATOM     13  C   UNL     1       6.262   4.716  16.897  0.00  0.00    +0.000 C 
ATOM     14  O   UNL     1       4.867   4.460  16.718  0.00  0.00    +0.000 OA
ENDBRANCH   7  14
BRANCH  11  15
ATOM     15  O   UNL     1       2.511   4.027  21.013  0.00  0.00    +0.000 OA
ATOM     16  C   UNL     1       1.312   3.266  21.033  0.00  0.00    +0.000 C 
ENDBRANCH  11  15
BRANCH  12  17
ATOM     17  O   UNL     1       4.202   2.824  19.016  0.00  0.00    +0.000 OA
ATOM     18  C   UNL     1       3.526   1.716  18.442  0.00  0.00    +0.000 C 
ENDBRANCH  12  17
ENDBRANCH   1   9
BRANCH   4  19
ATOM     19  C   UNL     1       0.222  10.359  20.767  0.00  0.00    +0.000 A 
ATOM     20  C   UNL     1      -0.694  11.415  20.599  0.00  0.00    +0.000 A 
ATOM     21  C   UNL     1      -1.482  11.866  21.659  0.00  0.00    +0.000 A 
ATOM     22  C   UNL     1      -1.368  11.267  22.906  0.00  0.00    +0.000 A 
ATOM     23  C   UNL     1      -0.459  10.224  23.099  0.00  0.00    +0.000 A 
ATOM     24  C   UNL     1       0.336   9.775  22.037  0.00  0.00    +0.000 A 
BRANCH  24  25
ATOM     25  O   UNL     1       1.229   8.758  22.261  0.00  0.00    +0.000 OA
ATOM     26  H   UNL     1       2.124   9.087  22.047  0.00  0.00    +0.000 HD
ENDBRANCH  24  25
ENDBRANCH   4  19
TORSDOF 6
ENDMDL
MODEL 9
REMARK VINA RESULT:      -7.4      3.377      7.932
REMARK  Name = 
REMARK  9 active torsions:
REMARK  status: ('A' for Active; 'I' for Inactive)
REMARK    1  A    between atoms: C_1  and  O_2
REMARK    2  A    between atoms: O_2  and  C_3
REMARK    3  A    between atoms: C_5  and  C_6
REMARK    4  A    between atoms: C_9  and  C_11
REMARK    5  A    between atoms: C_16  and  O_17
REMARK    6  A    between atoms: C_19  and  O_20
REMARK    7  A    between atoms: O_20  and  C_21
REMARK    8  A    between atoms: C_22  and  O_23
REMARK    9  A    between atoms: O_23  and  C_24
REMARK                            x       y       z     vdW  Elec       q    Type
REMARK                         _______ _______ _______ _____ _____    ______ ____
ROOT
ATOM      1  C   UNL     1       2.500   7.491  18.685  0.00  0.00    +0.000 C 
ATOM      2  O   UNL     1       2.895   8.041  17.661  0.00  0.00    +0.000 OA
ATOM      3  N   UNL     1       1.668   8.050  19.639  0.00  0.00    +0.000 N 
ATOM      4  C   UNL     1       1.273   9.376  19.635  0.00  0.00    +0.000 C 
ATOM      5  O   UNL     1       1.533  10.182  18.743  0.00  0.00    +0.000 OA
ATOM      6  H   UNL     1       1.440   7.523  20.472  0.00  0.00    +0.000 HD
ENDROOT
BRANCH   1   9
ATOM      7  C   UNL     1       2.416   3.835  19.590  0.00  0.00    +0.000 A 
ATOM      8  C   UNL     1       2.067   5.179  19.411  0.00  0.00    +0.000 A 
ATOM      9  C   UNL     1       2.996   6.115  18.954  0.00  0.00    +0.000 A 
ATOM     10  C   UNL     1       4.318   5.722  18.777  0.00  0.00    +0.000 A 
ATOM     11  C   UNL     1       4.713   4.395  19.037  0.00  0.00    +0.000 A 
ATOM     12  C   UNL     1       3.760   3.428  19.442  0.00  0.00    +0.000 A 
BRANCH   7  14
ATOM     13  C   UNL     1       0.654   2.406  18.888  0.00  0.00    +0.000 C 
ATOM     14  O   UNL     1       1.457   2.924  19.951  0.00  0.00    +0.000 OA
ENDBRANCH   7  14
BRANCH  11  15
ATOM     15  O   UNL     1       6.060   4.231  18.821  0.00  0.00    +0.000 OA
ATOM     16  C   UNL     1       6.646   4.729  17.627  0.00  0.00    +0.000 C 
ENDBRANCH  11  15
BRANCH  12  17
ATOM     17  O   UNL     1       4.239   2.166  19.665  0.00  0.00    +0.000 OA
ATOM     18  C   UNL     1       4.063   1.136  18.705  0.00  0.00    +0.000 C 
ENDBRANCH  12  17
ENDBRANCH   1   9
BRANCH   4  19
ATOM     19  C   UNL     1       0.461   9.860  20.797  0.00  0.00    +0.000 A 
ATOM     20  C   UNL     1       0.533   9.103  21.981  0.00  0.00    +0.000 A 
ATOM     21  C   UNL     1      -0.171   9.478  23.126  0.00  0.00    +0.000 A 
ATOM     22  C   UNL     1      -0.960  10.620  23.106  0.00  0.00    +0.000 A 
ATOM     23  C   UNL     1      -1.055  11.383  21.940  0.00  0.00    +0.000 A 
ATOM     24  C   UNL     1      -0.353  11.004  20.789  0.00  0.00    +0.000 A 
BRANCH  24  25
ATOM     25  O   UNL     1      -0.477  11.765  19.655  0.00  0.00    +0.000 OA
ATOM     26  H   UNL     1      -1.039  11.277  19.021  0.00  0.00    +0.000 HD
ENDBRANCH  24  25
ENDBRANCH   4  19
TORSDOF 6
ENDMDL
