MODEL 1
REMARK VINA RESULT:      -8.2      0.000      0.000
REMARK  Name = 
REMARK  11 active torsions:
REMARK  status: ('A' for Active; 'I' for Inactive)
REMARK    1  A    between atoms: C_1  and  C_2
REMARK    2  A    between atoms: C_2  and  C_3
REMARK    3  A    between atoms: C_3  and  C_4
REMARK    4  A    between atoms: C_10  and  C_11
REMARK    5  A    between atoms: C_11  and  O_12
REMARK    6  A    between atoms: O_12  and  C_13
REMARK    7  A    between atoms: C_13  and  C_15
REMARK    8  A    between atoms: C_18  and  N_19
REMARK    9  A    between atoms: C_20  and  C_22
REMARK   10  A    between atoms: C_22  and  C_23
REMARK   11  A    between atoms: C_23  and  C_24
REMARK                            x       y       z     vdW  Elec       q    Type
REMARK                         _______ _______ _______ _____ _____    ______ ____
ROOT
ATOM      1  C   UNL     1       2.309   7.165  19.101  0.00  0.00    +0.000 A 
ATOM      2  C   UNL     1       2.522   7.856  17.911  0.00  0.00    +0.000 A 
ATOM      3  C   UNL     1       2.112   9.184  17.786  0.00  0.00    +0.000 A 
ATOM      4  C   UNL     1       1.480   9.858  18.839  0.00  0.00    +0.000 A 
ATOM      5  C   UNL     1       1.274   9.163  20.038  0.00  0.00    +0.000 A 
ATOM      6  C   UNL     1       1.690   7.826  20.169  0.00  0.00    +0.000 A 
ENDROOT
BRANCH   4   7
ATOM      7  N   UNL     1       1.037  11.202  18.735  0.00  0.00    +0.000 N 
ATOM      8  C   UNL     1      -0.262  11.602  18.456  0.00  0.00    +0.000 C 
ATOM      9  O   UNL     1      -1.196  10.851  18.184  0.00  0.00    +0.000 OA
ATOM     10  H   UNL     1       1.728  11.926  18.899  0.00  0.00    +0.000 HD
BRANCH   8  11
ATOM     11  C   UNL     1      -0.487  13.101  18.465  0.00  0.00    +0.000 C 
BRANCH  11  12
ATOM     12  C   UNL     1       0.531  13.739  19.419  0.00  0.00    +0.000 C 
BRANCH  12  13
ATOM     13  C   UNL     1       1.414  14.761  18.756  0.00  0.00    +0.000 A 
ATOM     14  C   UNL     1       0.990  16.092  18.647  0.00  0.00    +0.000 A 
ATOM     15  C   UNL     1       1.801  17.043  18.028  0.00  0.00    +0.000 A 
ATOM     16  C   UNL     1       3.041  16.671  17.512  0.00  0.00    +0.000 A 
ATOM     17  C   UNL     1       3.477  15.351  17.629  0.00  0.00    +0.000 A 
ATOM     18  C   UNL     1       2.667  14.399  18.249  0.00  0.00    +0.000 A 
ENDBRANCH  12  13
ENDBRANCH  11  12
ENDBRANCH   8  11
ENDBRANCH   4   7
BRANCH   1  19
ATOM     19  C   UNL     1       2.750   5.753  19.253  0.00  0.00    +0.000 C 
ATOM     20  O   UNL     1       2.151   4.807  18.773  0.00  0.00    +0.000 OA
BRANCH  19  21
ATOM     21  O   UNL     1       3.905   5.713  19.957  0.00  0.00    +0.000 OA
BRANCH  21  22
ATOM     22  C   UNL     1       4.841   4.674  19.616  0.00  0.00    +0.000 C 
BRANCH  22  29
ATOM     23  C   UNL     1       6.753   4.519  13.913  0.00  0.00    +0.000 A 
ATOM     24  N   UNL     1       7.228   5.492  14.626  0.00  0.00    +0.000 NA
ATOM     25  N   UNL     1       6.731   5.391  15.905  0.00  0.00    +0.000 N 
ATOM     26  C   UNL     1       7.080   6.283  16.893  0.00  0.00    +0.000 A 
ATOM     27  O   UNL     1       7.850   7.229  16.792  0.00  0.00    +0.000 OA
ATOM     28  C   UNL     1       6.420   6.014  18.187  0.00  0.00    +0.000 A 
ATOM     29  C   UNL     1       5.574   4.972  18.315  0.00  0.00    +0.000 A 
ATOM     30  N   UNL     1       5.299   4.096  17.281  0.00  0.00    +0.000 NA
ATOM     31  C   UNL     1       5.876   4.351  16.153  0.00  0.00    +0.000 A 
ATOM     32  S   UNL     1       5.671   3.404  14.714  0.00  0.00    +0.000 S 
BRANCH  23  33
ATOM     33  C   UNL     1       7.086   4.312  12.464  0.00  0.00    +0.000 C 
BRANCH  33  35
ATOM     34  C   UNL     1       4.948   3.301  11.536  0.00  0.00    +0.000 C 
ATOM     35  C   UNL     1       6.409   3.068  11.890  0.00  0.00    +0.000 C 
ENDBRANCH  33  35
ENDBRANCH  23  33
ENDBRANCH  22  29
ENDBRANCH  21  22
ENDBRANCH  19  21
ENDBRANCH   1  19
TORSDOF 10
ENDMDL
MODEL 2
REMARK VINA RESULT:      -8.1      3.581      5.095
REMARK  Name = 
REMARK  11 active torsions:
REMARK  status: ('A' for Active; 'I' for Inactive)
REMARK    1  A    between atoms: C_1  and  C_2
REMARK    2  A    between atoms: C_2  and  C_3
REMARK    3  A    between atoms: C_3  and  C_4
REMARK    4  A    between atoms: C_10  and  C_11
REMARK    5  A    between atoms: C_11  and  O_12
REMARK    6  A    between atoms: O_12  and  C_13
REMARK    7  A    between atoms: C_13  and  C_15
REMARK    8  A    between atoms: C_18  and  N_19
REMARK    9  A    between atoms: C_20  and  C_22
REMARK   10  A    between atoms: C_22  and  C_23
REMARK   11  A    between atoms: C_23  and  C_24
REMARK                            x       y       z     vdW  Elec       q    Type
REMARK                         _______ _______ _______ _____ _____    ______ ____
ROOT
ATOM      1  C   UNL     1       2.107   4.087  19.202  0.00  0.00    +0.000 A 
ATOM      2  C   UNL     1       2.092   4.166  20.591  0.00  0.00    +0.000 A 
ATOM      3  C   UNL     1       2.034   5.408  21.225  0.00  0.00    +0.000 A 
ATOM      4  C   UNL     1       1.990   6.602  20.494  0.00  0.00    +0.000 A 
ATOM      5  C   UNL     1       1.999   6.520  19.095  0.00  0.00    +0.000 A 
ATOM      6  C   UNL     1       2.053   5.270  18.453  0.00  0.00    +0.000 A 
ENDROOT
BRANCH   4   7
ATOM      7  N   UNL     1       1.948   7.879  21.110  0.00  0.00    +0.000 N 
ATOM      8  C   UNL     1       0.800   8.623  21.344  0.00  0.00    +0.000 C 
ATOM      9  O   UNL     1      -0.334   8.317  20.981  0.00  0.00    +0.000 OA
ATOM     10  H   UNL     1       2.831   8.266  21.422  0.00  0.00    +0.000 HD
BRANCH   8  11
ATOM     11  C   UNL     1       1.022   9.930  22.079  0.00  0.00    +0.000 C 
BRANCH  11  12
ATOM     12  C   UNL     1       0.506  11.076  21.198  0.00  0.00    +0.000 C 
BRANCH  12  13
ATOM     13  C   UNL     1      -0.835  11.603  21.627  0.00  0.00    +0.000 A 
ATOM     14  C   UNL     1      -1.615  12.352  20.735  0.00  0.00    +0.000 A 
ATOM     15  C   UNL     1      -2.858  12.848  21.129  0.00  0.00    +0.000 A 
ATOM     16  C   UNL     1      -3.330  12.602  22.417  0.00  0.00    +0.000 A 
ATOM     17  C   UNL     1      -2.567  11.845  23.306  0.00  0.00    +0.000 A 
ATOM     18  C   UNL     1      -1.325  11.346  22.913  0.00  0.00    +0.000 A 
ENDBRANCH  12  13
ENDBRANCH  11  12
ENDBRANCH   8  11
ENDBRANCH   4   7
BRANCH   1  19
ATOM     19  C   UNL     1       2.158   2.771  18.512  0.00  0.00    +0.000 C 
ATOM     20  O   UNL     1       1.200   2.269  17.952  0.00  0.00    +0.000 OA
BRANCH  19  21
ATOM     21  O   UNL     1       3.414   2.271  18.580  0.00  0.00    +0.000 OA
BRANCH  21  22
ATOM     22  C   UNL     1       4.206   2.331  17.381  0.00  0.00    +0.000 C 
BRANCH  22  29
ATOM     23  C   UNL     1       7.737   7.138  18.177  0.00  0.00    +0.000 A 
ATOM     24  N   UNL     1       7.029   7.150  17.092  0.00  0.00    +0.000 NA
ATOM     25  N   UNL     1       6.256   6.012  17.052  0.00  0.00    +0.000 N 
ATOM     26  C   UNL     1       5.383   5.763  16.018  0.00  0.00    +0.000 A 
ATOM     27  O   UNL     1       5.164   6.479  15.049  0.00  0.00    +0.000 OA
ATOM     28  C   UNL     1       4.666   4.477  16.152  0.00  0.00    +0.000 A 
ATOM     29  C   UNL     1       4.891   3.681  17.216  0.00  0.00    +0.000 A 
ATOM     30  N   UNL     1       5.763   4.018  18.236  0.00  0.00    +0.000 NA
ATOM     31  C   UNL     1       6.389   5.140  18.098  0.00  0.00    +0.000 A 
ATOM     32  S   UNL     1       7.539   5.762  19.238  0.00  0.00    +0.000 S 
BRANCH  23  33
ATOM     33  C   UNL     1       8.698   8.229  18.553  0.00  0.00    +0.000 C 
BRANCH  33  35
ATOM     34  C   UNL     1       9.176  10.722  18.453  0.00  0.00    +0.000 C 
ATOM     35  C   UNL     1       8.277   9.585  17.988  0.00  0.00    +0.000 C 
ENDBRANCH  33  35
ENDBRANCH  23  33
ENDBRANCH  22  29
ENDBRANCH  21  22
ENDBRANCH  19  21
ENDBRANCH   1  19
TORSDOF 10
ENDMDL
MODEL 3
REMARK VINA RESULT:      -7.9      2.967     10.098
REMARK  Name = 
REMARK  11 active torsions:
REMARK  status: ('A' for Active; 'I' for Inactive)
REMARK    1  A    between atoms: C_1  and  C_2
REMARK    2  A    between atoms: C_2  and  C_3
REMARK    3  A    between atoms: C_3  and  C_4
REMARK    4  A    between atoms: C_10  and  C_11
REMARK    5  A    between atoms: C_11  and  O_12
REMARK    6  A    between atoms: O_12  and  C_13
REMARK    7  A    between atoms: C_13  and  C_15
REMARK    8  A    between atoms: C_18  and  N_19
REMARK    9  A    between atoms: C_20  and  C_22
REMARK   10  A    between atoms: C_22  and  C_23
REMARK   11  A    between atoms: C_23  and  C_24
REMARK                            x       y       z     vdW  Elec       q    Type
REMARK                         _______ _______ _______ _____ _____    ______ ____
ROOT
ATOM      1  C   UNL     1       3.232   3.611  19.045  0.00  0.00    +0.000 A 
ATOM      2  C   UNL     1       4.542   3.915  19.405  0.00  0.00    +0.000 A 
ATOM      3  C   UNL     1       5.530   4.034  18.426  0.00  0.00    +0.000 A 
ATOM      4  C   UNL     1       5.240   3.854  17.067  0.00  0.00    +0.000 A 
ATOM      5  C   UNL     1       3.919   3.555  16.707  0.00  0.00    +0.000 A 
ATOM      6  C   UNL     1       2.921   3.439  17.691  0.00  0.00    +0.000 A 
ENDROOT
BRANCH   4   7
ATOM      7  N   UNL     1       6.227   3.952  16.052  0.00  0.00    +0.000 N 
ATOM      8  C   UNL     1       6.388   5.024  15.186  0.00  0.00    +0.000 C 
ATOM      9  O   UNL     1       5.652   6.007  15.124  0.00  0.00    +0.000 OA
ATOM     10  H   UNL     1       6.878   3.179  15.971  0.00  0.00    +0.000 HD
BRANCH   8  11
ATOM     11  C   UNL     1       7.562   4.909  14.234  0.00  0.00    +0.000 C 
BRANCH  11  12
ATOM     12  C   UNL     1       7.040   5.061  12.799  0.00  0.00    +0.000 C 
BRANCH  12  13
ATOM     13  C   UNL     1       6.634   3.757  12.169  0.00  0.00    +0.000 A 
ATOM     14  C   UNL     1       7.610   2.871  11.694  0.00  0.00    +0.000 A 
ATOM     15  C   UNL     1       7.239   1.663  11.103  0.00  0.00    +0.000 A 
ATOM     16  C   UNL     1       5.891   1.332  10.982  0.00  0.00    +0.000 A 
ATOM     17  C   UNL     1       4.914   2.201  11.466  0.00  0.00    +0.000 A 
ATOM     18  C   UNL     1       5.283   3.409  12.059  0.00  0.00    +0.000 A 
ENDBRANCH  12  13
ENDBRANCH  11  12
ENDBRANCH   8  11
ENDBRANCH   4   7
BRANCH   1  19
ATOM     19  C   UNL     1       2.166   3.492  20.075  0.00  0.00    +0.000 C 
ATOM     20  O   UNL     1       2.033   2.517  20.794  0.00  0.00    +0.000 OA
BRANCH  19  21
ATOM     21  O   UNL     1       1.427   4.625  20.096  0.00  0.00    +0.000 OA
BRANCH  21  22
ATOM     22  C   UNL     1       1.886   5.688  20.951  0.00  0.00    +0.000 C 
BRANCH  22  29
ATOM     23  C   UNL     1       0.650  11.495  19.977  0.00  0.00    +0.000 A 
ATOM     24  N   UNL     1       1.220  10.881  18.988  0.00  0.00    +0.000 NA
ATOM     25  N   UNL     1       1.420   9.565  19.336  0.00  0.00    +0.000 N 
ATOM     26  C   UNL     1       1.993   8.662  18.470  0.00  0.00    +0.000 A 
ATOM     27  O   UNL     1       2.371   8.878  17.326  0.00  0.00    +0.000 OA
ATOM     28  C   UNL     1       2.140   7.309  19.044  0.00  0.00    +0.000 A 
ATOM     29  C   UNL     1       1.723   7.054  20.301  0.00  0.00    +0.000 A 
ATOM     30  N   UNL     1       1.123   8.010  21.101  0.00  0.00    +0.000 NA
ATOM     31  C   UNL     1       1.011   9.190  20.588  0.00  0.00    +0.000 A 
ATOM     32  S   UNL     1       0.309  10.549  21.407  0.00  0.00    +0.000 S 
BRANCH  23  33
ATOM     33  C   UNL     1       0.279  12.949  19.947  0.00  0.00    +0.000 C 
BRANCH  33  35
ATOM     34  C   UNL     1      -2.257  12.804  19.989  0.00  0.00    +0.000 C 
ATOM     35  C   UNL     1      -1.024  13.195  19.187  0.00  0.00    +0.000 C 
ENDBRANCH  33  35
ENDBRANCH  23  33
ENDBRANCH  22  29
ENDBRANCH  21  22
ENDBRANCH  19  21
ENDBRANCH   1  19
TORSDOF 10
ENDMDL
MODEL 4
REMARK VINA RESULT:      -7.8      2.235      3.656
REMARK  Name = 
REMARK  11 active torsions:
REMARK  status: ('A' for Active; 'I' for Inactive)
REMARK    1  A    between atoms: C_1  and  C_2
REMARK    2  A    between atoms: C_2  and  C_3
REMARK    3  A    between atoms: C_3  and  C_4
REMARK    4  A    between atoms: C_10  and  C_11
REMARK    5  A    between atoms: C_11  and  O_12
REMARK    6  A    between atoms: O_12  and  C_13
REMARK    7  A    between atoms: C_13  and  C_15
REMARK    8  A    between atoms: C_18  and  N_19
REMARK    9  A    between atoms: C_20  and  C_22
REMARK   10  A    between atoms: C_22  and  C_23
REMARK   11  A    between atoms: C_23  and  C_24
REMARK                            x       y       z     vdW  Elec       q    Type
REMARK                         _______ _______ _______ _____ _____    ______ ____
ROOT
ATOM      1  C   UNL     1       2.054   7.015  19.985  0.00  0.00    +0.000 A 
ATOM      2  C   UNL     1       1.249   7.526  20.999  0.00  0.00    +0.000 A 
ATOM      3  C   UNL     1       0.645   8.776  20.855  0.00  0.00    +0.000 A 
ATOM      4  C   UNL     1       0.827   9.549  19.701  0.00  0.00    +0.000 A 
ATOM      5  C   UNL     1       1.633   9.029  18.678  0.00  0.00    +0.000 A 
ATOM      6  C   UNL     1       2.238   7.768  18.818  0.00  0.00    +0.000 A 
ENDROOT
BRANCH   4   7
ATOM      7  N   UNL     1       0.241  10.830  19.535  0.00  0.00    +0.000 N 
ATOM      8  C   UNL     1      -0.855  11.116  18.733  0.00  0.00    +0.000 C 
ATOM      9  O   UNL     1      -1.426  10.316  17.994  0.00  0.00    +0.000 OA
ATOM     10  H   UNL     1       0.649  11.593  20.063  0.00  0.00    +0.000 HD
BRANCH   8  11
ATOM     11  C   UNL     1      -1.326  12.556  18.780  0.00  0.00    +0.000 C 
BRANCH  11  12
ATOM     12  C   UNL     1      -1.686  12.901  20.231  0.00  0.00    +0.000 C 
BRANCH  12  13
ATOM     13  C   UNL     1      -3.150  12.752  20.537  0.00  0.00    +0.000 A 
ATOM     14  C   UNL     1      -3.638  13.060  21.814  0.00  0.00    +0.000 A 
ATOM     15  C   UNL     1      -4.995  12.917  22.105  0.00  0.00    +0.000 A 
ATOM     16  C   UNL     1      -5.874  12.465  21.123  0.00  0.00    +0.000 A 
ATOM     17  C   UNL     1      -5.400  12.170  19.845  0.00  0.00    +0.000 A 
ATOM     18  C   UNL     1      -4.043  12.313  19.552  0.00  0.00    +0.000 A 
ENDBRANCH  12  13
ENDBRANCH  11  12
ENDBRANCH   8  11
ENDBRANCH   4   7
BRANCH   1  19
ATOM     19  C   UNL     1       2.695   5.680  20.118  0.00  0.00    +0.000 C 
ATOM     20  O   UNL     1       2.080   4.664  20.391  0.00  0.00    +0.000 OA
BRANCH  19  21
ATOM     21  O   UNL     1       4.019   5.784  19.857  0.00  0.00    +0.000 OA
BRANCH  21  22
ATOM     22  C   UNL     1       4.680   4.608  19.357  0.00  0.00    +0.000 C 
BRANCH  22  29
ATOM     23  C   UNL     1       6.790   4.454  13.725  0.00  0.00    +0.000 A 
ATOM     24  N   UNL     1       7.277   5.397  14.468  0.00  0.00    +0.000 NA
ATOM     25  N   UNL     1       6.730   5.299  15.727  0.00  0.00    +0.000 N 
ATOM     26  C   UNL     1       7.079   6.163  16.741  0.00  0.00    +0.000 A 
ATOM     27  O   UNL     1       7.889   7.078  16.682  0.00  0.00    +0.000 OA
ATOM     28  C   UNL     1       6.361   5.903  18.006  0.00  0.00    +0.000 A 
ATOM     29  C   UNL     1       5.471   4.894  18.088  0.00  0.00    +0.000 A 
ATOM     30  N   UNL     1       5.199   4.044  17.031  0.00  0.00    +0.000 NA
ATOM     31  C   UNL     1       5.826   4.291  15.929  0.00  0.00    +0.000 A 
ATOM     32  S   UNL     1       5.635   3.373  14.470  0.00  0.00    +0.000 S 
BRANCH  23  33
ATOM     33  C   UNL     1       7.166   4.254  12.285  0.00  0.00    +0.000 C 
BRANCH  33  35
ATOM     34  C   UNL     1       7.378   2.009  11.115  0.00  0.00    +0.000 C 
ATOM     35  C   UNL     1       6.432   3.070  11.658  0.00  0.00    +0.000 C 
ENDBRANCH  33  35
ENDBRANCH  23  33
ENDBRANCH  22  29
ENDBRANCH  21  22
ENDBRANCH  19  21
ENDBRANCH   1  19
TORSDOF 10
ENDMDL
MODEL 5
REMARK VINA RESULT:      -7.7      5.014     10.426
REMARK  Name = 
REMARK  11 active torsions:
REMARK  status: ('A' for Active; 'I' for Inactive)
REMARK    1  A    between atoms: C_1  and  C_2
REMARK    2  A    between atoms: C_2  and  C_3
REMARK    3  A    between atoms: C_3  and  C_4
REMARK    4  A    between atoms: C_10  and  C_11
REMARK    5  A    between atoms: C_11  and  O_12
REMARK    6  A    between atoms: O_12  and  C_13
REMARK    7  A    between atoms: C_13  and  C_15
REMARK    8  A    between atoms: C_18  and  N_19
REMARK    9  A    between atoms: C_20  and  C_22
REMARK   10  A    between atoms: C_22  and  C_23
REMARK   11  A    between atoms: C_23  and  C_24
REMARK                            x       y       z     vdW  Elec       q    Type
REMARK                         _______ _______ _______ _____ _____    ______ ____
ROOT
ATOM      1  C   UNL     1      -0.239  10.195  22.185  0.00  0.00    +0.000 A 
ATOM      2  C   UNL     1      -0.572   8.844  22.185  0.00  0.00    +0.000 A 
ATOM      3  C   UNL     1       0.212   7.926  21.484  0.00  0.00    +0.000 A 
ATOM      4  C   UNL     1       1.345   8.328  20.766  0.00  0.00    +0.000 A 
ATOM      5  C   UNL     1       1.683   9.688  20.773  0.00  0.00    +0.000 A 
ATOM      6  C   UNL     1       0.898  10.615  21.482  0.00  0.00    +0.000 A 
ENDROOT
BRANCH   4   7
ATOM      7  N   UNL     1       2.150   7.421  20.030  0.00  0.00    +0.000 N 
ATOM      8  C   UNL     1       2.283   7.399  18.649  0.00  0.00    +0.000 C 
ATOM      9  O   UNL     1       1.664   8.113  17.862  0.00  0.00    +0.000 OA
ATOM     10  H   UNL     1       2.685   6.746  20.565  0.00  0.00    +0.000 HD
BRANCH   8  11
ATOM     11  C   UNL     1       3.258   6.369  18.115  0.00  0.00    +0.000 C 
BRANCH  11  12
ATOM     12  C   UNL     1       2.498   5.057  17.881  0.00  0.00    +0.000 C 
BRANCH  12  13
ATOM     13  C   UNL     1       2.408   4.191  19.108  0.00  0.00    +0.000 A 
ATOM     14  C   UNL     1       1.183   4.036  19.771  0.00  0.00    +0.000 A 
ATOM     15  C   UNL     1       1.094   3.239  20.912  0.00  0.00    +0.000 A 
ATOM     16  C   UNL     1       2.228   2.593  21.400  0.00  0.00    +0.000 A 
ATOM     17  C   UNL     1       3.448   2.730  20.738  0.00  0.00    +0.000 A 
ATOM     18  C   UNL     1       3.538   3.526  19.596  0.00  0.00    +0.000 A 
ENDBRANCH  12  13
ENDBRANCH  11  12
ENDBRANCH   8  11
ENDBRANCH   4   7
BRANCH   1  19
ATOM     19  C   UNL     1      -1.057  11.184  22.936  0.00  0.00    +0.000 C 
ATOM     20  O   UNL     1      -2.030  10.881  23.604  0.00  0.00    +0.000 OA
BRANCH  19  21
ATOM     21  O   UNL     1      -0.528  12.420  22.783  0.00  0.00    +0.000 OA
BRANCH  21  22
ATOM     22  C   UNL     1      -1.438  13.483  22.450  0.00  0.00    +0.000 C 
BRANCH  22  29
ATOM     23  C   UNL     1      -3.722  11.407  17.284  0.00  0.00    +0.000 A 
ATOM     24  N   UNL     1      -4.598  11.791  18.158  0.00  0.00    +0.000 NA
ATOM     25  N   UNL     1      -3.941  12.262  19.271  0.00  0.00    +0.000 N 
ATOM     26  C   UNL     1      -4.621  12.758  20.361  0.00  0.00    +0.000 A 
ATOM     27  O   UNL     1      -5.834  12.863  20.487  0.00  0.00    +0.000 OA
ATOM     28  C   UNL     1      -3.732  13.190  21.459  0.00  0.00    +0.000 A 
ATOM     29  C   UNL     1      -2.394  13.086  21.333  0.00  0.00    +0.000 A 
ATOM     30  N   UNL     1      -1.783  12.607  20.188  0.00  0.00    +0.000 NA
ATOM     31  C   UNL     1      -2.573  12.224  19.241  0.00  0.00    +0.000 A 
ATOM     32  S   UNL     1      -2.037  11.576  17.724  0.00  0.00    +0.000 S 
BRANCH  23  33
ATOM     33  C   UNL     1      -4.081  10.838  15.942  0.00  0.00    +0.000 C 
BRANCH  33  35
ATOM     34  C   UNL     1      -3.176   9.872  13.774  0.00  0.00    +0.000 C 
ATOM     35  C   UNL     1      -2.856  10.309  15.196  0.00  0.00    +0.000 C 
ENDBRANCH  33  35
ENDBRANCH  23  33
ENDBRANCH  22  29
ENDBRANCH  21  22
ENDBRANCH  19  21
ENDBRANCH   1  19
TORSDOF 10
ENDMDL
MODEL 6
REMARK VINA RESULT:      -7.7      2.649     10.188
REMARK  Name = 
REMARK  11 active torsions:
REMARK  status: ('A' for Active; 'I' for Inactive)
REMARK    1  A    between atoms: C_1  and  C_2
REMARK    2  A    between atoms: C_2  and  C_3
REMARK    3  A    between atoms: C_3  and  C_4
REMARK    4  A    between atoms: C_10  and  C_11
REMARK    5  A    between atoms: C_11  and  O_12
REMARK    6  A    between atoms: O_12  and  C_13
REMARK    7  A    between atoms: C_13  and  C_15
REMARK    8  A    between atoms: C_18  and  N_19
REMARK    9  A    between atoms: C_20  and  C_22
REMARK   10  A    between atoms: C_22  and  C_23
REMARK   11  A    between atoms: C_23  and  C_24
REMARK                            x       y       z     vdW  Elec       q    Type
REMARK                         _______ _______ _______ _____ _____    ______ ____
ROOT
ATOM      1  C   UNL     1       3.067   4.263  19.440  0.00  0.00    +0.000 A 
ATOM      2  C   UNL     1       4.352   4.731  19.700  0.00  0.00    +0.000 A 
ATOM      3  C   UNL     1       5.334   4.679  18.709  0.00  0.00    +0.000 A 
ATOM      4  C   UNL     1       5.063   4.159  17.437  0.00  0.00    +0.000 A 
ATOM      5  C   UNL     1       3.767   3.695  17.175  0.00  0.00    +0.000 A 
ATOM      6  C   UNL     1       2.774   3.751  18.170  0.00  0.00    +0.000 A 
ENDROOT
BRANCH   4   7
ATOM      7  N   UNL     1       6.045   4.077  16.416  0.00  0.00    +0.000 N 
ATOM      8  C   UNL     1       6.234   5.007  15.403  0.00  0.00    +0.000 C 
ATOM      9  O   UNL     1       5.529   5.994  15.201  0.00  0.00    +0.000 OA
ATOM     10  H   UNL     1       6.670   3.280  16.445  0.00  0.00    +0.000 HD
BRANCH   8  11
ATOM     11  C   UNL     1       7.396   4.717  14.475  0.00  0.00    +0.000 C 
BRANCH  11  12
ATOM     12  C   UNL     1       6.941   4.973  13.032  0.00  0.00    +0.000 C 
BRANCH  12  13
ATOM     13  C   UNL     1       6.575   3.718  12.289  0.00  0.00    +0.000 A 
ATOM     14  C   UNL     1       7.578   2.904  11.746  0.00  0.00    +0.000 A 
ATOM     15  C   UNL     1       7.245   1.742  11.050  0.00  0.00    +0.000 A 
ATOM     16  C   UNL     1       5.907   1.385  10.891  0.00  0.00    +0.000 A 
ATOM     17  C   UNL     1       4.903   2.182  11.441  0.00  0.00    +0.000 A 
ATOM     18  C   UNL     1       5.235   3.344  12.138  0.00  0.00    +0.000 A 
ENDBRANCH  12  13
ENDBRANCH  11  12
ENDBRANCH   8  11
ENDBRANCH   4   7
BRANCH   1  19
ATOM     19  C   UNL     1       2.008   4.323  20.481  0.00  0.00    +0.000 C 
ATOM     20  O   UNL     1       1.855   3.466  21.334  0.00  0.00    +0.000 OA
BRANCH  19  21
ATOM     21  O   UNL     1       1.299   5.467  20.342  0.00  0.00    +0.000 OA
BRANCH  21  22
ATOM     22  C   UNL     1       1.759   6.614  21.079  0.00  0.00    +0.000 C 
BRANCH  22  29
ATOM     23  C   UNL     1       0.268  12.245  19.574  0.00  0.00    +0.000 A 
ATOM     24  N   UNL     1       0.896  11.579  18.657  0.00  0.00    +0.000 NA
ATOM     25  N   UNL     1       1.150  10.310  19.123  0.00  0.00    +0.000 N 
ATOM     26  C   UNL     1       1.792   9.367  18.352  0.00  0.00    +0.000 A 
ATOM     27  O   UNL     1       2.192   9.504  17.204  0.00  0.00    +0.000 OA
ATOM     28  C   UNL     1       1.989   8.078  19.046  0.00  0.00    +0.000 A 
ATOM     29  C   UNL     1       1.548   7.910  20.309  0.00  0.00    +0.000 A 
ATOM     30  N   UNL     1       0.879   8.898  21.008  0.00  0.00    +0.000 NA
ATOM     31  C   UNL     1       0.724  10.023  20.392  0.00  0.00    +0.000 A 
ATOM     32  S   UNL     1      -0.069  11.408  21.072  0.00  0.00    +0.000 S 
BRANCH  23  33
ATOM     33  C   UNL     1      -0.174  13.671  19.410  0.00  0.00    +0.000 C 
BRANCH  33  35
ATOM     34  C   UNL     1       1.514  15.385  20.227  0.00  0.00    +0.000 C 
ATOM     35  C   UNL     1       0.987  14.594  19.039  0.00  0.00    +0.000 C 
ENDBRANCH  33  35
ENDBRANCH  23  33
ENDBRANCH  22  29
ENDBRANCH  21  22
ENDBRANCH  19  21
ENDBRANCH   1  19
TORSDOF 10
ENDMDL
MODEL 7
REMARK VINA RESULT:      -7.6      2.301      3.940
REMARK  Name = 
REMARK  11 active torsions:
REMARK  status: ('A' for Active; 'I' for Inactive)
REMARK    1  A    between atoms: C_1  and  C_2
REMARK    2  A    between atoms: C_2  and  C_3
REMARK    3  A    between atoms: C_3  and  C_4
REMARK    4  A    between atoms: C_10  and  C_11
REMARK    5  A    between atoms: C_11  and  O_12
REMARK    6  A    between atoms: O_12  and  C_13
REMARK    7  A    between atoms: C_13  and  C_15
REMARK    8  A    between atoms: C_18  and  N_19
REMARK    9  A    between atoms: C_20  and  C_22
REMARK   10  A    between atoms: C_22  and  C_23
REMARK   11  A    between atoms: C_23  and  C_24
REMARK                            x       y       z     vdW  Elec       q    Type
REMARK                         _______ _______ _______ _____ _____    ______ ____
ROOT
ATOM      1  C   UNL     1       1.905   4.471  19.064  0.00  0.00    +0.000 A 
ATOM      2  C   UNL     1       1.791   5.003  20.345  0.00  0.00    +0.000 A 
ATOM      3  C   UNL     1       1.771   6.387  20.533  0.00  0.00    +0.000 A 
ATOM      4  C   UNL     1       1.865   7.273  19.453  0.00  0.00    +0.000 A 
ATOM      5  C   UNL     1       1.973   6.735  18.164  0.00  0.00    +0.000 A 
ATOM      6  C   UNL     1       1.989   5.342  17.971  0.00  0.00    +0.000 A 
ENDROOT
BRANCH   4   7
ATOM      7  N   UNL     1       1.865   8.683  19.615  0.00  0.00    +0.000 N 
ATOM      8  C   UNL     1       1.116   9.580  18.866  0.00  0.00    +0.000 C 
ATOM      9  O   UNL     1       0.405   9.287  17.906  0.00  0.00    +0.000 OA
ATOM     10  H   UNL     1       2.448   9.059  20.354  0.00  0.00    +0.000 HD
BRANCH   8  11
ATOM     11  C   UNL     1       1.247  11.031  19.283  0.00  0.00    +0.000 C 
BRANCH  11  12
ATOM     12  C   UNL     1       2.165  11.743  18.281  0.00  0.00    +0.000 C 
BRANCH  12  13
ATOM     13  C   UNL     1       2.129  13.241  18.398  0.00  0.00    +0.000 A 
ATOM     14  C   UNL     1       3.290  13.993  18.169  0.00  0.00    +0.000 A 
ATOM     15  C   UNL     1       3.265  15.383  18.281  0.00  0.00    +0.000 A 
ATOM     16  C   UNL     1       2.081  16.032  18.623  0.00  0.00    +0.000 A 
ATOM     17  C   UNL     1       0.918  15.294  18.838  0.00  0.00    +0.000 A 
ATOM     18  C   UNL     1       0.941  13.903  18.725  0.00  0.00    +0.000 A 
ENDBRANCH  12  13
ENDBRANCH  11  12
ENDBRANCH   8  11
ENDBRANCH   4   7
BRANCH   1  19
ATOM     19  C   UNL     1       1.917   3.000  18.847  0.00  0.00    +0.000 C 
ATOM     20  O   UNL     1       1.499   2.197  19.662  0.00  0.00    +0.000 OA
BRANCH  19  21
ATOM     21  O   UNL     1       2.418   2.727  17.620  0.00  0.00    +0.000 OA
BRANCH  21  22
ATOM     22  C   UNL     1       3.819   2.409  17.543  0.00  0.00    +0.000 C 
BRANCH  22  29
ATOM     23  C   UNL     1       7.687   6.979  18.142  0.00  0.00    +0.000 A 
ATOM     24  N   UNL     1       7.179   6.840  16.958  0.00  0.00    +0.000 NA
ATOM     25  N   UNL     1       6.300   5.782  16.971  0.00  0.00    +0.000 N 
ATOM     26  C   UNL     1       5.592   5.411  15.851  0.00  0.00    +0.000 A 
ATOM     27  O   UNL     1       5.624   5.944  14.749  0.00  0.00    +0.000 OA
ATOM     28  C   UNL     1       4.722   4.237  16.069  0.00  0.00    +0.000 A 
ATOM     29  C   UNL     1       4.671   3.643  17.278  0.00  0.00    +0.000 A 
ATOM     30  N   UNL     1       5.390   4.097  18.369  0.00  0.00    +0.000 NA
ATOM     31  C   UNL     1       6.153   5.118  18.159  0.00  0.00    +0.000 A 
ATOM     32  S   UNL     1       7.157   5.852  19.369  0.00  0.00    +0.000 S 
BRANCH  23  33
ATOM     33  C   UNL     1       8.688   8.041  18.497  0.00  0.00    +0.000 C 
BRANCH  33  35
ATOM     34  C   UNL     1       9.151  10.538  18.541  0.00  0.00    +0.000 C 
ATOM     35  C   UNL     1       8.243   9.428  18.034  0.00  0.00    +0.000 C 
ENDBRANCH  33  35
ENDBRANCH  23  33
ENDBRANCH  22  29
ENDBRANCH  21  22
ENDBRANCH  19  21
ENDBRANCH   1  19
TORSDOF 10
ENDMDL
MODEL 8
REMARK VINA RESULT:      -7.6      4.689     11.971
REMARK  Name = 
REMARK  11 active torsions:
REMARK  status: ('A' for Active; 'I' for Inactive)
REMARK    1  A    between atoms: C_1  and  C_2
REMARK    2  A    between atoms: C_2  and  C_3
REMARK    3  A    between atoms: C_3  and  C_4
REMARK    4  A    between atoms: C_10  and  C_11
REMARK    5  A    between atoms: C_11  and  O_12
REMARK    6  A    between atoms: O_12  and  C_13
REMARK    7  A    between atoms: C_13  and  C_15
REMARK    8  A    between atoms: C_18  and  N_19
REMARK    9  A    between atoms: C_20  and  C_22
REMARK   10  A    between atoms: C_22  and  C_23
REMARK   11  A    between atoms: C_23  and  C_24
REMARK                            x       y       z     vdW  Elec       q    Type
REMARK                         _______ _______ _______ _____ _____    ______ ____
ROOT
ATOM      1  C   UNL     1       1.499   9.138  19.154  0.00  0.00    +0.000 A 
ATOM      2  C   UNL     1       2.121   8.973  17.920  0.00  0.00    +0.000 A 
ATOM      3  C   UNL     1       2.778   7.779  17.617  0.00  0.00    +0.000 A 
ATOM      4  C   UNL     1       2.834   6.722  18.534  0.00  0.00    +0.000 A 
ATOM      5  C   UNL     1       2.202   6.888  19.774  0.00  0.00    +0.000 A 
ATOM      6  C   UNL     1       1.535   8.088  20.080  0.00  0.00    +0.000 A 
ENDROOT
BRANCH   4   7
ATOM      7  N   UNL     1       3.509   5.504  18.261  0.00  0.00    +0.000 N 
ATOM      8  C   UNL     1       4.699   5.095  18.847  0.00  0.00    +0.000 C 
ATOM      9  O   UNL     1       5.376   5.761  19.627  0.00  0.00    +0.000 OA
ATOM     10  H   UNL     1       3.071   4.876  17.597  0.00  0.00    +0.000 HD
BRANCH   8  11
ATOM     11  C   UNL     1       5.179   3.719  18.429  0.00  0.00    +0.000 C 
BRANCH  11  12
ATOM     12  C   UNL     1       4.664   2.695  19.449  0.00  0.00    +0.000 C 
BRANCH  12  13
ATOM     13  C   UNL     1       3.175   2.749  19.652  0.00  0.00    +0.000 A 
ATOM     14  C   UNL     1       2.310   2.379  18.614  0.00  0.00    +0.000 A 
ATOM     15  C   UNL     1       0.927   2.433  18.793  0.00  0.00    +0.000 A 
ATOM     16  C   UNL     1       0.399   2.859  20.011  0.00  0.00    +0.000 A 
ATOM     17  C   UNL     1       1.253   3.215  21.054  0.00  0.00    +0.000 A 
ATOM     18  C   UNL     1       2.636   3.160  20.876  0.00  0.00    +0.000 A 
ENDBRANCH  12  13
ENDBRANCH  11  12
ENDBRANCH   8  11
ENDBRANCH   4   7
BRANCH   1  19
ATOM     19  C   UNL     1       0.785  10.399  19.487  0.00  0.00    +0.000 C 
ATOM     20  O   UNL     1       1.354  11.431  19.800  0.00  0.00    +0.000 OA
BRANCH  19  21
ATOM     21  O   UNL     1      -0.549  10.216  19.349  0.00  0.00    +0.000 OA
BRANCH  21  22
ATOM     22  C   UNL     1      -1.188  10.883  18.247  0.00  0.00    +0.000 C 
BRANCH  22  29
ATOM     23  C   UNL     1      -5.762  13.735  20.921  0.00  0.00    +0.000 A 
ATOM     24  N   UNL     1      -6.080  13.057  19.863  0.00  0.00    +0.000 NA
ATOM     25  N   UNL     1      -4.952  12.440  19.373  0.00  0.00    +0.000 N 
ATOM     26  C   UNL     1      -4.990  11.632  18.260  0.00  0.00    +0.000 A 
ATOM     27  O   UNL     1      -5.975  11.345  17.592  0.00  0.00    +0.000 OA
ATOM     28  C   UNL     1      -3.669  11.087  17.884  0.00  0.00    +0.000 A 
ATOM     29  C   UNL     1      -2.577  11.389  18.614  0.00  0.00    +0.000 A 
ATOM     30  N   UNL     1      -2.624  12.184  19.745  0.00  0.00    +0.000 NA
ATOM     31  C   UNL     1      -3.785  12.661  20.053  0.00  0.00    +0.000 A 
ATOM     32  S   UNL     1      -4.085  13.693  21.415  0.00  0.00    +0.000 S 
BRANCH  23  33
ATOM     33  C   UNL     1      -6.748  14.535  21.722  0.00  0.00    +0.000 C 
BRANCH  33  35
ATOM     34  C   UNL     1      -6.243  15.743  23.899  0.00  0.00    +0.000 C 
ATOM     35  C   UNL     1      -6.508  14.404  23.226  0.00  0.00    +0.000 C 
ENDBRANCH  33  35
ENDBRANCH  23  33
ENDBRANCH  22  29
ENDBRANCH  21  22
ENDBRANCH  19  21
ENDBRANCH   1  19
TORSDOF 10
ENDMDL
MODEL 9
REMARK VINA RESULT:      -7.6      2.724     10.259
REMARK  Name = 
REMARK  11 active torsions:
REMARK  status: ('A' for Active; 'I' for Inactive)
REMARK    1  A    between atoms: C_1  and  C_2
REMARK    2  A    between atoms: C_2  and  C_3
REMARK    3  A    between atoms: C_3  and  C_4
REMARK    4  A    between atoms: C_10  and  C_11
REMARK    5  A    between atoms: C_11  and  O_12
REMARK    6  A    between atoms: O_12  and  C_13
REMARK    7  A    between atoms: C_13  and  C_15
REMARK    8  A    between atoms: C_18  and  N_19
REMARK    9  A    between atoms: C_20  and  C_22
REMARK   10  A    between atoms: C_22  and  C_23
REMARK   11  A    between atoms: C_23  and  C_24
REMARK                            x       y       z     vdW  Elec       q    Type
REMARK                         _______ _______ _______ _____ _____    ______ ____
ROOT
ATOM      1  C   UNL     1       2.828   4.967  19.254  0.00  0.00    +0.000 A 
ATOM      2  C   UNL     1       4.105   5.487  19.446  0.00  0.00    +0.000 A 
ATOM      3  C   UNL     1       5.100   5.278  18.490  0.00  0.00    +0.000 A 
ATOM      4  C   UNL     1       4.851   4.545  17.322  0.00  0.00    +0.000 A 
ATOM      5  C   UNL     1       3.563   4.028  17.128  0.00  0.00    +0.000 A 
ATOM      6  C   UNL     1       2.557   4.242  18.087  0.00  0.00    +0.000 A 
ENDROOT
BRANCH   4   7
ATOM      7  N   UNL     1       5.848   4.301  16.342  0.00  0.00    +0.000 N 
ATOM      8  C   UNL     1       6.201   5.170  15.319  0.00  0.00    +0.000 C 
ATOM      9  O   UNL     1       5.650   6.240  15.070  0.00  0.00    +0.000 OA
ATOM     10  H   UNL     1       6.354   3.426  16.412  0.00  0.00    +0.000 HD
BRANCH   8  11
ATOM     11  C   UNL     1       7.345   4.698  14.443  0.00  0.00    +0.000 C 
BRANCH  11  12
ATOM     12  C   UNL     1       6.964   4.939  12.976  0.00  0.00    +0.000 C 
BRANCH  12  13
ATOM     13  C   UNL     1       6.578   3.683  12.244  0.00  0.00    +0.000 A 
ATOM     14  C   UNL     1       5.227   3.364  12.059  0.00  0.00    +0.000 A 
ATOM     15  C   UNL     1       4.863   2.198  11.385  0.00  0.00    +0.000 A 
ATOM     16  C   UNL     1       5.846   1.342  10.894  0.00  0.00    +0.000 A 
ATOM     17  C   UNL     1       7.193   1.659  11.062  0.00  0.00    +0.000 A 
ATOM     18  C   UNL     1       7.559   2.826  11.733  0.00  0.00    +0.000 A 
ENDBRANCH  12  13
ENDBRANCH  11  12
ENDBRANCH   8  11
ENDBRANCH   4   7
BRANCH   1  19
ATOM     19  C   UNL     1       1.753   5.191  20.257  0.00  0.00    +0.000 C 
ATOM     20  O   UNL     1       0.844   4.405  20.454  0.00  0.00    +0.000 OA
BRANCH  19  21
ATOM     21  O   UNL     1       1.978   6.355  20.910  0.00  0.00    +0.000 OA
BRANCH  21  22
ATOM     22  C   UNL     1       0.859   7.247  21.057  0.00  0.00    +0.000 C 
BRANCH  22  29
ATOM     23  C   UNL     1       1.142  13.072  19.578  0.00  0.00    +0.000 A 
ATOM     24  N   UNL     1       1.574  12.253  18.671  0.00  0.00    +0.000 NA
ATOM     25  N   UNL     1       1.428  10.964  19.129  0.00  0.00    +0.000 N 
ATOM     26  C   UNL     1       1.786   9.876  18.366  0.00  0.00    +0.000 A 
ATOM     27  O   UNL     1       2.243   9.892  17.231  0.00  0.00    +0.000 OA
ATOM     28  C   UNL     1       1.573   8.584  19.049  0.00  0.00    +0.000 A 
ATOM     29  C   UNL     1       1.064   8.550  20.297  0.00  0.00    +0.000 A 
ATOM     30  N   UNL     1       0.694   9.690  20.989  0.00  0.00    +0.000 NA
ATOM     31  C   UNL     1       0.897  10.812  20.382  0.00  0.00    +0.000 A 
ATOM     32  S   UNL     1       0.528  12.368  21.055  0.00  0.00    +0.000 S 
BRANCH  23  33
ATOM     33  C   UNL     1       1.146  14.565  19.417  0.00  0.00    +0.000 C 
BRANCH  33  35
ATOM     34  C   UNL     1      -0.328  16.340  18.353  0.00  0.00    +0.000 C 
ATOM     35  C   UNL     1      -0.266  15.132  19.276  0.00  0.00    +0.000 C 
ENDBRANCH  33  35
ENDBRANCH  23  33
ENDBRANCH  22  29
ENDBRANCH  21  22
ENDBRANCH  19  21
ENDBRANCH   1  19
TORSDOF 10
ENDMDL
