MODEL 1
REMARK VINA RESULT:      -9.0      0.000      0.000
REMARK  Name = 
REMARK  5 active torsions:
REMARK  status: ('A' for Active; 'I' for Inactive)
REMARK    1  A    between atoms: C_1  and  C_2
REMARK    2  A    between atoms: C_4  and  N_5
REMARK    3  A    between atoms: N_5  and  C_6
REMARK    4  A    between atoms: C_9  and  C_10
REMARK    5  A    between atoms: C_16  and  C_17
REMARK                            x       y       z     vdW  Elec       q    Type
REMARK                         _______ _______ _______ _____ _____    ______ ____
ROOT
ATOM      1  C   UNL     1       8.256   8.074  18.441  0.00  0.00    +0.000 C 
ATOM      2  C   UNL     1       7.605   6.903  17.748  0.00  0.00    +0.000 A 
ATOM      3  C   UNL     1       7.050   5.825  18.618  0.00  0.00    +0.000 A 
ATOM      4  C   UNL     1       6.488   4.767  18.002  0.00  0.00    +0.000 A 
ATOM      5  N   UNL     1       6.427   4.787  16.593  0.00  0.00    +0.000 N 
ATOM      6  N   UNL     1       5.898   3.855  15.754  0.00  0.00    +0.000 NA
ATOM      7  C   UNL     1       6.199   4.357  14.544  0.00  0.00    +0.000 A 
ATOM      8  N   UNL     1       6.845   5.569  14.577  0.00  0.00    +0.000 NA
ATOM      9  C   UNL     1       6.980   5.833  15.854  0.00  0.00    +0.000 A 
ATOM     10  N   UNL     1       7.574   6.905  16.449  0.00  0.00    +0.000 NA
ENDROOT
BRANCH   7  11
ATOM     11  C   UNL     1       5.907   3.685  13.278  0.00  0.00    +0.000 A 
ATOM     12  C   UNL     1       4.614   3.687  12.733  0.00  0.00    +0.000 A 
ATOM     13  C   UNL     1       4.348   3.019  11.535  0.00  0.00    +0.000 A 
ATOM     14  C   UNL     1       5.368   2.342  10.868  0.00  0.00    +0.000 A 
ATOM     15  C   UNL     1       6.656   2.333  11.395  0.00  0.00    +0.000 A 
ATOM     16  C   UNL     1       6.924   3.002  12.593  0.00  0.00    +0.000 A 
ENDBRANCH   7  11
BRANCH   4  17
ATOM     17  N   UNL     1       5.955   3.661  18.665  0.00  0.00    +0.000 N 
ATOM     18  H   UNL     1       6.461   3.464  19.535  0.00  0.00    +0.000 HD
BRANCH  17  19
ATOM     19  C   UNL     1       4.567   3.407  18.824  0.00  0.00    +0.000 A 
ATOM     20  C   UNL     1       3.999   2.326  18.140  0.00  0.00    +0.000 A 
ATOM     21  C   UNL     1       2.622   2.073  18.205  0.00  0.00    +0.000 A 
ATOM     22  C   UNL     1       1.773   2.907  18.945  0.00  0.00    +0.000 A 
ATOM     23  C   UNL     1       0.295   2.641  18.978  0.00  0.00    +0.000 C 
ATOM     24  C   UNL     1       2.338   3.988  19.630  0.00  0.00    +0.000 A 
ATOM     25 CL   UNL     1       1.375   5.073  20.569  0.00  0.00    +0.000 Cl
ATOM     26  C   UNL     1       3.716   4.230  19.567  0.00  0.00    +0.000 A 
ENDBRANCH  17  19
ENDBRANCH   4  17
TORSDOF 3
ENDMDL
MODEL 2
REMARK VINA RESULT:      -8.6      0.914      1.396
REMARK  Name = 
REMARK  5 active torsions:
REMARK  status: ('A' for Active; 'I' for Inactive)
REMARK    1  A    between atoms: C_1  and  C_2
REMARK    2  A    between atoms: C_4  and  N_5
REMARK    3  A    between atoms: N_5  and  C_6
REMARK    4  A    between atoms: C_9  and  C_10
REMARK    5  A    between atoms: C_16  and  C_17
REMARK                            x       y       z     vdW  Elec       q    Type
REMARK                         _______ _______ _______ _____ _____    ______ ____
ROOT
ATOM      1  C   UNL     1       8.365   8.150  18.439  0.00  0.00    +0.000 C 
ATOM      2  C   UNL     1       7.715   6.969  17.761  0.00  0.00    +0.000 A 
ATOM      3  C   UNL     1       7.158   5.903  18.646  0.00  0.00    +0.000 A 
ATOM      4  C   UNL     1       6.598   4.836  18.043  0.00  0.00    +0.000 A 
ATOM      5  N   UNL     1       6.539   4.837  16.634  0.00  0.00    +0.000 N 
ATOM      6  N   UNL     1       6.012   3.893  15.807  0.00  0.00    +0.000 NA
ATOM      7  C   UNL     1       6.316   4.377  14.591  0.00  0.00    +0.000 A 
ATOM      8  N   UNL     1       6.961   5.590  14.608  0.00  0.00    +0.000 NA
ATOM      9  C   UNL     1       7.094   5.873  15.882  0.00  0.00    +0.000 A 
ATOM     10  N   UNL     1       7.686   6.953  16.462  0.00  0.00    +0.000 NA
ENDROOT
BRANCH   7  11
ATOM     11  C   UNL     1       6.025   3.688  13.334  0.00  0.00    +0.000 A 
ATOM     12  C   UNL     1       7.038   3.056  12.598  0.00  0.00    +0.000 A 
ATOM     13  C   UNL     1       6.746   2.423  11.386  0.00  0.00    +0.000 A 
ATOM     14  C   UNL     1       5.441   2.415  10.897  0.00  0.00    +0.000 A 
ATOM     15  C   UNL     1       4.424   3.036  11.618  0.00  0.00    +0.000 A 
ATOM     16  C   UNL     1       4.715   3.668  12.830  0.00  0.00    +0.000 A 
ENDBRANCH   7  11
BRANCH   4  17
ATOM     17  N   UNL     1       6.064   3.740  18.721  0.00  0.00    +0.000 N 
ATOM     18  H   UNL     1       6.661   3.454  19.503  0.00  0.00    +0.000 HD
BRANCH  17  19
ATOM     19  C   UNL     1       4.692   3.589  19.056  0.00  0.00    +0.000 A 
ATOM     20  C   UNL     1       4.356   2.851  20.198  0.00  0.00    +0.000 A 
ATOM     21  C   UNL     1       3.017   2.611  20.536  0.00  0.00    +0.000 A 
ATOM     22  C   UNL     1       1.976   3.091  19.729  0.00  0.00    +0.000 A 
ATOM     23  C   UNL     1       0.548   2.797  20.087  0.00  0.00    +0.000 C 
ATOM     24  C   UNL     1       2.308   3.829  18.588  0.00  0.00    +0.000 A 
ATOM     25 CL   UNL     1       1.097   4.461  17.529  0.00  0.00    +0.000 Cl
ATOM     26  C   UNL     1       3.649   4.071  18.261  0.00  0.00    +0.000 A 
ENDBRANCH  17  19
ENDBRANCH   4  17
TORSDOF 3
ENDMDL
MODEL 3
REMARK VINA RESULT:      -8.6      0.849      1.301
REMARK  Name = 
REMARK  5 active torsions:
REMARK  status: ('A' for Active; 'I' for Inactive)
REMARK    1  A    between atoms: C_1  and  C_2
REMARK    2  A    between atoms: C_4  and  N_5
REMARK    3  A    between atoms: N_5  and  C_6
REMARK    4  A    between atoms: C_9  and  C_10
REMARK    5  A    between atoms: C_16  and  C_17
REMARK                            x       y       z     vdW  Elec       q    Type
REMARK                         _______ _______ _______ _____ _____    ______ ____
ROOT
ATOM      1  C   UNL     1       8.197   8.071  18.341  0.00  0.00    +0.000 C 
ATOM      2  C   UNL     1       7.563   6.887  17.654  0.00  0.00    +0.000 A 
ATOM      3  C   UNL     1       6.987   5.824  18.530  0.00  0.00    +0.000 A 
ATOM      4  C   UNL     1       6.441   4.754  17.920  0.00  0.00    +0.000 A 
ATOM      5  N   UNL     1       6.413   4.749  16.509  0.00  0.00    +0.000 N 
ATOM      6  N   UNL     1       5.905   3.801  15.675  0.00  0.00    +0.000 NA
ATOM      7  C   UNL     1       6.236   4.281  14.464  0.00  0.00    +0.000 A 
ATOM      8  N   UNL     1       6.880   5.494  14.490  0.00  0.00    +0.000 NA
ATOM      9  C   UNL     1       6.984   5.782  15.766  0.00  0.00    +0.000 A 
ATOM     10  N   UNL     1       7.563   6.865  16.354  0.00  0.00    +0.000 NA
ENDROOT
BRANCH   7  11
ATOM     11  C   UNL     1       5.973   3.586  13.204  0.00  0.00    +0.000 A 
ATOM     12  C   UNL     1       6.995   2.919  12.513  0.00  0.00    +0.000 A 
ATOM     13  C   UNL     1       6.731   2.281  11.297  0.00  0.00    +0.000 A 
ATOM     14  C   UNL     1       5.445   2.303  10.760  0.00  0.00    +0.000 A 
ATOM     15  C   UNL     1       4.420   2.959  11.435  0.00  0.00    +0.000 A 
ATOM     16  C   UNL     1       4.683   3.596  12.652  0.00  0.00    +0.000 A 
ENDBRANCH   7  11
BRANCH   4  17
ATOM     17  N   UNL     1       5.893   3.660  18.590  0.00  0.00    +0.000 N 
ATOM     18  H   UNL     1       6.450   3.405  19.412  0.00  0.00    +0.000 HD
BRANCH  17  19
ATOM     19  C   UNL     1       4.508   3.484  18.849  0.00  0.00    +0.000 A 
ATOM     20  C   UNL     1       3.589   3.819  17.847  0.00  0.00    +0.000 A 
ATOM     21  C   UNL     1       2.208   3.732  18.075  0.00  0.00    +0.000 A 
ATOM     22  C   UNL     1       1.710   3.321  19.319  0.00  0.00    +0.000 A 
ATOM     23  C   UNL     1       0.228   3.265  19.557  0.00  0.00    +0.000 C 
ATOM     24  C   UNL     1       2.626   2.986  20.322  0.00  0.00    +0.000 A 
ATOM     25 CL   UNL     1       2.111   2.471  21.889  0.00  0.00    +0.000 Cl
ATOM     26  C   UNL     1       4.004   3.068  20.085  0.00  0.00    +0.000 A 
ENDBRANCH  17  19
ENDBRANCH   4  17
TORSDOF 3
ENDMDL
MODEL 4
REMARK VINA RESULT:      -8.5      3.529      4.928
REMARK  Name = 
REMARK  5 active torsions:
REMARK  status: ('A' for Active; 'I' for Inactive)
REMARK    1  A    between atoms: C_1  and  C_2
REMARK    2  A    between atoms: C_4  and  N_5
REMARK    3  A    between atoms: N_5  and  C_6
REMARK    4  A    between atoms: C_9  and  C_10
REMARK    5  A    between atoms: C_16  and  C_17
REMARK                            x       y       z     vdW  Elec       q    Type
REMARK                         _______ _______ _______ _____ _____    ______ ____
ROOT
ATOM      1  C   UNL     1       2.286   3.062  20.567  0.00  0.00    +0.000 C 
ATOM      2  C   UNL     1       2.944   3.803  19.430  0.00  0.00    +0.000 A 
ATOM      3  C   UNL     1       2.778   5.287  19.403  0.00  0.00    +0.000 A 
ATOM      4  C   UNL     1       3.345   5.949  18.376  0.00  0.00    +0.000 A 
ATOM      5  N   UNL     1       4.087   5.196  17.442  0.00  0.00    +0.000 N 
ATOM      6  N   UNL     1       4.759   5.635  16.342  0.00  0.00    +0.000 NA
ATOM      7  C   UNL     1       5.190   4.486  15.795  0.00  0.00    +0.000 A 
ATOM      8  N   UNL     1       4.867   3.360  16.511  0.00  0.00    +0.000 NA
ATOM      9  C   UNL     1       4.183   3.808  17.537  0.00  0.00    +0.000 A 
ATOM     10  N   UNL     1       3.603   3.109  18.551  0.00  0.00    +0.000 NA
ENDROOT
BRANCH   7  11
ATOM     11  C   UNL     1       5.921   4.400  14.531  0.00  0.00    +0.000 A 
ATOM     12  C   UNL     1       7.097   5.134  14.317  0.00  0.00    +0.000 A 
ATOM     13  C   UNL     1       7.769   5.058  13.093  0.00  0.00    +0.000 A 
ATOM     14  C   UNL     1       7.274   4.250  12.072  0.00  0.00    +0.000 A 
ATOM     15  C   UNL     1       6.109   3.514  12.270  0.00  0.00    +0.000 A 
ATOM     16  C   UNL     1       5.438   3.588  13.494  0.00  0.00    +0.000 A 
ENDBRANCH   7  11
BRANCH   4  17
ATOM     17  N   UNL     1       3.255   7.328  18.184  0.00  0.00    +0.000 N 
ATOM     18  H   UNL     1       3.494   7.590  17.222  0.00  0.00    +0.000 HD
BRANCH  17  19
ATOM     19  C   UNL     1       2.205   8.145  18.679  0.00  0.00    +0.000 A 
ATOM     20  C   UNL     1       1.558   9.018  17.796  0.00  0.00    +0.000 A 
ATOM     21  C   UNL     1       0.564   9.897  18.246  0.00  0.00    +0.000 A 
ATOM     22  C   UNL     1       0.200   9.936  19.599  0.00  0.00    +0.000 A 
ATOM     23  C   UNL     1      -0.845  10.907  20.071  0.00  0.00    +0.000 C 
ATOM     24  C   UNL     1       0.843   9.065  20.485  0.00  0.00    +0.000 A 
ATOM     25 CL   UNL     1       0.466   9.040  22.171  0.00  0.00    +0.000 Cl
ATOM     26  C   UNL     1       1.831   8.184  20.026  0.00  0.00    +0.000 A 
ENDBRANCH  17  19
ENDBRANCH   4  17
TORSDOF 3
ENDMDL
MODEL 5
REMARK VINA RESULT:      -8.4      1.627      1.913
REMARK  Name = 
REMARK  5 active torsions:
REMARK  status: ('A' for Active; 'I' for Inactive)
REMARK    1  A    between atoms: C_1  and  C_2
REMARK    2  A    between atoms: C_4  and  N_5
REMARK    3  A    between atoms: N_5  and  C_6
REMARK    4  A    between atoms: C_9  and  C_10
REMARK    5  A    between atoms: C_16  and  C_17
REMARK                            x       y       z     vdW  Elec       q    Type
REMARK                         _______ _______ _______ _____ _____    ______ ____
ROOT
ATOM      1  C   UNL     1       7.986   7.808  18.208  0.00  0.00    +0.000 C 
ATOM      2  C   UNL     1       7.173   6.926  17.294  0.00  0.00    +0.000 A 
ATOM      3  C   UNL     1       5.750   6.684  17.676  0.00  0.00    +0.000 A 
ATOM      4  C   UNL     1       5.028   5.878  16.873  0.00  0.00    +0.000 A 
ATOM      5  N   UNL     1       5.657   5.371  15.717  0.00  0.00    +0.000 N 
ATOM      6  N   UNL     1       5.137   4.561  14.755  0.00  0.00    +0.000 NA
ATOM      7  C   UNL     1       6.201   4.337  13.965  0.00  0.00    +0.000 A 
ATOM      8  N   UNL     1       7.343   4.996  14.351  0.00  0.00    +0.000 NA
ATOM      9  C   UNL     1       6.998   5.640  15.440  0.00  0.00    +0.000 A 
ATOM     10  N   UNL     1       7.759   6.433  16.244  0.00  0.00    +0.000 NA
ENDROOT
BRANCH   7  11
ATOM     11  C   UNL     1       6.190   3.452  12.801  0.00  0.00    +0.000 A 
ATOM     12  C   UNL     1       4.987   3.003  12.237  0.00  0.00    +0.000 A 
ATOM     13  C   UNL     1       4.996   2.137  11.140  0.00  0.00    +0.000 A 
ATOM     14  C   UNL     1       6.206   1.712  10.593  0.00  0.00    +0.000 A 
ATOM     15  C   UNL     1       7.408   2.151  11.140  0.00  0.00    +0.000 A 
ATOM     16  C   UNL     1       7.400   3.018  12.237  0.00  0.00    +0.000 A 
ENDBRANCH   7  11
BRANCH   4  17
ATOM     17  N   UNL     1       3.699   5.522  17.106  0.00  0.00    +0.000 N 
ATOM     18  H   UNL     1       3.230   5.232  16.241  0.00  0.00    +0.000 HD
BRANCH  17  19
ATOM     19  C   UNL     1       3.253   4.739  18.203  0.00  0.00    +0.000 A 
ATOM     20  C   UNL     1       2.003   5.021  18.767  0.00  0.00    +0.000 A 
ATOM     21  C   UNL     1       1.546   4.327  19.896  0.00  0.00    +0.000 A 
ATOM     22  C   UNL     1       2.337   3.340  20.500  0.00  0.00    +0.000 A 
ATOM     23  C   UNL     1       1.845   2.629  21.729  0.00  0.00    +0.000 C 
ATOM     24  C   UNL     1       3.586   3.055  19.939  0.00  0.00    +0.000 A 
ATOM     25 CL   UNL     1       4.634   1.858  20.613  0.00  0.00    +0.000 Cl
ATOM     26  C   UNL     1       4.033   3.748  18.807  0.00  0.00    +0.000 A 
ENDBRANCH  17  19
ENDBRANCH   4  17
TORSDOF 3
ENDMDL
MODEL 6
REMARK VINA RESULT:      -8.4      3.687      5.503
REMARK  Name = 
REMARK  5 active torsions:
REMARK  status: ('A' for Active; 'I' for Inactive)
REMARK    1  A    between atoms: C_1  and  C_2
REMARK    2  A    between atoms: C_4  and  N_5
REMARK    3  A    between atoms: N_5  and  C_6
REMARK    4  A    between atoms: C_9  and  C_10
REMARK    5  A    between atoms: C_16  and  C_17
REMARK                            x       y       z     vdW  Elec       q    Type
REMARK                         _______ _______ _______ _____ _____    ______ ____
ROOT
ATOM      1  C   UNL     1       1.179   2.640  21.253  0.00  0.00    +0.000 C 
ATOM      2  C   UNL     1       2.047   3.457  20.330  0.00  0.00    +0.000 A 
ATOM      3  C   UNL     1       2.131   4.923  20.600  0.00  0.00    +0.000 A 
ATOM      4  C   UNL     1       2.886   5.660  19.763  0.00  0.00    +0.000 A 
ATOM      5  N   UNL     1       3.573   4.982  18.734  0.00  0.00    +0.000 N 
ATOM      6  N   UNL     1       4.401   5.498  17.785  0.00  0.00    +0.000 NA
ATOM      7  C   UNL     1       4.684   4.419  17.036  0.00  0.00    +0.000 A 
ATOM      8  N   UNL     1       4.118   3.251  17.487  0.00  0.00    +0.000 NA
ATOM      9  C   UNL     1       3.431   3.607  18.545  0.00  0.00    +0.000 A 
ATOM     10  N   UNL     1       2.656   2.840  19.362  0.00  0.00    +0.000 NA
ENDROOT
BRANCH   7  11
ATOM     11  C   UNL     1       5.499   4.450  15.822  0.00  0.00    +0.000 A 
ATOM     12  C   UNL     1       6.722   5.134  15.782  0.00  0.00    +0.000 A 
ATOM     13  C   UNL     1       7.475   5.175  14.604  0.00  0.00    +0.000 A 
ATOM     14  C   UNL     1       7.015   4.532  13.456  0.00  0.00    +0.000 A 
ATOM     15  C   UNL     1       5.803   3.847  13.481  0.00  0.00    +0.000 A 
ATOM     16  C   UNL     1       5.050   3.806  14.658  0.00  0.00    +0.000 A 
ENDBRANCH   7  11
BRANCH   4  17
ATOM     17  N   UNL     1       3.042   7.043  19.855  0.00  0.00    +0.000 N 
ATOM     18  H   UNL     1       3.815   7.374  19.269  0.00  0.00    +0.000 HD
BRANCH  17  19
ATOM     19  C   UNL     1       1.973   7.978  19.848  0.00  0.00    +0.000 A 
ATOM     20  C   UNL     1       1.692   8.670  18.663  0.00  0.00    +0.000 A 
ATOM     21  C   UNL     1       0.695   9.654  18.620  0.00  0.00    +0.000 A 
ATOM     22  C   UNL     1      -0.039   9.982  19.768  0.00  0.00    +0.000 A 
ATOM     23  C   UNL     1      -1.082  11.063  19.712  0.00  0.00    +0.000 C 
ATOM     24  C   UNL     1       0.238   9.292  20.953  0.00  0.00    +0.000 A 
ATOM     25 CL   UNL     1      -0.611   9.627  22.420  0.00  0.00    +0.000 Cl
ATOM     26  C   UNL     1       1.231   8.305  20.987  0.00  0.00    +0.000 A 
ENDBRANCH  17  19
ENDBRANCH   4  17
TORSDOF 3
ENDMDL
MODEL 7
REMARK VINA RESULT:      -8.3      1.616      2.242
REMARK  Name = 
REMARK  5 active torsions:
REMARK  status: ('A' for Active; 'I' for Inactive)
REMARK    1  A    between atoms: C_1  and  C_2
REMARK    2  A    between atoms: C_4  and  N_5
REMARK    3  A    between atoms: N_5  and  C_6
REMARK    4  A    between atoms: C_9  and  C_10
REMARK    5  A    between atoms: C_16  and  C_17
REMARK                            x       y       z     vdW  Elec       q    Type
REMARK                         _______ _______ _______ _____ _____    ______ ____
ROOT
ATOM      1  C   UNL     1       8.217   8.030  18.368  0.00  0.00    +0.000 C 
ATOM      2  C   UNL     1       7.314   7.244  17.452  0.00  0.00    +0.000 A 
ATOM      3  C   UNL     1       5.855   7.249  17.771  0.00  0.00    +0.000 A 
ATOM      4  C   UNL     1       5.049   6.528  16.968  0.00  0.00    +0.000 A 
ATOM      5  N   UNL     1       5.638   5.872  15.867  0.00  0.00    +0.000 N 
ATOM      6  N   UNL     1       5.037   5.107  14.915  0.00  0.00    +0.000 NA
ATOM      7  C   UNL     1       6.085   4.680  14.190  0.00  0.00    +0.000 A 
ATOM      8  N   UNL     1       7.300   5.168  14.605  0.00  0.00    +0.000 NA
ATOM      9  C   UNL     1       7.015   5.912  15.647  0.00  0.00    +0.000 A 
ATOM     10  N   UNL     1       7.858   6.613  16.454  0.00  0.00    +0.000 NA
ENDROOT
BRANCH   7  11
ATOM     11  C   UNL     1       5.983   3.751  13.064  0.00  0.00    +0.000 A 
ATOM     12  C   UNL     1       7.123   3.164  12.497  0.00  0.00    +0.000 A 
ATOM     13  C   UNL     1       7.008   2.299  11.405  0.00  0.00    +0.000 A 
ATOM     14  C   UNL     1       5.754   2.009  10.870  0.00  0.00    +0.000 A 
ATOM     15  C   UNL     1       4.613   2.582  11.424  0.00  0.00    +0.000 A 
ATOM     16  C   UNL     1       4.727   3.447  12.516  0.00  0.00    +0.000 A 
ENDBRANCH   7  11
BRANCH   4  17
ATOM     17  N   UNL     1       3.671   6.399  17.147  0.00  0.00    +0.000 N 
ATOM     18  H   UNL     1       3.179   6.341  16.250  0.00  0.00    +0.000 HD
BRANCH  17  19
ATOM     19  C   UNL     1       3.059   5.554  18.110  0.00  0.00    +0.000 A 
ATOM     20  C   UNL     1       2.564   6.125  19.288  0.00  0.00    +0.000 A 
ATOM     21  C   UNL     1       2.015   5.329  20.303  0.00  0.00    +0.000 A 
ATOM     22  C   UNL     1       1.960   3.935  20.170  0.00  0.00    +0.000 A 
ATOM     23  C   UNL     1       1.398   3.094  21.281  0.00  0.00    +0.000 C 
ATOM     24  C   UNL     1       2.453   3.361  18.994  0.00  0.00    +0.000 A 
ATOM     25 CL   UNL     1       2.432   1.652  18.738  0.00  0.00    +0.000 Cl
ATOM     26  C   UNL     1       2.994   4.163  17.981  0.00  0.00    +0.000 A 
ENDBRANCH  17  19
ENDBRANCH   4  17
TORSDOF 3
ENDMDL
MODEL 8
REMARK VINA RESULT:      -8.3      3.507      4.770
REMARK  Name = 
REMARK  5 active torsions:
REMARK  status: ('A' for Active; 'I' for Inactive)
REMARK    1  A    between atoms: C_1  and  C_2
REMARK    2  A    between atoms: C_4  and  N_5
REMARK    3  A    between atoms: N_5  and  C_6
REMARK    4  A    between atoms: C_9  and  C_10
REMARK    5  A    between atoms: C_16  and  C_17
REMARK                            x       y       z     vdW  Elec       q    Type
REMARK                         _______ _______ _______ _____ _____    ______ ____
ROOT
ATOM      1  C   UNL     1       2.932   3.351  20.775  0.00  0.00    +0.000 C 
ATOM      2  C   UNL     1       3.423   4.039  19.526  0.00  0.00    +0.000 A 
ATOM      3  C   UNL     1       3.068   5.481  19.364  0.00  0.00    +0.000 A 
ATOM      4  C   UNL     1       3.485   6.093  18.239  0.00  0.00    +0.000 A 
ATOM      5  N   UNL     1       4.261   5.339  17.333  0.00  0.00    +0.000 N 
ATOM      6  N   UNL     1       4.807   5.735  16.151  0.00  0.00    +0.000 NA
ATOM      7  C   UNL     1       5.350   4.595  15.692  0.00  0.00    +0.000 A 
ATOM      8  N   UNL     1       5.214   3.521  16.537  0.00  0.00    +0.000 NA
ATOM      9  C   UNL     1       4.540   3.991  17.559  0.00  0.00    +0.000 A 
ATOM     10  N   UNL     1       4.113   3.340  18.676  0.00  0.00    +0.000 NA
ENDROOT
BRANCH   7  11
ATOM     11  C   UNL     1       6.011   4.463  14.394  0.00  0.00    +0.000 A 
ATOM     12  C   UNL     1       5.497   3.624  13.395  0.00  0.00    +0.000 A 
ATOM     13  C   UNL     1       6.157   3.491  12.169  0.00  0.00    +0.000 A 
ATOM     14  C   UNL     1       7.336   4.194  11.929  0.00  0.00    +0.000 A 
ATOM     15  C   UNL     1       7.858   5.032  12.910  0.00  0.00    +0.000 A 
ATOM     16  C   UNL     1       7.198   5.167  14.135  0.00  0.00    +0.000 A 
ENDBRANCH   7  11
BRANCH   4  17
ATOM     17  N   UNL     1       3.209   7.422  17.917  0.00  0.00    +0.000 N 
ATOM     18  H   UNL     1       3.220   7.574  16.903  0.00  0.00    +0.000 HD
BRANCH  17  19
ATOM     19  C   UNL     1       2.196   8.207  18.529  0.00  0.00    +0.000 A 
ATOM     20  C   UNL     1       1.506   9.143  17.749  0.00  0.00    +0.000 A 
ATOM     21  C   UNL     1       0.548   9.992  18.318  0.00  0.00    +0.000 A 
ATOM     22  C   UNL     1       0.264   9.937  19.690  0.00  0.00    +0.000 A 
ATOM     23  C   UNL     1      -0.742  10.877  20.290  0.00  0.00    +0.000 C 
ATOM     24  C   UNL     1       0.951   9.003  20.472  0.00  0.00    +0.000 A 
ATOM     25 CL   UNL     1       0.673   8.860  22.172  0.00  0.00    +0.000 Cl
ATOM     26  C   UNL     1       1.902   8.152  19.895  0.00  0.00    +0.000 A 
ENDBRANCH  17  19
ENDBRANCH   4  17
TORSDOF 3
ENDMDL
MODEL 9
REMARK VINA RESULT:      -8.2      1.583      1.936
REMARK  Name = 
REMARK  5 active torsions:
REMARK  status: ('A' for Active; 'I' for Inactive)
REMARK    1  A    between atoms: C_1  and  C_2
REMARK    2  A    between atoms: C_4  and  N_5
REMARK    3  A    between atoms: N_5  and  C_6
REMARK    4  A    between atoms: C_9  and  C_10
REMARK    5  A    between atoms: C_16  and  C_17
REMARK                            x       y       z     vdW  Elec       q    Type
REMARK                         _______ _______ _______ _____ _____    ______ ____
ROOT
ATOM      1  C   UNL     1       8.153   7.541  18.546  0.00  0.00    +0.000 C 
ATOM      2  C   UNL     1       7.244   6.832  17.574  0.00  0.00    +0.000 A 
ATOM      3  C   UNL     1       5.783   6.847  17.879  0.00  0.00    +0.000 A 
ATOM      4  C   UNL     1       4.970   6.195  17.024  0.00  0.00    +0.000 A 
ATOM      5  N   UNL     1       5.559   5.596  15.891  0.00  0.00    +0.000 N 
ATOM      6  N   UNL     1       4.953   4.904  14.887  0.00  0.00    +0.000 NA
ATOM      7  C   UNL     1       6.000   4.501  14.147  0.00  0.00    +0.000 A 
ATOM      8  N   UNL     1       7.220   4.937  14.604  0.00  0.00    +0.000 NA
ATOM      9  C   UNL     1       6.939   5.621  15.687  0.00  0.00    +0.000 A 
ATOM     10  N   UNL     1       7.787   6.253  16.544  0.00  0.00    +0.000 NA
ENDROOT
BRANCH   7  11
ATOM     11  C   UNL     1       5.891   3.646  12.965  0.00  0.00    +0.000 A 
ATOM     12  C   UNL     1       4.651   3.381  12.368  0.00  0.00    +0.000 A 
ATOM     13  C   UNL     1       4.563   2.541  11.253  0.00  0.00    +0.000 A 
ATOM     14  C   UNL     1       5.714   1.959  10.724  0.00  0.00    +0.000 A 
ATOM     15  C   UNL     1       6.953   2.214  11.304  0.00  0.00    +0.000 A 
ATOM     16  C   UNL     1       7.041   3.055  12.418  0.00  0.00    +0.000 A 
ENDBRANCH   7  11
BRANCH   4  17
ATOM     17  N   UNL     1       3.589   6.083  17.182  0.00  0.00    +0.000 N 
ATOM     18  H   UNL     1       3.117   5.949  16.282  0.00  0.00    +0.000 HD
BRANCH  17  19
ATOM     19  C   UNL     1       2.952   5.323  18.199  0.00  0.00    +0.000 A 
ATOM     20  C   UNL     1       3.182   5.664  19.537  0.00  0.00    +0.000 A 
ATOM     21  C   UNL     1       2.635   4.905  20.580  0.00  0.00    +0.000 A 
ATOM     22  C   UNL     1       1.855   3.772  20.312  0.00  0.00    +0.000 A 
ATOM     23  C   UNL     1       1.304   2.950  21.442  0.00  0.00    +0.000 C 
ATOM     24  C   UNL     1       1.623   3.428  18.976  0.00  0.00    +0.000 A 
ATOM     25 CL   UNL     1       0.676   2.049  18.542  0.00  0.00    +0.000 Cl
ATOM     26  C   UNL     1       2.165   4.197  17.937  0.00  0.00    +0.000 A 
ENDBRANCH  17  19
ENDBRANCH   4  17
TORSDOF 3
ENDMDL
