MODEL 1
REMARK VINA RESULT:      -9.3      0.000      0.000
REMARK  Name = 
REMARK  5 active torsions:
REMARK  status: ('A' for Active; 'I' for Inactive)
REMARK    1  A    between atoms: C_1  and  C_2
REMARK    2  A    between atoms: C_2  and  N_3
REMARK    3  A    between atoms: C_12  and  C_13
REMARK    4  A    between atoms: C_15  and  C_16
REMARK    5  A    between atoms: C_23  and  C_24
REMARK                            x       y       z     vdW  Elec       q    Type
REMARK                         _______ _______ _______ _____ _____    ______ ____
ROOT
ATOM      1  C   UNL     1       1.258   9.287  18.197  0.00  0.00    +0.000 A 
ATOM      2  N   UNL     1       1.593  10.443  18.744  0.00  0.00    +0.000 NA
ATOM      3  C   UNL     1       0.456  11.203  18.750  0.00  0.00    +0.000 A 
ATOM      4  C   UNL     1      -0.608  10.542  18.143  0.00  0.00    +0.000 A 
ATOM      5  N   UNL     1      -0.064   9.323  17.827  0.00  0.00    +0.000 N 
ATOM      6  H   UNL     1      -0.544   8.570  17.346  0.00  0.00    +0.000 HD
ENDROOT
BRANCH   1  16
ATOM      7  N   UNL     1       4.392   4.679  17.461  0.00  0.00    +0.000 N 
ATOM      8  C   UNL     1       3.551   3.692  17.940  0.00  0.00    +0.000 A 
ATOM      9  C   UNL     1       3.736   2.305  18.066  0.00  0.00    +0.000 A 
ATOM     10  C   UNL     1       2.666   1.537  18.534  0.00  0.00    +0.000 A 
ATOM     11  C   UNL     1       1.458   2.131  18.881  0.00  0.00    +0.000 A 
ATOM     12  C   UNL     1       1.296   3.518  18.784  0.00  0.00    +0.000 A 
ATOM     13  C   UNL     1       2.358   4.314  18.305  0.00  0.00    +0.000 A 
ATOM     14  C   UNL     1       2.522   5.717  18.085  0.00  0.00    +0.000 A 
ATOM     15  C   UNL     1       1.680   6.833  18.290  0.00  0.00    +0.000 A 
ATOM     16  C   UNL     1       2.125   8.128  17.982  0.00  0.00    +0.000 A 
ATOM     17  C   UNL     1       3.416   8.301  17.474  0.00  0.00    +0.000 A 
ATOM     18  C   UNL     1       4.270   7.212  17.254  0.00  0.00    +0.000 A 
ATOM     19  C   UNL     1       3.801   5.924  17.567  0.00  0.00    +0.000 A 
BRANCH   7  21
ATOM     20  C   UNL     1       5.617   4.239  15.360  0.00  0.00    +0.000 C 
ATOM     21  C   UNL     1       5.694   4.419  16.865  0.00  0.00    +0.000 C 
ENDBRANCH   7  21
ENDBRANCH   1  16
BRANCH   3  22
ATOM     22  C   UNL     1       0.426  12.543  19.331  0.00  0.00    +0.000 A 
ATOM     23  C   UNL     1       0.455  12.694  20.723  0.00  0.00    +0.000 A 
ATOM     24  C   UNL     1       0.391  13.972  21.283  0.00  0.00    +0.000 A 
ATOM     25  C   UNL     1       0.328  15.092  20.455  0.00  0.00    +0.000 A 
ATOM     26  F   UNL     1       0.248  16.308  21.001  0.00  0.00    +0.000 F 
ATOM     27  C   UNL     1       0.331  14.954  19.075  0.00  0.00    +0.000 A 
ATOM     28  C   UNL     1       0.342  13.689  18.520  0.00  0.00    +0.000 A 
ENDBRANCH   3  22
BRANCH   4  29
ATOM     29  C   UNL     1      -1.976  10.929  17.798  0.00  0.00    +0.000 A 
ATOM     30  C   UNL     1      -2.823  11.506  18.765  0.00  0.00    +0.000 A 
ATOM     31  C   UNL     1      -4.142  11.835  18.476  0.00  0.00    +0.000 A 
ATOM     32  C   UNL     1      -4.608  11.644  17.185  0.00  0.00    +0.000 A 
ATOM     33  F   UNL     1      -5.865  12.001  16.883  0.00  0.00    +0.000 F 
ATOM     34  C   UNL     1      -3.791  11.101  16.197  0.00  0.00    +0.000 A 
ATOM     35  C   UNL     1      -2.480  10.727  16.509  0.00  0.00    +0.000 A 
ENDBRANCH   4  29
TORSDOF 4
ENDMDL
MODEL 2
REMARK VINA RESULT:      -9.3      0.060      1.174
REMARK  Name = 
REMARK  5 active torsions:
REMARK  status: ('A' for Active; 'I' for Inactive)
REMARK    1  A    between atoms: C_1  and  C_2
REMARK    2  A    between atoms: C_2  and  N_3
REMARK    3  A    between atoms: C_12  and  C_13
REMARK    4  A    between atoms: C_15  and  C_16
REMARK    5  A    between atoms: C_23  and  C_24
REMARK                            x       y       z     vdW  Elec       q    Type
REMARK                         _______ _______ _______ _____ _____    ______ ____
ROOT
ATOM      1  C   UNL     1       1.278   9.282  18.203  0.00  0.00    +0.000 A 
ATOM      2  N   UNL     1       1.610  10.437  18.754  0.00  0.00    +0.000 NA
ATOM      3  C   UNL     1       0.469  11.190  18.772  0.00  0.00    +0.000 A 
ATOM      4  C   UNL     1      -0.595  10.527  18.169  0.00  0.00    +0.000 A 
ATOM      5  N   UNL     1      -0.047   9.312  17.843  0.00  0.00    +0.000 N 
ATOM      6  H   UNL     1      -0.526   8.559  17.361  0.00  0.00    +0.000 HD
ENDROOT
BRANCH   1  16
ATOM      7  N   UNL     1       4.432   4.696  17.419  0.00  0.00    +0.000 N 
ATOM      8  C   UNL     1       3.599   3.701  17.893  0.00  0.00    +0.000 A 
ATOM      9  C   UNL     1       3.790   2.314  18.007  0.00  0.00    +0.000 A 
ATOM     10  C   UNL     1       2.726   1.537  18.473  0.00  0.00    +0.000 A 
ATOM     11  C   UNL     1       1.516   2.122  18.829  0.00  0.00    +0.000 A 
ATOM     12  C   UNL     1       1.347   3.509  18.743  0.00  0.00    +0.000 A 
ATOM     13  C   UNL     1       2.403   4.314  18.268  0.00  0.00    +0.000 A 
ATOM     14  C   UNL     1       2.559   5.719  18.058  0.00  0.00    +0.000 A 
ATOM     15  C   UNL     1       1.713   6.829  18.275  0.00  0.00    +0.000 A 
ATOM     16  C   UNL     1       2.151   8.129  17.976  0.00  0.00    +0.000 A 
ATOM     17  C   UNL     1       3.438   8.313  17.465  0.00  0.00    +0.000 A 
ATOM     18  C   UNL     1       4.297   7.230  17.233  0.00  0.00    +0.000 A 
ATOM     19  C   UNL     1       3.836   5.937  17.537  0.00  0.00    +0.000 A 
BRANCH   7  21
ATOM     20  C   UNL     1       5.649   4.245  15.316  0.00  0.00    +0.000 C 
ATOM     21  C   UNL     1       5.734   4.447  16.817  0.00  0.00    +0.000 C 
ENDBRANCH   7  21
ENDBRANCH   1  16
BRANCH   3  22
ATOM     22  C   UNL     1       0.435  12.527  19.361  0.00  0.00    +0.000 A 
ATOM     23  C   UNL     1       0.385  13.650  18.526  0.00  0.00    +0.000 A 
ATOM     24  C   UNL     1       0.388  14.930  19.085  0.00  0.00    +0.000 A 
ATOM     25  C   UNL     1       0.410  15.084  20.471  0.00  0.00    +0.000 A 
ATOM     26  F   UNL     1       0.432  16.312  20.995  0.00  0.00    +0.000 F 
ATOM     27  C   UNL     1       0.427  13.977  21.306  0.00  0.00    +0.000 A 
ATOM     28  C   UNL     1       0.477  12.712  20.755  0.00  0.00    +0.000 A 
ENDBRANCH   3  22
BRANCH   4  29
ATOM     29  C   UNL     1      -1.968  10.907  17.836  0.00  0.00    +0.000 A 
ATOM     30  C   UNL     1      -2.476  10.697  16.539  0.00  0.00    +0.000 A 
ATOM     31  C   UNL     1      -3.759  11.095  16.185  0.00  0.00    +0.000 A 
ATOM     32  C   UNL     1      -4.574  11.656  17.155  0.00  0.00    +0.000 A 
ATOM     33  F   UNL     1      -5.830  12.003  16.836  0.00  0.00    +0.000 F 
ATOM     34  C   UNL     1      -4.115  11.855  18.454  0.00  0.00    +0.000 A 
ATOM     35  C   UNL     1      -2.805  11.496  18.790  0.00  0.00    +0.000 A 
ENDBRANCH   4  29
TORSDOF 4
ENDMDL
MODEL 3
REMARK VINA RESULT:      -9.2      1.084      1.420
REMARK  Name = 
REMARK  5 active torsions:
REMARK  status: ('A' for Active; 'I' for Inactive)
REMARK    1  A    between atoms: C_1  and  C_2
REMARK    2  A    between atoms: C_2  and  N_3
REMARK    3  A    between atoms: C_12  and  C_13
REMARK    4  A    between atoms: C_15  and  C_16
REMARK    5  A    between atoms: C_23  and  C_24
REMARK                            x       y       z     vdW  Elec       q    Type
REMARK                         _______ _______ _______ _____ _____    ______ ____
ROOT
ATOM      1  C   UNL     1       1.278   9.419  18.527  0.00  0.00    +0.000 A 
ATOM      2  N   UNL     1       1.581  10.613  19.005  0.00  0.00    +0.000 NA
ATOM      3  C   UNL     1       0.440  11.361  18.909  0.00  0.00    +0.000 A 
ATOM      4  C   UNL     1      -0.592  10.650  18.305  0.00  0.00    +0.000 A 
ATOM      5  N   UNL     1      -0.027   9.417  18.099  0.00  0.00    +0.000 N 
ATOM      6  H   UNL     1      -0.482   8.628  17.651  0.00  0.00    +0.000 HD
ENDROOT
BRANCH   1  16
ATOM      7  N   UNL     1       4.528   4.836  18.355  0.00  0.00    +0.000 N 
ATOM      8  C   UNL     1       3.998   4.081  19.383  0.00  0.00    +0.000 A 
ATOM      9  C   UNL     1       4.369   2.824  19.890  0.00  0.00    +0.000 A 
ATOM     10  C   UNL     1       3.593   2.270  20.913  0.00  0.00    +0.000 A 
ATOM     11  C   UNL     1       2.494   2.951  21.425  0.00  0.00    +0.000 A 
ATOM     12  C   UNL     1       2.153   4.217  20.935  0.00  0.00    +0.000 A 
ATOM     13  C   UNL     1       2.915   4.793  19.897  0.00  0.00    +0.000 A 
ATOM     14  C   UNL     1       2.841   6.031  19.185  0.00  0.00    +0.000 A 
ATOM     15  C   UNL     1       1.984   7.150  19.278  0.00  0.00    +0.000 A 
ATOM     16  C   UNL     1       2.161   8.256  18.431  0.00  0.00    +0.000 A 
ATOM     17  C   UNL     1       3.199   8.237  17.496  0.00  0.00    +0.000 A 
ATOM     18  C   UNL     1       4.060   7.138  17.377  0.00  0.00    +0.000 A 
ATOM     19  C   UNL     1       3.862   6.042  18.234  0.00  0.00    +0.000 A 
BRANCH   7  21
ATOM     20  C   UNL     1       6.966   4.843  17.951  0.00  0.00    +0.000 C 
ATOM     21  C   UNL     1       5.600   4.381  17.481  0.00  0.00    +0.000 C 
ENDBRANCH   7  21
ENDBRANCH   1  16
BRANCH   3  22
ATOM     22  C   UNL     1       0.376  12.738  19.394  0.00  0.00    +0.000 A 
ATOM     23  C   UNL     1       0.204  13.786  18.481  0.00  0.00    +0.000 A 
ATOM     24  C   UNL     1       0.177  15.106  18.937  0.00  0.00    +0.000 A 
ATOM     25  C   UNL     1       0.293  15.372  20.301  0.00  0.00    +0.000 A 
ATOM     26  F   UNL     1       0.285  16.639  20.725  0.00  0.00    +0.000 F 
ATOM     27  C   UNL     1       0.432  14.340  21.215  0.00  0.00    +0.000 A 
ATOM     28  C   UNL     1       0.510  13.037  20.761  0.00  0.00    +0.000 A 
ENDBRANCH   3  22
BRANCH   4  29
ATOM     29  C   UNL     1      -1.946  10.999  17.875  0.00  0.00    +0.000 A 
ATOM     30  C   UNL     1      -2.850  11.602  18.772  0.00  0.00    +0.000 A 
ATOM     31  C   UNL     1      -4.156  11.897  18.404  0.00  0.00    +0.000 A 
ATOM     32  C   UNL     1      -4.554  11.644  17.101  0.00  0.00    +0.000 A 
ATOM     33  F   UNL     1      -5.799  11.967  16.721  0.00  0.00    +0.000 F 
ATOM     34  C   UNL     1      -3.680  11.073  16.179  0.00  0.00    +0.000 A 
ATOM     35  C   UNL     1      -2.381  10.734  16.572  0.00  0.00    +0.000 A 
ENDBRANCH   4  29
TORSDOF 4
ENDMDL
MODEL 4
REMARK VINA RESULT:      -9.2      2.310      3.871
REMARK  Name = 
REMARK  5 active torsions:
REMARK  status: ('A' for Active; 'I' for Inactive)
REMARK    1  A    between atoms: C_1  and  C_2
REMARK    2  A    between atoms: C_2  and  N_3
REMARK    3  A    between atoms: C_12  and  C_13
REMARK    4  A    between atoms: C_15  and  C_16
REMARK    5  A    between atoms: C_23  and  C_24
REMARK                            x       y       z     vdW  Elec       q    Type
REMARK                         _______ _______ _______ _____ _____    ______ ____
ROOT
ATOM      1  C   UNL     1       1.110   9.899  19.380  0.00  0.00    +0.000 A 
ATOM      2  N   UNL     1       0.075  10.003  20.196  0.00  0.00    +0.000 NA
ATOM      3  C   UNL     1      -0.243  11.333  20.238  0.00  0.00    +0.000 A 
ATOM      4  C   UNL     1       0.641  12.097  19.482  0.00  0.00    +0.000 A 
ATOM      5  N   UNL     1       1.469  11.148  18.937  0.00  0.00    +0.000 N 
ATOM      6  H   UNL     1       2.263  11.335  18.334  0.00  0.00    +0.000 HD
ENDROOT
BRANCH   1  16
ATOM      7  N   UNL     1       3.700   5.074  18.111  0.00  0.00    +0.000 N 
ATOM      8  C   UNL     1       3.396   4.298  19.213  0.00  0.00    +0.000 A 
ATOM      9  C   UNL     1       3.760   2.981  19.543  0.00  0.00    +0.000 A 
ATOM     10  C   UNL     1       3.241   2.426  20.715  0.00  0.00    +0.000 A 
ATOM     11  C   UNL     1       2.400   3.163  21.543  0.00  0.00    +0.000 A 
ATOM     12  C   UNL     1       2.070   4.485  21.222  0.00  0.00    +0.000 A 
ATOM     13  C   UNL     1       2.574   5.064  20.039  0.00  0.00    +0.000 A 
ATOM     14  C   UNL     1       2.436   6.350  19.430  0.00  0.00    +0.000 A 
ATOM     15  C   UNL     1       1.758   7.530  19.807  0.00  0.00    +0.000 A 
ATOM     16  C   UNL     1       1.808   8.673  18.992  0.00  0.00    +0.000 A 
ATOM     17  C   UNL     1       2.545   8.630  17.805  0.00  0.00    +0.000 A 
ATOM     18  C   UNL     1       3.222   7.471  17.403  0.00  0.00    +0.000 A 
ATOM     19  C   UNL     1       3.154   6.339  18.233  0.00  0.00    +0.000 A 
BRANCH   7  21
ATOM     20  C   UNL     1       5.937   4.787  17.101  0.00  0.00    +0.000 C 
ATOM     21  C   UNL     1       4.440   4.590  16.955  0.00  0.00    +0.000 C 
ENDBRANCH   7  21
ENDBRANCH   1  16
BRANCH   3  22
ATOM     22  C   UNL     1      -1.381  11.831  21.006  0.00  0.00    +0.000 A 
ATOM     23  C   UNL     1      -1.328  11.822  22.406  0.00  0.00    +0.000 A 
ATOM     24  C   UNL     1      -2.428  12.265  23.144  0.00  0.00    +0.000 A 
ATOM     25  C   UNL     1      -3.561  12.742  22.485  0.00  0.00    +0.000 A 
ATOM     26  F   UNL     1      -4.614  13.146  23.200  0.00  0.00    +0.000 F 
ATOM     27  C   UNL     1      -3.610  12.785  21.100  0.00  0.00    +0.000 A 
ATOM     28  C   UNL     1      -2.544  12.299  20.368  0.00  0.00    +0.000 A 
ENDBRANCH   3  22
BRANCH   4  29
ATOM     29  C   UNL     1       0.816  13.535  19.275  0.00  0.00    +0.000 A 
ATOM     30  C   UNL     1       2.046  14.156  19.567  0.00  0.00    +0.000 A 
ATOM     31  C   UNL     1       2.222  15.528  19.427  0.00  0.00    +0.000 A 
ATOM     32  C   UNL     1       1.174  16.285  18.929  0.00  0.00    +0.000 A 
ATOM     33  F   UNL     1       1.347  17.603  18.747  0.00  0.00    +0.000 F 
ATOM     34  C   UNL     1      -0.048  15.701  18.605  0.00  0.00    +0.000 A 
ATOM     35  C   UNL     1      -0.232  14.327  18.795  0.00  0.00    +0.000 A 
ENDBRANCH   4  29
TORSDOF 4
ENDMDL
MODEL 5
REMARK VINA RESULT:      -9.1      1.067      1.406
REMARK  Name = 
REMARK  5 active torsions:
REMARK  status: ('A' for Active; 'I' for Inactive)
REMARK    1  A    between atoms: C_1  and  C_2
REMARK    2  A    between atoms: C_2  and  N_3
REMARK    3  A    between atoms: C_12  and  C_13
REMARK    4  A    between atoms: C_15  and  C_16
REMARK    5  A    between atoms: C_23  and  C_24
REMARK                            x       y       z     vdW  Elec       q    Type
REMARK                         _______ _______ _______ _____ _____    ______ ____
ROOT
ATOM      1  C   UNL     1       1.290   9.380  18.535  0.00  0.00    +0.000 A 
ATOM      2  N   UNL     1       1.592  10.571  19.021  0.00  0.00    +0.000 NA
ATOM      3  C   UNL     1       0.447  11.315  18.938  0.00  0.00    +0.000 A 
ATOM      4  C   UNL     1      -0.586  10.604  18.336  0.00  0.00    +0.000 A 
ATOM      5  N   UNL     1      -0.018   9.375  18.117  0.00  0.00    +0.000 N 
ATOM      6  H   UNL     1      -0.472   8.588  17.666  0.00  0.00    +0.000 HD
ENDROOT
BRANCH   1  16
ATOM      7  N   UNL     1       4.560   4.813  18.305  0.00  0.00    +0.000 N 
ATOM      8  C   UNL     1       4.045   4.050  19.336  0.00  0.00    +0.000 A 
ATOM      9  C   UNL     1       4.427   2.793  19.833  0.00  0.00    +0.000 A 
ATOM     10  C   UNL     1       3.666   2.231  20.861  0.00  0.00    +0.000 A 
ATOM     11  C   UNL     1       2.570   2.904  21.389  0.00  0.00    +0.000 A 
ATOM     12  C   UNL     1       2.217   4.170  20.909  0.00  0.00    +0.000 A 
ATOM     13  C   UNL     1       2.965   4.756  19.865  0.00  0.00    +0.000 A 
ATOM     14  C   UNL     1       2.877   5.996  19.160  0.00  0.00    +0.000 A 
ATOM     15  C   UNL     1       2.016   7.111  19.268  0.00  0.00    +0.000 A 
ATOM     16  C   UNL     1       2.178   8.221  18.424  0.00  0.00    +0.000 A 
ATOM     17  C   UNL     1       3.206   8.212  17.477  0.00  0.00    +0.000 A 
ATOM     18  C   UNL     1       4.071   7.118  17.344  0.00  0.00    +0.000 A 
ATOM     19  C   UNL     1       3.888   6.016  18.197  0.00  0.00    +0.000 A 
BRANCH   7  21
ATOM     20  C   UNL     1       6.999   4.784  17.906  0.00  0.00    +0.000 C 
ATOM     21  C   UNL     1       5.624   4.368  17.418  0.00  0.00    +0.000 C 
ENDBRANCH   7  21
ENDBRANCH   1  16
BRANCH   3  22
ATOM     22  C   UNL     1       0.381  12.688  19.434  0.00  0.00    +0.000 A 
ATOM     23  C   UNL     1       0.272  12.923  20.810  0.00  0.00    +0.000 A 
ATOM     24  C   UNL     1       0.173  14.232  21.284  0.00  0.00    +0.000 A 
ATOM     25  C   UNL     1       0.213  15.301  20.389  0.00  0.00    +0.000 A 
ATOM     26  F   UNL     1       0.099  16.549  20.851  0.00  0.00    +0.000 F 
ATOM     27  C   UNL     1       0.352  15.080  19.028  0.00  0.00    +0.000 A 
ATOM     28  C   UNL     1       0.398  13.784  18.552  0.00  0.00    +0.000 A 
ENDBRANCH   3  22
BRANCH   4  29
ATOM     29  C   UNL     1      -1.945  10.950  17.919  0.00  0.00    +0.000 A 
ATOM     30  C   UNL     1      -2.400  10.636  16.623  0.00  0.00    +0.000 A 
ATOM     31  C   UNL     1      -3.668  10.999  16.187  0.00  0.00    +0.000 A 
ATOM     32  C   UNL     1      -4.522  11.630  17.076  0.00  0.00    +0.000 A 
ATOM     33  F   UNL     1      -5.765  11.944  16.680  0.00  0.00    +0.000 F 
ATOM     34  C   UNL     1      -4.117  11.933  18.373  0.00  0.00    +0.000 A 
ATOM     35  C   UNL     1      -2.822  11.608  18.789  0.00  0.00    +0.000 A 
ENDBRANCH   4  29
TORSDOF 4
ENDMDL
MODEL 6
REMARK VINA RESULT:      -9.1      2.348      3.535
REMARK  Name = 
REMARK  5 active torsions:
REMARK  status: ('A' for Active; 'I' for Inactive)
REMARK    1  A    between atoms: C_1  and  C_2
REMARK    2  A    between atoms: C_2  and  N_3
REMARK    3  A    between atoms: C_12  and  C_13
REMARK    4  A    between atoms: C_15  and  C_16
REMARK    5  A    between atoms: C_23  and  C_24
REMARK                            x       y       z     vdW  Elec       q    Type
REMARK                         _______ _______ _______ _____ _____    ______ ____
ROOT
ATOM      1  C   UNL     1       1.081   9.532  19.935  0.00  0.00    +0.000 A 
ATOM      2  N   UNL     1       1.483  10.665  19.386  0.00  0.00    +0.000 NA
ATOM      3  C   UNL     1       0.659  11.639  19.881  0.00  0.00    +0.000 A 
ATOM      4  C   UNL     1      -0.321  11.109  20.714  0.00  0.00    +0.000 A 
ATOM      5  N   UNL     1      -0.005   9.775  20.740  0.00  0.00    +0.000 N 
ATOM      6  H   UNL     1      -0.522   9.057  21.236  0.00  0.00    +0.000 HD
ENDROOT
BRANCH   1  16
ATOM      7  N   UNL     1       3.422   4.516  18.957  0.00  0.00    +0.000 N 
ATOM      8  C   UNL     1       4.126   4.760  17.794  0.00  0.00    +0.000 A 
ATOM      9  C   UNL     1       4.916   3.913  16.999  0.00  0.00    +0.000 A 
ATOM     10  C   UNL     1       5.570   4.465  15.894  0.00  0.00    +0.000 A 
ATOM     11  C   UNL     1       5.431   5.812  15.581  0.00  0.00    +0.000 A 
ATOM     12  C   UNL     1       4.615   6.640  16.360  0.00  0.00    +0.000 A 
ATOM     13  C   UNL     1       3.951   6.109  17.486  0.00  0.00    +0.000 A 
ATOM     14  C   UNL     1       3.071   6.661  18.468  0.00  0.00    +0.000 A 
ATOM     15  C   UNL     1       2.520   7.948  18.659  0.00  0.00    +0.000 A 
ATOM     16  C   UNL     1       1.657   8.201  19.736  0.00  0.00    +0.000 A 
ATOM     17  C   UNL     1       1.344   7.162  20.616  0.00  0.00    +0.000 A 
ATOM     18  C   UNL     1       1.880   5.878  20.455  0.00  0.00    +0.000 A 
ATOM     19  C   UNL     1       2.745   5.648  19.371  0.00  0.00    +0.000 A 
BRANCH   7  21
ATOM     20  C   UNL     1       2.337   2.315  19.248  0.00  0.00    +0.000 C 
ATOM     21  C   UNL     1       3.452   3.251  19.675  0.00  0.00    +0.000 C 
ENDBRANCH   7  21
ENDBRANCH   1  16
BRANCH   3  22
ATOM     22  C   UNL     1       0.835  13.048  19.535  0.00  0.00    +0.000 A 
ATOM     23  C   UNL     1       2.000  13.718  19.930  0.00  0.00    +0.000 A 
ATOM     24  C   UNL     1       2.155  15.073  19.631  0.00  0.00    +0.000 A 
ATOM     25  C   UNL     1       1.164  15.746  18.916  0.00  0.00    +0.000 A 
ATOM     26  F   UNL     1       1.313  17.046  18.652  0.00  0.00    +0.000 F 
ATOM     27  C   UNL     1       0.022  15.083  18.494  0.00  0.00    +0.000 A 
ATOM     28  C   UNL     1      -0.157  13.756  18.833  0.00  0.00    +0.000 A 
ENDBRANCH   3  22
BRANCH   4  29
ATOM     29  C   UNL     1      -1.483  11.677  21.399  0.00  0.00    +0.000 A 
ATOM     30  C   UNL     1      -1.588  11.618  22.802  0.00  0.00    +0.000 A 
ATOM     31  C   UNL     1      -2.704  12.105  23.472  0.00  0.00    +0.000 A 
ATOM     32  C   UNL     1      -3.706  12.717  22.737  0.00  0.00    +0.000 A 
ATOM     33  F   UNL     1      -4.767  13.231  23.377  0.00  0.00    +0.000 F 
ATOM     34  C   UNL     1      -3.625  12.816  21.350  0.00  0.00    +0.000 A 
ATOM     35  C   UNL     1      -2.521  12.280  20.680  0.00  0.00    +0.000 A 
ENDBRANCH   4  29
TORSDOF 4
ENDMDL
MODEL 7
REMARK VINA RESULT:      -9.1      2.362      4.404
REMARK  Name = 
REMARK  5 active torsions:
REMARK  status: ('A' for Active; 'I' for Inactive)
REMARK    1  A    between atoms: C_1  and  C_2
REMARK    2  A    between atoms: C_2  and  N_3
REMARK    3  A    between atoms: C_12  and  C_13
REMARK    4  A    between atoms: C_15  and  C_16
REMARK    5  A    between atoms: C_23  and  C_24
REMARK                            x       y       z     vdW  Elec       q    Type
REMARK                         _______ _______ _______ _____ _____    ______ ____
ROOT
ATOM      1  C   UNL     1       1.071   9.265  20.023  0.00  0.00    +0.000 A 
ATOM      2  N   UNL     1       0.034   9.520  20.802  0.00  0.00    +0.000 NA
ATOM      3  C   UNL     1      -0.191  10.865  20.706  0.00  0.00    +0.000 A 
ATOM      4  C   UNL     1       0.754  11.489  19.898  0.00  0.00    +0.000 A 
ATOM      5  N   UNL     1       1.521  10.437  19.466  0.00  0.00    +0.000 N 
ATOM      6  H   UNL     1       2.336  10.509  18.865  0.00  0.00    +0.000 HD
ENDROOT
BRANCH   1  16
ATOM      7  N   UNL     1       3.565   4.367  18.847  0.00  0.00    +0.000 N 
ATOM      8  C   UNL     1       4.245   4.674  17.684  0.00  0.00    +0.000 A 
ATOM      9  C   UNL     1       5.052   3.880  16.851  0.00  0.00    +0.000 A 
ATOM     10  C   UNL     1       5.673   4.491  15.758  0.00  0.00    +0.000 A 
ATOM     11  C   UNL     1       5.484   5.843  15.492  0.00  0.00    +0.000 A 
ATOM     12  C   UNL     1       4.651   6.616  16.309  0.00  0.00    +0.000 A 
ATOM     13  C   UNL     1       4.021   6.025  17.424  0.00  0.00    +0.000 A 
ATOM     14  C   UNL     1       3.136   6.514  18.435  0.00  0.00    +0.000 A 
ATOM     15  C   UNL     1       2.545   7.774  18.676  0.00  0.00    +0.000 A 
ATOM     16  C   UNL     1       1.688   7.962  19.772  0.00  0.00    +0.000 A 
ATOM     17  C   UNL     1       1.421   6.884  20.620  0.00  0.00    +0.000 A 
ATOM     18  C   UNL     1       1.998   5.625  20.409  0.00  0.00    +0.000 A 
ATOM     19  C   UNL     1       2.856   5.461  19.308  0.00  0.00    +0.000 A 
BRANCH   7  21
ATOM     20  C   UNL     1       2.546   2.128  19.090  0.00  0.00    +0.000 C 
ATOM     21  C   UNL     1       3.646   3.080  19.521  0.00  0.00    +0.000 C 
ENDBRANCH   7  21
ENDBRANCH   1  16
BRANCH   3  22
ATOM     22  C   UNL     1      -1.303  11.514  21.398  0.00  0.00    +0.000 A 
ATOM     23  C   UNL     1      -1.384  11.444  22.795  0.00  0.00    +0.000 A 
ATOM     24  C   UNL     1      -2.464  12.032  23.457  0.00  0.00    +0.000 A 
ATOM     25  C   UNL     1      -3.440  12.712  22.728  0.00  0.00    +0.000 A 
ATOM     26  F   UNL     1      -4.478  13.255  23.369  0.00  0.00    +0.000 F 
ATOM     27  C   UNL     1      -3.351  12.814  21.348  0.00  0.00    +0.000 A 
ATOM     28  C   UNL     1      -2.311  12.188  20.687  0.00  0.00    +0.000 A 
ENDBRANCH   3  22
BRANCH   4  29
ATOM     29  C   UNL     1       1.031  12.884  19.555  0.00  0.00    +0.000 A 
ATOM     30  C   UNL     1       2.253  13.483  19.919  0.00  0.00    +0.000 A 
ATOM     31  C   UNL     1       2.520  14.819  19.649  0.00  0.00    +0.000 A 
ATOM     32  C   UNL     1       1.579  15.558  18.950  0.00  0.00    +0.000 A 
ATOM     33  F   UNL     1       1.845  16.836  18.644  0.00  0.00    +0.000 F 
ATOM     34  C   UNL     1       0.371  14.992  18.551  0.00  0.00    +0.000 A 
ATOM     35  C   UNL     1       0.090  13.659  18.869  0.00  0.00    +0.000 A 
ENDBRANCH   4  29
TORSDOF 4
ENDMDL
MODEL 8
REMARK VINA RESULT:      -9.1      1.857      4.396
REMARK  Name = 
REMARK  5 active torsions:
REMARK  status: ('A' for Active; 'I' for Inactive)
REMARK    1  A    between atoms: C_1  and  C_2
REMARK    2  A    between atoms: C_2  and  N_3
REMARK    3  A    between atoms: C_12  and  C_13
REMARK    4  A    between atoms: C_15  and  C_16
REMARK    5  A    between atoms: C_23  and  C_24
REMARK                            x       y       z     vdW  Elec       q    Type
REMARK                         _______ _______ _______ _____ _____    ______ ____
ROOT
ATOM      1  C   UNL     1       1.404   9.325  19.203  0.00  0.00    +0.000 A 
ATOM      2  N   UNL     1       0.224   9.575  19.742  0.00  0.00    +0.000 NA
ATOM      3  C   UNL     1       0.028  10.923  19.616  0.00  0.00    +0.000 A 
ATOM      4  C   UNL     1       1.126  11.551  19.039  0.00  0.00    +0.000 A 
ATOM      5  N   UNL     1       1.967  10.501  18.771  0.00  0.00    +0.000 N 
ATOM      6  H   UNL     1       2.892  10.576  18.360  0.00  0.00    +0.000 HD
ENDROOT
BRANCH   1  16
ATOM      7  N   UNL     1       4.033   4.408  18.491  0.00  0.00    +0.000 N 
ATOM      8  C   UNL     1       4.683   4.612  17.289  0.00  0.00    +0.000 A 
ATOM      9  C   UNL     1       5.501   3.761  16.526  0.00  0.00    +0.000 A 
ATOM     10  C   UNL     1       6.084   4.273  15.364  0.00  0.00    +0.000 A 
ATOM     11  C   UNL     1       5.847   5.583  14.963  0.00  0.00    +0.000 A 
ATOM     12  C   UNL     1       5.004   6.412  15.712  0.00  0.00    +0.000 A 
ATOM     13  C   UNL     1       4.412   5.922  16.895  0.00  0.00    +0.000 A 
ATOM     14  C   UNL     1       3.529   6.487  17.868  0.00  0.00    +0.000 A 
ATOM     15  C   UNL     1       2.902   7.747  17.988  0.00  0.00    +0.000 A 
ATOM     16  C   UNL     1       2.058   8.022  19.075  0.00  0.00    +0.000 A 
ATOM     17  C   UNL     1       1.841   7.030  20.036  0.00  0.00    +0.000 A 
ATOM     18  C   UNL     1       2.454   5.774  19.945  0.00  0.00    +0.000 A 
ATOM     19  C   UNL     1       3.298   5.522  18.850  0.00  0.00    +0.000 A 
BRANCH   7  21
ATOM     20  C   UNL     1       3.209   2.107  18.860  0.00  0.00    +0.000 C 
ATOM     21  C   UNL     1       4.167   3.201  19.293  0.00  0.00    +0.000 C 
ENDBRANCH   7  21
ENDBRANCH   1  16
BRANCH   3  22
ATOM     22  C   UNL     1      -1.206  11.569  20.059  0.00  0.00    +0.000 A 
ATOM     23  C   UNL     1      -1.322  12.004  21.385  0.00  0.00    +0.000 A 
ATOM     24  C   UNL     1      -2.512  12.589  21.821  0.00  0.00    +0.000 A 
ATOM     25  C   UNL     1      -3.569  12.765  20.928  0.00  0.00    +0.000 A 
ATOM     26  F   UNL     1      -4.710  13.309  21.360  0.00  0.00    +0.000 F 
ATOM     27  C   UNL     1      -3.452  12.367  19.605  0.00  0.00    +0.000 A 
ATOM     28  C   UNL     1      -2.295  11.741  19.185  0.00  0.00    +0.000 A 
ENDBRANCH   3  22
BRANCH   4  29
ATOM     29  C   UNL     1       1.474  12.949  18.780  0.00  0.00    +0.000 A 
ATOM     30  C   UNL     1       2.720  13.285  18.215  0.00  0.00    +0.000 A 
ATOM     31  C   UNL     1       3.093  14.607  18.006  0.00  0.00    +0.000 A 
ATOM     32  C   UNL     1       2.186  15.611  18.308  0.00  0.00    +0.000 A 
ATOM     33  F   UNL     1       2.518  16.888  18.068  0.00  0.00    +0.000 F 
ATOM     34  C   UNL     1       0.936  15.314  18.844  0.00  0.00    +0.000 A 
ATOM     35  C   UNL     1       0.587  13.984  19.096  0.00  0.00    +0.000 A 
ENDBRANCH   4  29
TORSDOF 4
ENDMDL
MODEL 9
REMARK VINA RESULT:      -9.1      1.912      3.849
REMARK  Name = 
REMARK  5 active torsions:
REMARK  status: ('A' for Active; 'I' for Inactive)
REMARK    1  A    between atoms: C_1  and  C_2
REMARK    2  A    between atoms: C_2  and  N_3
REMARK    3  A    between atoms: C_12  and  C_13
REMARK    4  A    between atoms: C_15  and  C_16
REMARK    5  A    between atoms: C_23  and  C_24
REMARK                            x       y       z     vdW  Elec       q    Type
REMARK                         _______ _______ _______ _____ _____    ______ ____
ROOT
ATOM      1  C   UNL     1       1.129   9.887  18.954  0.00  0.00    +0.000 A 
ATOM      2  N   UNL     1      -0.065   9.995  19.509  0.00  0.00    +0.000 NA
ATOM      3  C   UNL     1      -0.371  11.328  19.493  0.00  0.00    +0.000 A 
ATOM      4  C   UNL     1       0.671  12.089  18.971  0.00  0.00    +0.000 A 
ATOM      5  N   UNL     1       1.592  11.136  18.620  0.00  0.00    +0.000 N 
ATOM      6  H   UNL     1       2.507  11.319  18.220  0.00  0.00    +0.000 HD
ENDROOT
BRANCH   1  16
ATOM      7  N   UNL     1       3.919   5.054  18.278  0.00  0.00    +0.000 N 
ATOM      8  C   UNL     1       3.478   4.324  19.366  0.00  0.00    +0.000 A 
ATOM      9  C   UNL     1       3.810   3.031  19.805  0.00  0.00    +0.000 A 
ATOM     10  C   UNL     1       3.144   2.523  20.924  0.00  0.00    +0.000 A 
ATOM     11  C   UNL     1       2.192   3.283  21.595  0.00  0.00    +0.000 A 
ATOM     12  C   UNL     1       1.893   4.582  21.169  0.00  0.00    +0.000 A 
ATOM     13  C   UNL     1       2.545   5.114  20.037  0.00  0.00    +0.000 A 
ATOM     14  C   UNL     1       2.476   6.368  19.353  0.00  0.00    +0.000 A 
ATOM     15  C   UNL     1       1.740   7.553  19.578  0.00  0.00    +0.000 A 
ATOM     16  C   UNL     1       1.887   8.656  18.723  0.00  0.00    +0.000 A 
ATOM     17  C   UNL     1       2.776   8.570  17.647  0.00  0.00    +0.000 A 
ATOM     18  C   UNL     1       3.514   7.406  17.397  0.00  0.00    +0.000 A 
ATOM     19  C   UNL     1       3.348   6.313  18.264  0.00  0.00    +0.000 A 
BRANCH   7  21
ATOM     20  C   UNL     1       6.274   4.762  17.589  0.00  0.00    +0.000 C 
ATOM     21  C   UNL     1       4.812   4.529  17.256  0.00  0.00    +0.000 C 
ENDBRANCH   7  21
ENDBRANCH   1  16
BRANCH   3  22
ATOM     22  C   UNL     1      -1.652  11.833  19.984  0.00  0.00    +0.000 A 
ATOM     23  C   UNL     1      -1.771  12.232  21.321  0.00  0.00    +0.000 A 
ATOM     24  C   UNL     1      -3.003  12.682  21.803  0.00  0.00    +0.000 A 
ATOM     25  C   UNL     1      -4.099  12.760  20.944  0.00  0.00    +0.000 A 
ATOM     26  F   UNL     1      -5.276  13.174  21.419  0.00  0.00    +0.000 F 
ATOM     27  C   UNL     1      -3.982  12.397  19.611  0.00  0.00    +0.000 A 
ATOM     28  C   UNL     1      -2.778  11.904  19.145  0.00  0.00    +0.000 A 
ENDBRANCH   3  22
BRANCH   4  29
ATOM     29  C   UNL     1       0.902  13.527  18.828  0.00  0.00    +0.000 A 
ATOM     30  C   UNL     1      -0.174  14.434  18.874  0.00  0.00    +0.000 A 
ATOM     31  C   UNL     1       0.014  15.798  18.691  0.00  0.00    +0.000 A 
ATOM     32  C   UNL     1       1.303  16.276  18.521  0.00  0.00    +0.000 A 
ATOM     33  F   UNL     1       1.501  17.596  18.388  0.00  0.00    +0.000 F 
ATOM     34  C   UNL     1       2.394  15.411  18.496  0.00  0.00    +0.000 A 
ATOM     35  C   UNL     1       2.191  14.034  18.633  0.00  0.00    +0.000 A 
ENDBRANCH   4  29
TORSDOF 4
ENDMDL
