MODEL 1
REMARK VINA RESULT:      -8.8      0.000      0.000
REMARK  Name = 
REMARK  13 active torsions:
REMARK  status: ('A' for Active; 'I' for Inactive)
REMARK    1  A    between atoms: C_1  and  O_2
REMARK    2  A    between atoms: O_2  and  C_3
REMARK    3  A    between atoms: C_5  and  N_6
REMARK    4  A    between atoms: C_7  and  C_9
REMARK    5  A    between atoms: C_9  and  S_10
REMARK    6  A    between atoms: S_10  and  C_11
REMARK    7  A    between atoms: C_15  and  C_16
REMARK    8  A    between atoms: C_19  and  C_20
REMARK    9  A    between atoms: C_23  and  C_24
REMARK   10  A    between atoms: C_27  and  C_28
REMARK   11  A    between atoms: C_28  and  O_30
REMARK   12  A    between atoms: C_32  and  O_33
REMARK   13  A    between atoms: O_33  and  C_34
REMARK                            x       y       z     vdW  Elec       q    Type
REMARK                         _______ _______ _______ _____ _____    ______ ____
ROOT
ATOM      1  N   UNL     1       6.477   7.451  17.129  0.00  0.00    +0.000 N 
ATOM      2  C   UNL     1       7.610   7.778  17.841  0.00  0.00    +0.000 C 
ATOM      3  O   UNL     1       8.105   7.042  18.694  0.00  0.00    +0.000 OA
ATOM      4  H   UNL     1       6.238   8.094  16.382  0.00  0.00    +0.000 HD
ENDROOT
BRANCH   1   7
ATOM      5  C   UNL     1       3.403   5.354  18.046  0.00  0.00    +0.000 A 
ATOM      6  C   UNL     1       4.326   6.442  18.000  0.00  0.00    +0.000 A 
ATOM      7  C   UNL     1       5.566   6.356  17.334  0.00  0.00    +0.000 A 
ATOM      8  C   UNL     1       5.904   5.103  16.797  0.00  0.00    +0.000 A 
ATOM      9  C   UNL     1       5.005   4.027  16.839  0.00  0.00    +0.000 A 
ATOM     10  C   UNL     1       3.739   4.147  17.420  0.00  0.00    +0.000 A 
BRANCH   5  12
ATOM     11  C   UNL     1       2.223   5.292  20.124  0.00  0.00    +0.000 C 
ATOM     12  O   UNL     1       2.203   5.401  18.705  0.00  0.00    +0.000 OA
ENDBRANCH   5  12
BRANCH   8  13
ATOM     13  C   UNL     1       7.246   4.847  16.251  0.00  0.00    +0.000 C 
ATOM     14  O   UNL     1       7.553   5.186  15.116  0.00  0.00    +0.000 OA
BRANCH  13  15
ATOM     15  O   UNL     1       8.076   4.176  17.077  0.00  0.00    +0.000 OA
ATOM     16  H   UNL     1       9.025   4.361  16.952  0.00  0.00    +0.000 HD
ENDBRANCH  13  15
ENDBRANCH   8  13
BRANCH  10  17
ATOM     17  O   UNL     1       3.018   2.991  17.274  0.00  0.00    +0.000 OA
ATOM     18  C   UNL     1       3.224   1.878  18.128  0.00  0.00    +0.000 C 
ENDBRANCH  10  17
ENDBRANCH   1   7
BRANCH   2  19
ATOM     19  C   UNL     1       8.325   9.119  17.524  0.00  0.00    +0.000 C 
BRANCH  19  20
ATOM     20  S   UNL     1       9.068  10.153  18.850  0.00  0.00    +0.000 S 
BRANCH  20  21
ATOM     21  C   UNL     1       9.609  11.643  18.061  0.00  0.00    +0.000 A 
ATOM     22  N   UNL     1      10.742  11.659  17.372  0.00  0.00    +0.000 NA
ATOM     23  N   UNL     1      11.534  12.611  17.978  0.00  0.00    +0.000 NA
ATOM     24  C   UNL     1      10.780  13.158  18.914  0.00  0.00    +0.000 A 
ATOM     25  C   UNL     1      11.005  13.506  20.286  0.00  0.00    +0.000 A 
ATOM     26  C   UNL     1      11.615  14.838  20.626  0.00  0.00    +0.000 C 
ATOM     27  C   UNL     1      10.136  12.897  21.157  0.00  0.00    +0.000 A 
ATOM     28  C   UNL     1       8.654  13.054  20.785  0.00  0.00    +0.000 A 
ATOM     29  C   UNL     1       7.726  13.319  21.798  0.00  0.00    +0.000 A 
ATOM     30  C   UNL     1       7.607  12.454  23.011  0.00  0.00    +0.000 C 
ATOM     31  C   UNL     1       6.931  14.452  21.664  0.00  0.00    +0.000 A 
ATOM     32  C   UNL     1       7.128  15.271  20.552  0.00  0.00    +0.000 A 
ATOM     33  C   UNL     1       7.950  14.852  19.469  0.00  0.00    +0.000 A 
ATOM     34  C   UNL     1       8.408  15.972  18.568  0.00  0.00    +0.000 C 
ATOM     35  C   UNL     1       8.466  13.534  19.488  0.00  0.00    +0.000 A 
ATOM     36  N   UNL     1       9.437  12.970  18.579  0.00  0.00    +0.000 N 
ENDBRANCH  20  21
ENDBRANCH  19  20
ENDBRANCH   2  19
TORSDOF 8
ENDMDL
MODEL 2
REMARK VINA RESULT:      -8.1      5.813      8.271
REMARK  Name = 
REMARK  13 active torsions:
REMARK  status: ('A' for Active; 'I' for Inactive)
REMARK    1  A    between atoms: C_1  and  O_2
REMARK    2  A    between atoms: O_2  and  C_3
REMARK    3  A    between atoms: C_5  and  N_6
REMARK    4  A    between atoms: C_7  and  C_9
REMARK    5  A    between atoms: C_9  and  S_10
REMARK    6  A    between atoms: S_10  and  C_11
REMARK    7  A    between atoms: C_15  and  C_16
REMARK    8  A    between atoms: C_19  and  C_20
REMARK    9  A    between atoms: C_23  and  C_24
REMARK   10  A    between atoms: C_27  and  C_28
REMARK   11  A    between atoms: C_28  and  O_30
REMARK   12  A    between atoms: C_32  and  O_33
REMARK   13  A    between atoms: O_33  and  C_34
REMARK                            x       y       z     vdW  Elec       q    Type
REMARK                         _______ _______ _______ _____ _____    ______ ____
ROOT
ATOM      1  N   UNL     1       2.869   6.184  19.353  0.00  0.00    +0.000 N 
ATOM      2  C   UNL     1       2.166   7.361  19.482  0.00  0.00    +0.000 C 
ATOM      3  O   UNL     1       2.068   8.189  18.578  0.00  0.00    +0.000 OA
ATOM      4  H   UNL     1       2.780   5.542  20.134  0.00  0.00    +0.000 HD
ENDROOT
BRANCH   1   7
ATOM      5  C   UNL     1       5.777   5.967  16.867  0.00  0.00    +0.000 A 
ATOM      6  C   UNL     1       4.861   6.498  17.823  0.00  0.00    +0.000 A 
ATOM      7  C   UNL     1       3.749   5.768  18.293  0.00  0.00    +0.000 A 
ATOM      8  C   UNL     1       3.520   4.519  17.695  0.00  0.00    +0.000 A 
ATOM      9  C   UNL     1       4.413   3.988  16.752  0.00  0.00    +0.000 A 
ATOM     10  C   UNL     1       5.564   4.679  16.360  0.00  0.00    +0.000 A 
BRANCH   5  12
ATOM     11  C   UNL     1       7.659   7.374  17.303  0.00  0.00    +0.000 C 
ATOM     12  O   UNL     1       6.851   6.660  16.375  0.00  0.00    +0.000 OA
ENDBRANCH   5  12
BRANCH   8  13
ATOM     13  C   UNL     1       2.290   3.758  17.967  0.00  0.00    +0.000 C 
ATOM     14  O   UNL     1       2.311   2.706  18.592  0.00  0.00    +0.000 OA
BRANCH  13  15
ATOM     15  O   UNL     1       1.167   4.287  17.438  0.00  0.00    +0.000 OA
ATOM     16  H   UNL     1       1.167   5.257  17.347  0.00  0.00    +0.000 HD
ENDBRANCH  13  15
ENDBRANCH   8  13
BRANCH  10  17
ATOM     17  O   UNL     1       6.314   3.931  15.490  0.00  0.00    +0.000 OA
ATOM     18  C   UNL     1       6.104   3.993  14.089  0.00  0.00    +0.000 C 
ENDBRANCH  10  17
ENDBRANCH   1   7
BRANCH   2  19
ATOM     19  C   UNL     1       1.421   7.639  20.816  0.00  0.00    +0.000 C 
BRANCH  19  20
ATOM     20  S   UNL     1      -0.057   8.729  20.886  0.00  0.00    +0.000 S 
BRANCH  20  21
ATOM     21  C   UNL     1       0.355  10.040  22.003  0.00  0.00    +0.000 A 
ATOM     22  N   UNL     1       0.142   9.900  23.304  0.00  0.00    +0.000 NA
ATOM     23  N   UNL     1      -0.720  10.918  23.653  0.00  0.00    +0.000 NA
ATOM     24  C   UNL     1      -0.872  11.645  22.560  0.00  0.00    +0.000 A 
ATOM     25  C   UNL     1      -2.011  12.222  21.908  0.00  0.00    +0.000 A 
ATOM     26  C   UNL     1      -2.510  13.573  22.339  0.00  0.00    +0.000 C 
ATOM     27  C   UNL     1      -2.173  11.803  20.611  0.00  0.00    +0.000 A 
ATOM     28  C   UNL     1      -0.913  11.937  19.742  0.00  0.00    +0.000 A 
ATOM     29  C   UNL     1      -1.044  12.404  18.429  0.00  0.00    +0.000 A 
ATOM     30  C   UNL     1      -1.979  11.770  17.450  0.00  0.00    +0.000 C 
ATOM     31  C   UNL     1      -0.298  13.520  18.065  0.00  0.00    +0.000 A 
ATOM     32  C   UNL     1       0.504  14.124  19.033  0.00  0.00    +0.000 A 
ATOM     33  C   UNL     1       0.739  13.497  20.288  0.00  0.00    +0.000 A 
ATOM     34  C   UNL     1       1.248  14.426  21.362  0.00  0.00    +0.000 C 
ATOM     35  C   UNL     1       0.239  12.187  20.488  0.00  0.00    +0.000 A 
ATOM     36  N   UNL     1       0.230  11.442  21.725  0.00  0.00    +0.000 N 
ENDBRANCH  20  21
ENDBRANCH  19  20
ENDBRANCH   2  19
TORSDOF 8
ENDMDL
MODEL 3
REMARK VINA RESULT:      -8.0      1.103      1.859
REMARK  Name = 
REMARK  13 active torsions:
REMARK  status: ('A' for Active; 'I' for Inactive)
REMARK    1  A    between atoms: C_1  and  O_2
REMARK    2  A    between atoms: O_2  and  C_3
REMARK    3  A    between atoms: C_5  and  N_6
REMARK    4  A    between atoms: C_7  and  C_9
REMARK    5  A    between atoms: C_9  and  S_10
REMARK    6  A    between atoms: S_10  and  C_11
REMARK    7  A    between atoms: C_15  and  C_16
REMARK    8  A    between atoms: C_19  and  C_20
REMARK    9  A    between atoms: C_23  and  C_24
REMARK   10  A    between atoms: C_27  and  C_28
REMARK   11  A    between atoms: C_28  and  O_30
REMARK   12  A    between atoms: C_32  and  O_33
REMARK   13  A    between atoms: O_33  and  C_34
REMARK                            x       y       z     vdW  Elec       q    Type
REMARK                         _______ _______ _______ _____ _____    ______ ____
ROOT
ATOM      1  N   UNL     1       6.652   7.458  17.055  0.00  0.00    +0.000 N 
ATOM      2  C   UNL     1       7.742   7.752  17.842  0.00  0.00    +0.000 C 
ATOM      3  O   UNL     1       8.120   7.033  18.765  0.00  0.00    +0.000 OA
ATOM      4  H   UNL     1       6.514   8.076  16.262  0.00  0.00    +0.000 HD
ENDROOT
BRANCH   1   7
ATOM      5  C   UNL     1       3.421   5.582  17.910  0.00  0.00    +0.000 A 
ATOM      6  C   UNL     1       4.424   6.598  17.891  0.00  0.00    +0.000 A 
ATOM      7  C   UNL     1       5.659   6.431  17.232  0.00  0.00    +0.000 A 
ATOM      8  C   UNL     1       5.907   5.167  16.675  0.00  0.00    +0.000 A 
ATOM      9  C   UNL     1       4.930   4.160  16.689  0.00  0.00    +0.000 A 
ATOM     10  C   UNL     1       3.672   4.365  17.264  0.00  0.00    +0.000 A 
BRANCH   5  12
ATOM     11  C   UNL     1       2.175   5.338  19.935  0.00  0.00    +0.000 C 
ATOM     12  O   UNL     1       2.223   5.706  18.561  0.00  0.00    +0.000 OA
ENDBRANCH   5  12
BRANCH   8  13
ATOM     13  C   UNL     1       7.231   4.820  16.133  0.00  0.00    +0.000 C 
ATOM     14  O   UNL     1       7.487   4.933  14.942  0.00  0.00    +0.000 OA
BRANCH  13  15
ATOM     15  O   UNL     1       8.104   4.332  17.038  0.00  0.00    +0.000 OA
ATOM     16  H   UNL     1       8.723   3.660  16.698  0.00  0.00    +0.000 HD
ENDBRANCH  13  15
ENDBRANCH   8  13
BRANCH  10  17
ATOM     17  O   UNL     1       2.868   3.269  17.091  0.00  0.00    +0.000 OA
ATOM     18  C   UNL     1       2.928   2.160  17.974  0.00  0.00    +0.000 C 
ENDBRANCH  10  17
ENDBRANCH   1   7
BRANCH   2  19
ATOM     19  C   UNL     1       8.564   9.031  17.525  0.00  0.00    +0.000 C 
BRANCH  19  20
ATOM     20  S   UNL     1       8.269  10.613  18.414  0.00  0.00    +0.000 S 
BRANCH  20  21
ATOM     21  C   UNL     1       9.863  11.347  18.646  0.00  0.00    +0.000 A 
ATOM     22  N   UNL     1      10.785  10.726  19.370  0.00  0.00    +0.000 NA
ATOM     23  N   UNL     1      11.095  11.590  20.399  0.00  0.00    +0.000 NA
ATOM     24  C   UNL     1      10.415  12.695  20.153  0.00  0.00    +0.000 A 
ATOM     25  C   UNL     1       9.618  13.566  20.967  0.00  0.00    +0.000 A 
ATOM     26  C   UNL     1      10.279  14.676  21.737  0.00  0.00    +0.000 C 
ATOM     27  C   UNL     1       8.325  13.701  20.524  0.00  0.00    +0.000 A 
ATOM     28  C   UNL     1       8.200  14.068  19.038  0.00  0.00    +0.000 A 
ATOM     29  C   UNL     1       7.249  15.019  18.654  0.00  0.00    +0.000 A 
ATOM     30  C   UNL     1       5.805  14.891  19.020  0.00  0.00    +0.000 C 
ATOM     31  C   UNL     1       7.697  16.127  17.943  0.00  0.00    +0.000 A 
ATOM     32  C   UNL     1       9.063  16.242  17.689  0.00  0.00    +0.000 A 
ATOM     33  C   UNL     1       9.950  15.159  17.939  0.00  0.00    +0.000 A 
ATOM     34  C   UNL     1      11.403  15.553  18.026  0.00  0.00    +0.000 C 
ATOM     35  C   UNL     1       9.398  13.917  18.337  0.00  0.00    +0.000 A 
ATOM     36  N   UNL     1      10.121  12.751  18.788  0.00  0.00    +0.000 N 
ENDBRANCH  20  21
ENDBRANCH  19  20
ENDBRANCH   2  19
TORSDOF 8
ENDMDL
MODEL 4
REMARK VINA RESULT:      -8.0      5.483      7.780
REMARK  Name = 
REMARK  13 active torsions:
REMARK  status: ('A' for Active; 'I' for Inactive)
REMARK    1  A    between atoms: C_1  and  O_2
REMARK    2  A    between atoms: O_2  and  C_3
REMARK    3  A    between atoms: C_5  and  N_6
REMARK    4  A    between atoms: C_7  and  C_9
REMARK    5  A    between atoms: C_9  and  S_10
REMARK    6  A    between atoms: S_10  and  C_11
REMARK    7  A    between atoms: C_15  and  C_16
REMARK    8  A    between atoms: C_19  and  C_20
REMARK    9  A    between atoms: C_23  and  C_24
REMARK   10  A    between atoms: C_27  and  C_28
REMARK   11  A    between atoms: C_28  and  O_30
REMARK   12  A    between atoms: C_32  and  O_33
REMARK   13  A    between atoms: O_33  and  C_34
REMARK                            x       y       z     vdW  Elec       q    Type
REMARK                         _______ _______ _______ _____ _____    ______ ____
ROOT
ATOM      1  N   UNL     1       2.700   6.457  18.865  0.00  0.00    +0.000 N 
ATOM      2  C   UNL     1       2.361   6.020  20.126  0.00  0.00    +0.000 C 
ATOM      3  O   UNL     1       2.966   5.125  20.714  0.00  0.00    +0.000 OA
ATOM      4  H   UNL     1       2.191   7.273  18.541  0.00  0.00    +0.000 HD
ENDROOT
BRANCH   1   7
ATOM      5  C   UNL     1       5.795   5.808  16.700  0.00  0.00    +0.000 A 
ATOM      6  C   UNL     1       4.841   6.487  17.517  0.00  0.00    +0.000 A 
ATOM      7  C   UNL     1       3.635   5.886  17.932  0.00  0.00    +0.000 A 
ATOM      8  C   UNL     1       3.359   4.610  17.414  0.00  0.00    +0.000 A 
ATOM      9  C   UNL     1       4.288   3.935  16.609  0.00  0.00    +0.000 A 
ATOM     10  C   UNL     1       5.523   4.501  16.277  0.00  0.00    +0.000 A 
BRANCH   5  12
ATOM     11  C   UNL     1       7.639   7.263  17.145  0.00  0.00    +0.000 C 
ATOM     12  O   UNL     1       6.962   6.374  16.263  0.00  0.00    +0.000 OA
ENDBRANCH   5  12
BRANCH   8  13
ATOM     13  C   UNL     1       2.051   3.970  17.624  0.00  0.00    +0.000 C 
ATOM     14  O   UNL     1       1.016   4.472  17.207  0.00  0.00    +0.000 OA
BRANCH  13  15
ATOM     15  O   UNL     1       2.087   2.829  18.344  0.00  0.00    +0.000 OA
ATOM     16  H   UNL     1       2.466   2.059  17.883  0.00  0.00    +0.000 HD
ENDBRANCH  13  15
ENDBRANCH   8  13
BRANCH  10  17
ATOM     17  O   UNL     1       6.285   3.627  15.547  0.00  0.00    +0.000 OA
ATOM     18  C   UNL     1       6.366   3.718  14.134  0.00  0.00    +0.000 C 
ENDBRANCH  10  17
ENDBRANCH   1   7
BRANCH   2  19
ATOM     19  C   UNL     1       1.187   6.718  20.864  0.00  0.00    +0.000 C 
BRANCH  19  20
ATOM     20  S   UNL     1       1.087   8.549  21.002  0.00  0.00    +0.000 S 
BRANCH  20  21
ATOM     21  C   UNL     1       0.862   9.152  19.353  0.00  0.00    +0.000 A 
ATOM     22  N   UNL     1       1.856   9.089  18.478  0.00  0.00    +0.000 NA
ATOM     23  N   UNL     1       2.096  10.391  18.091  0.00  0.00    +0.000 NA
ATOM     24  C   UNL     1       1.164  11.115  18.684  0.00  0.00    +0.000 A 
ATOM     25  C   UNL     1       1.185  12.355  19.402  0.00  0.00    +0.000 A 
ATOM     26  C   UNL     1       1.085  13.653  18.649  0.00  0.00    +0.000 C 
ATOM     27  C   UNL     1       0.702  12.256  20.684  0.00  0.00    +0.000 A 
ATOM     28  C   UNL     1      -0.672  11.580  20.792  0.00  0.00    +0.000 A 
ATOM     29  C   UNL     1      -1.623  12.116  21.667  0.00  0.00    +0.000 A 
ATOM     30  C   UNL     1      -1.326  12.351  23.114  0.00  0.00    +0.000 C 
ATOM     31  C   UNL     1      -2.860  12.468  21.139  0.00  0.00    +0.000 A 
ATOM     32  C   UNL     1      -3.066  12.300  19.770  0.00  0.00    +0.000 A 
ATOM     33  C   UNL     1      -2.136  11.581  18.970  0.00  0.00    +0.000 A 
ATOM     34  C   UNL     1      -2.258  11.841  17.489  0.00  0.00    +0.000 C 
ATOM     35  C   UNL     1      -1.055  10.933  19.616  0.00  0.00    +0.000 A 
ATOM     36  N   UNL     1       0.075  10.293  18.983  0.00  0.00    +0.000 N 
ENDBRANCH  20  21
ENDBRANCH  19  20
ENDBRANCH   2  19
TORSDOF 8
ENDMDL
MODEL 5
REMARK VINA RESULT:      -7.9      3.088      9.550
REMARK  Name = 
REMARK  13 active torsions:
REMARK  status: ('A' for Active; 'I' for Inactive)
REMARK    1  A    between atoms: C_1  and  O_2
REMARK    2  A    between atoms: O_2  and  C_3
REMARK    3  A    between atoms: C_5  and  N_6
REMARK    4  A    between atoms: C_7  and  C_9
REMARK    5  A    between atoms: C_9  and  S_10
REMARK    6  A    between atoms: S_10  and  C_11
REMARK    7  A    between atoms: C_15  and  C_16
REMARK    8  A    between atoms: C_19  and  C_20
REMARK    9  A    between atoms: C_23  and  C_24
REMARK   10  A    between atoms: C_27  and  C_28
REMARK   11  A    between atoms: C_28  and  O_30
REMARK   12  A    between atoms: C_32  and  O_33
REMARK   13  A    between atoms: O_33  and  C_34
REMARK                            x       y       z     vdW  Elec       q    Type
REMARK                         _______ _______ _______ _____ _____    ______ ____
ROOT
ATOM      1  N   UNL     1       9.254   9.492  19.424  0.00  0.00    +0.000 N 
ATOM      2  C   UNL     1       8.362   9.083  18.458  0.00  0.00    +0.000 C 
ATOM      3  O   UNL     1       7.672   9.864  17.804  0.00  0.00    +0.000 OA
ATOM      4  H   UNL     1       9.838   8.757  19.809  0.00  0.00    +0.000 HD
ENDROOT
BRANCH   1   7
ATOM      5  C   UNL     1       9.161  12.522  21.768  0.00  0.00    +0.000 A 
ATOM      6  C   UNL     1       8.832  11.263  21.181  0.00  0.00    +0.000 A 
ATOM      7  C   UNL     1       9.433  10.802  19.992  0.00  0.00    +0.000 A 
ATOM      8  C   UNL     1      10.307  11.690  19.345  0.00  0.00    +0.000 A 
ATOM      9  C   UNL     1      10.636  12.931  19.912  0.00  0.00    +0.000 A 
ATOM     10  C   UNL     1      10.105  13.342  21.139  0.00  0.00    +0.000 A 
BRANCH   5  12
ATOM     11  C   UNL     1       7.612  12.186  23.558  0.00  0.00    +0.000 C 
ATOM     12  O   UNL     1       8.576  13.006  22.908  0.00  0.00    +0.000 OA
ENDBRANCH   5  12
BRANCH   8  13
ATOM     13  C   UNL     1      10.842  11.393  18.007  0.00  0.00    +0.000 C 
ATOM     14  O   UNL     1      10.216  11.665  16.990  0.00  0.00    +0.000 OA
BRANCH  13  15
ATOM     15  O   UNL     1      12.036  10.764  17.999  0.00  0.00    +0.000 OA
ATOM     16  H   UNL     1      12.569  10.894  17.194  0.00  0.00    +0.000 HD
ENDBRANCH  13  15
ENDBRANCH   8  13
BRANCH  10  17
ATOM     17  O   UNL     1      10.629  14.550  21.521  0.00  0.00    +0.000 OA
ATOM     18  C   UNL     1      10.027  15.774  21.131  0.00  0.00    +0.000 C 
ENDBRANCH  10  17
ENDBRANCH   1   7
BRANCH   2  19
ATOM     19  C   UNL     1       8.251   7.566  18.143  0.00  0.00    +0.000 C 
BRANCH  19  20
ATOM     20  S   UNL     1       7.493   6.388  19.333  0.00  0.00    +0.000 S 
BRANCH  20  21
ATOM     21  C   UNL     1       7.344   4.850  18.469  0.00  0.00    +0.000 A 
ATOM     22  N   UNL     1       8.371   4.368  17.783  0.00  0.00    +0.000 NA
ATOM     23  N   UNL     1       7.928   4.252  16.482  0.00  0.00    +0.000 NA
ATOM     24  C   UNL     1       6.648   4.574  16.511  0.00  0.00    +0.000 A 
ATOM     25  C   UNL     1       5.819   5.404  15.687  0.00  0.00    +0.000 A 
ATOM     26  C   UNL     1       5.187   4.830  14.449  0.00  0.00    +0.000 C 
ATOM     27  C   UNL     1       5.202   6.420  16.375  0.00  0.00    +0.000 A 
ATOM     28  C   UNL     1       4.449   5.965  17.634  0.00  0.00    +0.000 A 
ATOM     29  C   UNL     1       3.195   6.522  17.909  0.00  0.00    +0.000 A 
ATOM     30  C   UNL     1       2.982   7.999  17.990  0.00  0.00    +0.000 C 
ATOM     31  C   UNL     1       2.124   5.649  18.071  0.00  0.00    +0.000 A 
ATOM     32  C   UNL     1       2.355   4.283  17.913  0.00  0.00    +0.000 A 
ATOM     33  C   UNL     1       3.677   3.768  17.820  0.00  0.00    +0.000 A 
ATOM     34  C   UNL     1       3.763   2.379  17.237  0.00  0.00    +0.000 C 
ATOM     35  C   UNL     1       4.761   4.659  18.013  0.00  0.00    +0.000 A 
ATOM     36  N   UNL     1       6.162   4.377  17.807  0.00  0.00    +0.000 N 
ENDBRANCH  20  21
ENDBRANCH  19  20
ENDBRANCH   2  19
TORSDOF 8
ENDMDL
MODEL 6
REMARK VINA RESULT:      -7.9      0.871      1.010
REMARK  Name = 
REMARK  13 active torsions:
REMARK  status: ('A' for Active; 'I' for Inactive)
REMARK    1  A    between atoms: C_1  and  O_2
REMARK    2  A    between atoms: O_2  and  C_3
REMARK    3  A    between atoms: C_5  and  N_6
REMARK    4  A    between atoms: C_7  and  C_9
REMARK    5  A    between atoms: C_9  and  S_10
REMARK    6  A    between atoms: S_10  and  C_11
REMARK    7  A    between atoms: C_15  and  C_16
REMARK    8  A    between atoms: C_19  and  C_20
REMARK    9  A    between atoms: C_23  and  C_24
REMARK   10  A    between atoms: C_27  and  C_28
REMARK   11  A    between atoms: C_28  and  O_30
REMARK   12  A    between atoms: C_32  and  O_33
REMARK   13  A    between atoms: O_33  and  C_34
REMARK                            x       y       z     vdW  Elec       q    Type
REMARK                         _______ _______ _______ _____ _____    ______ ____
ROOT
ATOM      1  N   UNL     1       6.609   7.275  17.485  0.00  0.00    +0.000 N 
ATOM      2  C   UNL     1       7.753   7.756  18.080  0.00  0.00    +0.000 C 
ATOM      3  O   UNL     1       8.436   7.093  18.860  0.00  0.00    +0.000 OA
ATOM      4  H   UNL     1       6.202   7.882  16.781  0.00  0.00    +0.000 HD
ENDROOT
BRANCH   1   7
ATOM      5  C   UNL     1       4.447   4.586  19.153  0.00  0.00    +0.000 A 
ATOM      6  C   UNL     1       5.267   5.742  18.987  0.00  0.00    +0.000 A 
ATOM      7  C   UNL     1       5.888   6.060  17.761  0.00  0.00    +0.000 A 
ATOM      8  C   UNL     1       5.747   5.123  16.725  0.00  0.00    +0.000 A 
ATOM      9  C   UNL     1       4.945   3.983  16.878  0.00  0.00    +0.000 A 
ATOM     10  C   UNL     1       4.258   3.721  18.068  0.00  0.00    +0.000 A 
BRANCH   5  12
ATOM     11  C   UNL     1       2.533   4.717  20.580  0.00  0.00    +0.000 C 
ATOM     12  O   UNL     1       3.852   4.239  20.336  0.00  0.00    +0.000 OA
ENDBRANCH   5  12
BRANCH   8  13
ATOM     13  C   UNL     1       6.505   5.256  15.470  0.00  0.00    +0.000 C 
ATOM     14  O   UNL     1       7.691   5.555  15.465  0.00  0.00    +0.000 OA
BRANCH  13  15
ATOM     15  O   UNL     1       5.780   5.070  14.347  0.00  0.00    +0.000 OA
ATOM     16  H   UNL     1       6.284   5.116  13.514  0.00  0.00    +0.000 HD
ENDBRANCH  13  15
ENDBRANCH   8  13
BRANCH  10  17
ATOM     17  O   UNL     1       3.486   2.595  17.953  0.00  0.00    +0.000 OA
ATOM     18  C   UNL     1       2.166   2.651  17.436  0.00  0.00    +0.000 C 
ENDBRANCH  10  17
ENDBRANCH   1   7
BRANCH   2  19
ATOM     19  C   UNL     1       8.234   9.187  17.718  0.00  0.00    +0.000 C 
BRANCH  19  20
ATOM     20  S   UNL     1       9.146  10.232  18.923  0.00  0.00    +0.000 S 
BRANCH  20  21
ATOM     21  C   UNL     1       9.713  11.643  18.016  0.00  0.00    +0.000 A 
ATOM     22  N   UNL     1      10.869  11.599  17.369  0.00  0.00    +0.000 NA
ATOM     23  N   UNL     1      11.638  12.608  17.909  0.00  0.00    +0.000 NA
ATOM     24  C   UNL     1      10.850  13.239  18.761  0.00  0.00    +0.000 A 
ATOM     25  C   UNL     1      11.026  13.717  20.101  0.00  0.00    +0.000 A 
ATOM     26  C   UNL     1      11.621  15.078  20.334  0.00  0.00    +0.000 C 
ATOM     27  C   UNL     1      10.127  13.189  20.995  0.00  0.00    +0.000 A 
ATOM     28  C   UNL     1       8.659  13.302  20.558  0.00  0.00    +0.000 A 
ATOM     29  C   UNL     1       7.696  13.658  21.508  0.00  0.00    +0.000 A 
ATOM     30  C   UNL     1       7.535  12.911  22.793  0.00  0.00    +0.000 C 
ATOM     31  C   UNL     1       6.903  14.768  21.238  0.00  0.00    +0.000 A 
ATOM     32  C   UNL     1       7.139  15.479  20.062  0.00  0.00    +0.000 A 
ATOM     33  C   UNL     1       7.999  14.964  19.053  0.00  0.00    +0.000 A 
ATOM     34  C   UNL     1       8.487  15.995  18.066  0.00  0.00    +0.000 C 
ATOM     35  C   UNL     1       8.517  13.656  19.215  0.00  0.00    +0.000 A 
ATOM     36  N   UNL     1       9.520  13.013  18.398  0.00  0.00    +0.000 N 
ENDBRANCH  20  21
ENDBRANCH  19  20
ENDBRANCH   2  19
TORSDOF 8
ENDMDL
MODEL 7
REMARK VINA RESULT:      -7.8      6.793     10.285
REMARK  Name = 
REMARK  13 active torsions:
REMARK  status: ('A' for Active; 'I' for Inactive)
REMARK    1  A    between atoms: C_1  and  O_2
REMARK    2  A    between atoms: O_2  and  C_3
REMARK    3  A    between atoms: C_5  and  N_6
REMARK    4  A    between atoms: C_7  and  C_9
REMARK    5  A    between atoms: C_9  and  S_10
REMARK    6  A    between atoms: S_10  and  C_11
REMARK    7  A    between atoms: C_15  and  C_16
REMARK    8  A    between atoms: C_19  and  C_20
REMARK    9  A    between atoms: C_23  and  C_24
REMARK   10  A    between atoms: C_27  and  C_28
REMARK   11  A    between atoms: C_28  and  O_30
REMARK   12  A    between atoms: C_32  and  O_33
REMARK   13  A    between atoms: O_33  and  C_34
REMARK                            x       y       z     vdW  Elec       q    Type
REMARK                         _______ _______ _______ _____ _____    ______ ____
ROOT
ATOM      1  N   UNL     1       0.780   9.303  18.791  0.00  0.00    +0.000 N 
ATOM      2  C   UNL     1       1.937   9.396  18.049  0.00  0.00    +0.000 C 
ATOM      3  O   UNL     1       2.300  10.432  17.495  0.00  0.00    +0.000 OA
ATOM      4  H   UNL     1       0.655   8.425  19.284  0.00  0.00    +0.000 HD
ENDROOT
BRANCH   1   7
ATOM      5  C   UNL     1      -2.426  11.322  18.218  0.00  0.00    +0.000 A 
ATOM      6  C   UNL     1      -1.312  10.465  17.969  0.00  0.00    +0.000 A 
ATOM      7  C   UNL     1      -0.290  10.255  18.918  0.00  0.00    +0.000 A 
ATOM      8  C   UNL     1      -0.363  11.017  20.096  0.00  0.00    +0.000 A 
ATOM      9  C   UNL     1      -1.451  11.864  20.349  0.00  0.00    +0.000 A 
ATOM     10  C   UNL     1      -2.508  11.997  19.442  0.00  0.00    +0.000 A 
BRANCH   5  12
ATOM     11  C   UNL     1      -3.336  10.907  16.047  0.00  0.00    +0.000 C 
ATOM     12  O   UNL     1      -3.419  11.564  17.307  0.00  0.00    +0.000 OA
ENDBRANCH   5  12
BRANCH   8  13
ATOM     13  C   UNL     1       0.742  11.023  21.068  0.00  0.00    +0.000 C 
ATOM     14  O   UNL     1       1.372  12.041  21.318  0.00  0.00    +0.000 OA
BRANCH  13  15
ATOM     15  O   UNL     1       1.026   9.820  21.612  0.00  0.00    +0.000 OA
ATOM     16  H   UNL     1       0.670   9.052  21.131  0.00  0.00    +0.000 HD
ENDBRANCH  13  15
ENDBRANCH   8  13
BRANCH  10  17
ATOM     17  O   UNL     1      -3.484  12.818  19.941  0.00  0.00    +0.000 OA
ATOM     18  C   UNL     1      -4.858  12.482  19.838  0.00  0.00    +0.000 C 
ENDBRANCH  10  17
ENDBRANCH   1   7
BRANCH   2  19
ATOM     19  C   UNL     1       2.854   8.147  17.943  0.00  0.00    +0.000 C 
BRANCH  19  20
ATOM     20  S   UNL     1       2.487   6.600  18.865  0.00  0.00    +0.000 S 
BRANCH  20  21
ATOM     21  C   UNL     1       2.293   5.336  17.640  0.00  0.00    +0.000 A 
ATOM     22  N   UNL     1       1.187   4.606  17.604  0.00  0.00    +0.000 NA
ATOM     23  N   UNL     1       1.597   3.300  17.770  0.00  0.00    +0.000 NA
ATOM     24  C   UNL     1       2.916   3.340  17.789  0.00  0.00    +0.000 A 
ATOM     25  C   UNL     1       3.911   2.731  18.622  0.00  0.00    +0.000 A 
ATOM     26  C   UNL     1       4.404   1.346  18.301  0.00  0.00    +0.000 C 
ATOM     27  C   UNL     1       4.736   3.635  19.245  0.00  0.00    +0.000 A 
ATOM     28  C   UNL     1       5.366   4.670  18.301  0.00  0.00    +0.000 A 
ATOM     29  C   UNL     1       6.711   5.013  18.475  0.00  0.00    +0.000 A 
ATOM     30  C   UNL     1       7.247   5.487  19.788  0.00  0.00    +0.000 C 
ATOM     31  C   UNL     1       7.561   4.861  17.385  0.00  0.00    +0.000 A 
ATOM     32  C   UNL     1       7.034   4.345  16.202  0.00  0.00    +0.000 A 
ATOM     33  C   UNL     1       5.630   4.192  16.029  0.00  0.00    +0.000 A 
ATOM     34  C   UNL     1       5.240   3.253  14.915  0.00  0.00    +0.000 C 
ATOM     35  C   UNL     1       4.771   4.690  17.039  0.00  0.00    +0.000 A 
ATOM     36  N   UNL     1       3.343   4.498  17.134  0.00  0.00    +0.000 N 
ENDBRANCH  20  21
ENDBRANCH  19  20
ENDBRANCH   2  19
TORSDOF 8
ENDMDL
MODEL 8
REMARK VINA RESULT:      -7.7      7.138      8.901
REMARK  Name = 
REMARK  13 active torsions:
REMARK  status: ('A' for Active; 'I' for Inactive)
REMARK    1  A    between atoms: C_1  and  O_2
REMARK    2  A    between atoms: O_2  and  C_3
REMARK    3  A    between atoms: C_5  and  N_6
REMARK    4  A    between atoms: C_7  and  C_9
REMARK    5  A    between atoms: C_9  and  S_10
REMARK    6  A    between atoms: S_10  and  C_11
REMARK    7  A    between atoms: C_15  and  C_16
REMARK    8  A    between atoms: C_19  and  C_20
REMARK    9  A    between atoms: C_23  and  C_24
REMARK   10  A    between atoms: C_27  and  C_28
REMARK   11  A    between atoms: C_28  and  O_30
REMARK   12  A    between atoms: C_32  and  O_33
REMARK   13  A    between atoms: O_33  and  C_34
REMARK                            x       y       z     vdW  Elec       q    Type
REMARK                         _______ _______ _______ _____ _____    ______ ____
ROOT
ATOM      1  N   UNL     1       1.908   7.959  20.588  0.00  0.00    +0.000 N 
ATOM      2  C   UNL     1       0.855   8.662  21.130  0.00  0.00    +0.000 C 
ATOM      3  O   UNL     1      -0.234   8.150  21.389  0.00  0.00    +0.000 OA
ATOM      4  H   UNL     1       2.781   8.473  20.526  0.00  0.00    +0.000 HD
ENDROOT
BRANCH   1   7
ATOM      5  C   UNL     1       1.447   4.182  20.130  0.00  0.00    +0.000 A 
ATOM      6  C   UNL     1       1.546   5.460  20.758  0.00  0.00    +0.000 A 
ATOM      7  C   UNL     1       1.923   6.623  20.054  0.00  0.00    +0.000 A 
ATOM      8  C   UNL     1       2.302   6.449  18.714  0.00  0.00    +0.000 A 
ATOM      9  C   UNL     1       2.211   5.198  18.087  0.00  0.00    +0.000 A 
ATOM     10  C   UNL     1       1.748   4.067  18.767  0.00  0.00    +0.000 A 
BRANCH   5  12
ATOM     11  C   UNL     1       2.106   2.411  21.594  0.00  0.00    +0.000 C 
ATOM     12  O   UNL     1       1.107   3.033  20.792  0.00  0.00    +0.000 OA
ENDBRANCH   5  12
BRANCH   8  13
ATOM     13  C   UNL     1       2.893   7.554  17.940  0.00  0.00    +0.000 C 
ATOM     14  O   UNL     1       2.286   8.598  17.747  0.00  0.00    +0.000 OA
BRANCH  13  15
ATOM     15  O   UNL     1       4.118   7.300  17.434  0.00  0.00    +0.000 OA
ATOM     16  H   UNL     1       4.127   6.954  16.523  0.00  0.00    +0.000 HD
ENDBRANCH  13  15
ENDBRANCH   8  13
BRANCH  10  17
ATOM     17  O   UNL     1       1.678   2.984  17.930  0.00  0.00    +0.000 OA
ATOM     18  C   UNL     1       2.793   2.131  17.730  0.00  0.00    +0.000 C 
ENDBRANCH  10  17
ENDBRANCH   1   7
BRANCH   2  19
ATOM     19  C   UNL     1       1.061  10.162  21.474  0.00  0.00    +0.000 C 
BRANCH  19  20
ATOM     20  S   UNL     1      -0.324  11.214  22.069  0.00  0.00    +0.000 S 
BRANCH  20  21
ATOM     21  C   UNL     1      -0.019  12.834  21.421  0.00  0.00    +0.000 A 
ATOM     22  N   UNL     1       1.213  13.324  21.402  0.00  0.00    +0.000 NA
ATOM     23  N   UNL     1       1.167  14.478  22.155  0.00  0.00    +0.000 NA
ATOM     24  C   UNL     1      -0.104  14.642  22.477  0.00  0.00    +0.000 A 
ATOM     25  C   UNL     1      -0.777  14.984  23.695  0.00  0.00    +0.000 A 
ATOM     26  C   UNL     1      -0.959  16.430  24.066  0.00  0.00    +0.000 C 
ATOM     27  C   UNL     1      -1.692  14.042  24.100  0.00  0.00    +0.000 A 
ATOM     28  C   UNL     1      -2.694  13.626  23.014  0.00  0.00    +0.000 A 
ATOM     29  C   UNL     1      -4.039  13.459  23.363  0.00  0.00    +0.000 A 
ATOM     30  C   UNL     1      -4.463  12.558  24.478  0.00  0.00    +0.000 C 
ATOM     31  C   UNL     1      -4.984  14.196  22.659  0.00  0.00    +0.000 A 
ATOM     32  C   UNL     1      -4.537  15.080  21.678  0.00  0.00    +0.000 A 
ATOM     33  C   UNL     1      -3.183  15.069  21.242  0.00  0.00    +0.000 A 
ATOM     34  C   UNL     1      -2.752  16.321  20.519  0.00  0.00    +0.000 C 
ATOM     35  C   UNL     1      -2.325  14.057  21.739  0.00  0.00    +0.000 A 
ATOM     36  N   UNL     1      -0.897  13.961  21.550  0.00  0.00    +0.000 N 
ENDBRANCH  20  21
ENDBRANCH  19  20
ENDBRANCH   2  19
TORSDOF 8
ENDMDL
MODEL 9
REMARK VINA RESULT:      -7.6      3.553      9.773
REMARK  Name = 
REMARK  13 active torsions:
REMARK  status: ('A' for Active; 'I' for Inactive)
REMARK    1  A    between atoms: C_1  and  O_2
REMARK    2  A    between atoms: O_2  and  C_3
REMARK    3  A    between atoms: C_5  and  N_6
REMARK    4  A    between atoms: C_7  and  C_9
REMARK    5  A    between atoms: C_9  and  S_10
REMARK    6  A    between atoms: S_10  and  C_11
REMARK    7  A    between atoms: C_15  and  C_16
REMARK    8  A    between atoms: C_19  and  C_20
REMARK    9  A    between atoms: C_23  and  C_24
REMARK   10  A    between atoms: C_27  and  C_28
REMARK   11  A    between atoms: C_28  and  O_30
REMARK   12  A    between atoms: C_32  and  O_33
REMARK   13  A    between atoms: O_33  and  C_34
REMARK                            x       y       z     vdW  Elec       q    Type
REMARK                         _______ _______ _______ _____ _____    ______ ____
ROOT
ATOM      1  N   UNL     1       8.998  11.151  17.989  0.00  0.00    +0.000 N 
ATOM      2  C   UNL     1       8.963  10.206  18.989  0.00  0.00    +0.000 C 
ATOM      3  O   UNL     1       8.980  10.491  20.186  0.00  0.00    +0.000 OA
ATOM      4  H   UNL     1       8.867  10.789  17.050  0.00  0.00    +0.000 HD
ENDROOT
BRANCH   1   7
ATOM      5  C   UNL     1       8.546  14.951  18.193  0.00  0.00    +0.000 A 
ATOM      6  C   UNL     1       8.269  13.574  17.940  0.00  0.00    +0.000 A 
ATOM      7  C   UNL     1       9.243  12.565  18.090  0.00  0.00    +0.000 A 
ATOM      8  C   UNL     1      10.544  12.991  18.402  0.00  0.00    +0.000 A 
ATOM      9  C   UNL     1      10.828  14.342  18.651  0.00  0.00    +0.000 A 
ATOM     10  C   UNL     1       9.836  15.326  18.591  0.00  0.00    +0.000 A 
BRANCH   5  12
ATOM     11  C   UNL     1       6.694  16.171  19.086  0.00  0.00    +0.000 C 
ATOM     12  O   UNL     1       7.628  15.954  18.034  0.00  0.00    +0.000 OA
ENDBRANCH   5  12
BRANCH   8  13
ATOM     13  C   UNL     1      11.675  12.050  18.395  0.00  0.00    +0.000 C 
ATOM     14  O   UNL     1      12.077  11.520  19.422  0.00  0.00    +0.000 OA
BRANCH  13  15
ATOM     15  O   UNL     1      12.250  11.863  17.188  0.00  0.00    +0.000 OA
ATOM     16  H   UNL     1      13.218  11.754  17.201  0.00  0.00    +0.000 HD
ENDBRANCH  13  15
ENDBRANCH   8  13
BRANCH  10  17
ATOM     17  O   UNL     1      10.336  16.552  18.943  0.00  0.00    +0.000 OA
ATOM     18  C   UNL     1      10.398  16.964  20.299  0.00  0.00    +0.000 C 
ENDBRANCH  10  17
ENDBRANCH   1   7
BRANCH   2  19
ATOM     19  C   UNL     1       8.851   8.708  18.593  0.00  0.00    +0.000 C 
BRANCH  19  20
ATOM     20  S   UNL     1       7.342   8.033  17.790  0.00  0.00    +0.000 S 
BRANCH  20  21
ATOM     21  C   UNL     1       7.344   6.296  18.129  0.00  0.00    +0.000 A 
ATOM     22  N   UNL     1       8.217   5.499  17.528  0.00  0.00    +0.000 NA
ATOM     23  N   UNL     1       7.464   4.576  16.835  0.00  0.00    +0.000 NA
ATOM     24  C   UNL     1       6.208   4.827  17.156  0.00  0.00    +0.000 A 
ATOM     25  C   UNL     1       4.996   4.932  16.398  0.00  0.00    +0.000 A 
ATOM     26  C   UNL     1       4.201   3.693  16.090  0.00  0.00    +0.000 C 
ATOM     27  C   UNL     1       4.367   6.146  16.531  0.00  0.00    +0.000 A 
ATOM     28  C   UNL     1       4.148   6.588  17.985  0.00  0.00    +0.000 A 
ATOM     29  C   UNL     1       2.928   7.178  18.336  0.00  0.00    +0.000 A 
ATOM     30  C   UNL     1       2.382   8.365  17.610  0.00  0.00    +0.000 C 
ATOM     31  C   UNL     1       2.205   6.595  19.371  0.00  0.00    +0.000 A 
ATOM     32  C   UNL     1       2.717   5.445  19.970  0.00  0.00    +0.000 A 
ATOM     33  C   UNL     1       4.042   5.004  19.699  0.00  0.00    +0.000 A 
ATOM     34  C   UNL     1       4.304   3.563  20.062  0.00  0.00    +0.000 C 
ATOM     35  C   UNL     1       4.874   5.827  18.902  0.00  0.00    +0.000 A 
ATOM     36  N   UNL     1       6.181   5.495  18.383  0.00  0.00    +0.000 N 
ENDBRANCH  20  21
ENDBRANCH  19  20
ENDBRANCH   2  19
TORSDOF 8
ENDMDL
