MODEL 1
REMARK VINA RESULT:      -8.2      0.000      0.000
REMARK  Name = 
REMARK  7 active torsions:
REMARK  status: ('A' for Active; 'I' for Inactive)
REMARK    1  A    between atoms: C_1  and  C_2
REMARK    2  A    between atoms: C_5  and  C_6
REMARK    3  A    between atoms: C_6  and  C_7
REMARK    4  A    between atoms: C_15  and  C_16
REMARK    5  A    between atoms: C_15  and  C_17
REMARK    6  A    between atoms: N_19  and  C_20
REMARK    7  A    between atoms: C_20  and  C_21
REMARK                            x       y       z     vdW  Elec       q    Type
REMARK                         _______ _______ _______ _____ _____    ______ ____
ROOT
ATOM      1  C   UNL     1       6.679   5.176  14.652  0.00  0.00    +0.000 C 
ATOM      2  C   UNL     1       6.135   4.166  15.657  0.00  0.00    +0.000 C 
ATOM      3  O   UNL     1       5.903   3.026  15.290  0.00  0.00    +0.000 OA
ATOM      4  N   UNL     1       5.843   4.588  16.940  0.00  0.00    +0.000 N 
ATOM      5  C   UNL     1       5.146   3.701  17.925  0.00  0.00    +0.000 C 
ATOM      6  C   UNL     1       5.426   4.461  19.196  0.00  0.00    +0.000 C 
ATOM      7  C   UNL     1       5.880   5.686  18.955  0.00  0.00    +0.000 C 
ATOM      8  C   UNL     1       6.044   5.943  17.463  0.00  0.00    +0.000 C 
ATOM      9  C   UNL     1       7.426   6.608  17.245  0.00  0.00    +0.000 C 
ENDROOT
BRANCH   8  10
ATOM     10  C   UNL     1       4.892   6.871  16.970  0.00  0.00    +0.000 C 
ATOM     11  O   UNL     1       4.805   7.218  15.797  0.00  0.00    +0.000 OA
ATOM     12  N   UNL     1       3.941   7.228  17.904  0.00  0.00    +0.000 N 
ATOM     13  H   UNL     1       4.152   7.173  18.892  0.00  0.00    +0.000 HD
BRANCH  12  14
ATOM     14  C   UNL     1       2.767   7.998  17.556  0.00  0.00    +0.000 C 
BRANCH  14  15
ATOM     15  C   UNL     1       1.948   8.418  18.761  0.00  0.00    +0.000 A 
ATOM     16  C   UNL     1       2.008   7.655  19.927  0.00  0.00    +0.000 A 
ATOM     17  C   UNL     1       1.237   8.031  21.026  0.00  0.00    +0.000 A 
ATOM     18  C   UNL     1       0.429   9.157  20.935  0.00  0.00    +0.000 A 
ATOM     19  C   UNL     1       0.420   9.859  19.740  0.00  0.00    +0.000 A 
ATOM     20  N   UNL     1       1.148   9.510  18.650  0.00  0.00    +0.000 NA
ENDBRANCH  14  15
ENDBRANCH  12  14
ENDBRANCH   8  10
BRANCH   5  21
ATOM     21  C   UNL     1       3.594   3.586  17.707  0.00  0.00    +0.000 C 
BRANCH  21  22
ATOM     22  C   UNL     1       2.753   3.402  18.965  0.00  0.00    +0.000 A 
ATOM     23  C   UNL     1       1.559   4.120  19.151  0.00  0.00    +0.000 A 
ATOM     24  C   UNL     1       0.893   4.089  20.380  0.00  0.00    +0.000 A 
ATOM     25  C   UNL     1       1.373   3.283  21.410  0.00  0.00    +0.000 A 
ATOM     26  C   UNL     1       2.481   2.469  21.189  0.00  0.00    +0.000 A 
ATOM     27  C   UNL     1       3.167   2.527  19.975  0.00  0.00    +0.000 A 
ENDBRANCH  21  22
ENDBRANCH   5  21
TORSDOF 5
ENDMDL
MODEL 2
REMARK VINA RESULT:      -8.2      0.706      1.050
REMARK  Name = 
REMARK  7 active torsions:
REMARK  status: ('A' for Active; 'I' for Inactive)
REMARK    1  A    between atoms: C_1  and  C_2
REMARK    2  A    between atoms: C_5  and  C_6
REMARK    3  A    between atoms: C_6  and  C_7
REMARK    4  A    between atoms: C_15  and  C_16
REMARK    5  A    between atoms: C_15  and  C_17
REMARK    6  A    between atoms: N_19  and  C_20
REMARK    7  A    between atoms: C_20  and  C_21
REMARK                            x       y       z     vdW  Elec       q    Type
REMARK                         _______ _______ _______ _____ _____    ______ ____
ROOT
ATOM      1  C   UNL     1       6.845   5.380  14.655  0.00  0.00    +0.000 C 
ATOM      2  C   UNL     1       6.207   4.280  15.496  0.00  0.00    +0.000 C 
ATOM      3  O   UNL     1       6.000   3.188  14.991  0.00  0.00    +0.000 OA
ATOM      4  N   UNL     1       5.806   4.569  16.786  0.00  0.00    +0.000 N 
ATOM      5  C   UNL     1       5.018   3.595  17.607  0.00  0.00    +0.000 C 
ATOM      6  C   UNL     1       5.191   4.212  18.971  0.00  0.00    +0.000 C 
ATOM      7  C   UNL     1       5.674   5.449  18.902  0.00  0.00    +0.000 C 
ATOM      8  C   UNL     1       5.972   5.857  17.465  0.00  0.00    +0.000 C 
ATOM      9  C   UNL     1       7.372   6.519  17.440  0.00  0.00    +0.000 C 
ENDROOT
BRANCH   8  10
ATOM     10  C   UNL     1       4.875   6.852  16.975  0.00  0.00    +0.000 C 
ATOM     11  O   UNL     1       4.859   7.273  15.824  0.00  0.00    +0.000 OA
ATOM     12  N   UNL     1       3.888   7.183  17.883  0.00  0.00    +0.000 N 
ATOM     13  H   UNL     1       4.046   7.060  18.874  0.00  0.00    +0.000 HD
BRANCH  12  14
ATOM     14  C   UNL     1       2.757   8.011  17.526  0.00  0.00    +0.000 C 
BRANCH  14  15
ATOM     15  C   UNL     1       1.951   8.471  18.725  0.00  0.00    +0.000 A 
ATOM     16  C   UNL     1       1.155   9.611  18.617  0.00  0.00    +0.000 A 
ATOM     17  C   UNL     1       0.432  10.043  19.727  0.00  0.00    +0.000 A 
ATOM     18  C   UNL     1       0.519   9.329  20.915  0.00  0.00    +0.000 A 
ATOM     19  C   UNL     1       1.336   8.210  20.944  0.00  0.00    +0.000 A 
ATOM     20  N   UNL     1       2.061   7.773  19.885  0.00  0.00    +0.000 NA
ENDBRANCH  14  15
ENDBRANCH  12  14
ENDBRANCH   8  10
BRANCH   5  21
ATOM     21  C   UNL     1       3.490   3.531  17.244  0.00  0.00    +0.000 C 
BRANCH  21  22
ATOM     22  C   UNL     1       2.529   3.385  18.418  0.00  0.00    +0.000 A 
ATOM     23  C   UNL     1       1.765   4.474  18.869  0.00  0.00    +0.000 A 
ATOM     24  C   UNL     1       1.030   4.387  20.056  0.00  0.00    +0.000 A 
ATOM     25  C   UNL     1       0.993   3.187  20.762  0.00  0.00    +0.000 A 
ATOM     26  C   UNL     1       1.642   2.065  20.252  0.00  0.00    +0.000 A 
ATOM     27  C   UNL     1       2.405   2.163  19.087  0.00  0.00    +0.000 A 
ENDBRANCH  21  22
ENDBRANCH   5  21
TORSDOF 5
ENDMDL
MODEL 3
REMARK VINA RESULT:      -7.8      2.248      6.165
REMARK  Name = 
REMARK  7 active torsions:
REMARK  status: ('A' for Active; 'I' for Inactive)
REMARK    1  A    between atoms: C_1  and  C_2
REMARK    2  A    between atoms: C_5  and  C_6
REMARK    3  A    between atoms: C_6  and  C_7
REMARK    4  A    between atoms: C_15  and  C_16
REMARK    5  A    between atoms: C_15  and  C_17
REMARK    6  A    between atoms: N_19  and  C_20
REMARK    7  A    between atoms: C_20  and  C_21
REMARK                            x       y       z     vdW  Elec       q    Type
REMARK                         _______ _______ _______ _____ _____    ______ ____
ROOT
ATOM      1  C   UNL     1       2.235   2.332  17.297  0.00  0.00    +0.000 C 
ATOM      2  C   UNL     1       1.730   3.643  17.890  0.00  0.00    +0.000 C 
ATOM      3  O   UNL     1       1.129   4.429  17.176  0.00  0.00    +0.000 OA
ATOM      4  N   UNL     1       2.034   3.944  19.204  0.00  0.00    +0.000 N 
ATOM      5  C   UNL     1       1.725   5.284  19.800  0.00  0.00    +0.000 C 
ATOM      6  C   UNL     1       1.882   4.954  21.263  0.00  0.00    +0.000 C 
ATOM      7  C   UNL     1       2.485   3.785  21.448  0.00  0.00    +0.000 C 
ATOM      8  C   UNL     1       2.785   3.089  20.127  0.00  0.00    +0.000 C 
ATOM      9  C   UNL     1       2.352   1.608  20.262  0.00  0.00    +0.000 C 
ENDROOT
BRANCH   8  10
ATOM     10  C   UNL     1       4.310   3.200  19.821  0.00  0.00    +0.000 C 
ATOM     11  O   UNL     1       5.101   2.335  20.181  0.00  0.00    +0.000 OA
ATOM     12  N   UNL     1       4.715   4.286  19.070  0.00  0.00    +0.000 N 
ATOM     13  H   UNL     1       4.130   5.109  19.011  0.00  0.00    +0.000 HD
BRANCH  12  14
ATOM     14  C   UNL     1       6.081   4.453  18.629  0.00  0.00    +0.000 C 
BRANCH  14  15
ATOM     15  C   UNL     1       6.215   4.557  17.122  0.00  0.00    +0.000 A 
ATOM     16  C   UNL     1       5.107   4.287  16.318  0.00  0.00    +0.000 A 
ATOM     17  C   UNL     1       5.238   4.362  14.932  0.00  0.00    +0.000 A 
ATOM     18  C   UNL     1       6.468   4.704  14.384  0.00  0.00    +0.000 A 
ATOM     19  C   UNL     1       7.522   4.951  15.249  0.00  0.00    +0.000 A 
ATOM     20  N   UNL     1       7.428   4.873  16.600  0.00  0.00    +0.000 NA
ENDBRANCH  14  15
ENDBRANCH  12  14
ENDBRANCH   8  10
BRANCH   5  21
ATOM     21  C   UNL     1       2.735   6.419  19.401  0.00  0.00    +0.000 C 
BRANCH  21  22
ATOM     22  C   UNL     1       2.145   7.815  19.244  0.00  0.00    +0.000 A 
ATOM     23  C   UNL     1       1.465   8.439  20.304  0.00  0.00    +0.000 A 
ATOM     24  C   UNL     1       0.767   9.633  20.099  0.00  0.00    +0.000 A 
ATOM     25  C   UNL     1       0.804  10.253  18.852  0.00  0.00    +0.000 A 
ATOM     26  C   UNL     1       1.582   9.709  17.833  0.00  0.00    +0.000 A 
ATOM     27  C   UNL     1       2.249   8.498  18.027  0.00  0.00    +0.000 A 
ENDBRANCH  21  22
ENDBRANCH   5  21
TORSDOF 5
ENDMDL
MODEL 4
REMARK VINA RESULT:      -7.8      2.218      4.914
REMARK  Name = 
REMARK  7 active torsions:
REMARK  status: ('A' for Active; 'I' for Inactive)
REMARK    1  A    between atoms: C_1  and  C_2
REMARK    2  A    between atoms: C_5  and  C_6
REMARK    3  A    between atoms: C_6  and  C_7
REMARK    4  A    between atoms: C_15  and  C_16
REMARK    5  A    between atoms: C_15  and  C_17
REMARK    6  A    between atoms: N_19  and  C_20
REMARK    7  A    between atoms: C_20  and  C_21
REMARK                            x       y       z     vdW  Elec       q    Type
REMARK                         _______ _______ _______ _____ _____    ______ ____
ROOT
ATOM      1  C   UNL     1       2.336   3.057  22.017  0.00  0.00    +0.000 C 
ATOM      2  C   UNL     1       3.212   2.640  20.841  0.00  0.00    +0.000 C 
ATOM      3  O   UNL     1       4.204   1.960  21.048  0.00  0.00    +0.000 OA
ATOM      4  N   UNL     1       2.905   3.108  19.577  0.00  0.00    +0.000 N 
ATOM      5  C   UNL     1       3.816   2.885  18.409  0.00  0.00    +0.000 C 
ATOM      6  C   UNL     1       2.872   3.222  17.283  0.00  0.00    +0.000 C 
ATOM      7  C   UNL     1       1.775   3.835  17.717  0.00  0.00    +0.000 C 
ATOM      8  C   UNL     1       1.764   3.962  19.234  0.00  0.00    +0.000 C 
ATOM      9  C   UNL     1       0.362   3.538  19.736  0.00  0.00    +0.000 C 
ENDROOT
BRANCH   8  10
ATOM     10  C   UNL     1       2.077   5.437  19.630  0.00  0.00    +0.000 C 
ATOM     11  O   UNL     1       2.187   5.778  20.803  0.00  0.00    +0.000 OA
ATOM     12  N   UNL     1       2.288   6.326  18.594  0.00  0.00    +0.000 N 
ATOM     13  H   UNL     1       1.940   6.118  17.667  0.00  0.00    +0.000 HD
BRANCH  12  14
ATOM     14  C   UNL     1       2.687   7.697  18.822  0.00  0.00    +0.000 C 
BRANCH  14  15
ATOM     15  C   UNL     1       1.514   8.633  19.039  0.00  0.00    +0.000 A 
ATOM     16  C   UNL     1       0.929   9.261  17.939  0.00  0.00    +0.000 A 
ATOM     17  C   UNL     1      -0.135  10.138  18.144  0.00  0.00    +0.000 A 
ATOM     18  C   UNL     1      -0.589  10.365  19.436  0.00  0.00    +0.000 A 
ATOM     19  C   UNL     1       0.049   9.708  20.476  0.00  0.00    +0.000 A 
ATOM     20  N   UNL     1       1.094   8.860  20.310  0.00  0.00    +0.000 NA
ENDBRANCH  14  15
ENDBRANCH  12  14
ENDBRANCH   8  10
BRANCH   5  21
ATOM     21  C   UNL     1       5.058   3.846  18.364  0.00  0.00    +0.000 C 
BRANCH  21  22
ATOM     22  C   UNL     1       5.425   4.402  16.994  0.00  0.00    +0.000 A 
ATOM     23  C   UNL     1       5.168   5.743  16.663  0.00  0.00    +0.000 A 
ATOM     24  C   UNL     1       5.332   6.198  15.350  0.00  0.00    +0.000 A 
ATOM     25  C   UNL     1       5.826   5.336  14.374  0.00  0.00    +0.000 A 
ATOM     26  C   UNL     1       6.206   4.042  14.724  0.00  0.00    +0.000 A 
ATOM     27  C   UNL     1       6.008   3.578  16.025  0.00  0.00    +0.000 A 
ENDBRANCH  21  22
ENDBRANCH   5  21
TORSDOF 5
ENDMDL
MODEL 5
REMARK VINA RESULT:      -7.7      1.932      4.865
REMARK  Name = 
REMARK  7 active torsions:
REMARK  status: ('A' for Active; 'I' for Inactive)
REMARK    1  A    between atoms: C_1  and  C_2
REMARK    2  A    between atoms: C_5  and  C_6
REMARK    3  A    between atoms: C_6  and  C_7
REMARK    4  A    between atoms: C_15  and  C_16
REMARK    5  A    between atoms: C_15  and  C_17
REMARK    6  A    between atoms: N_19  and  C_20
REMARK    7  A    between atoms: C_20  and  C_21
REMARK                            x       y       z     vdW  Elec       q    Type
REMARK                         _______ _______ _______ _____ _____    ______ ____
ROOT
ATOM      1  C   UNL     1       7.379   5.687  18.998  0.00  0.00    +0.000 C 
ATOM      2  C   UNL     1       7.088   4.833  17.769  0.00  0.00    +0.000 C 
ATOM      3  O   UNL     1       8.016   4.461  17.069  0.00  0.00    +0.000 OA
ATOM      4  N   UNL     1       5.775   4.565  17.434  0.00  0.00    +0.000 N 
ATOM      5  C   UNL     1       5.409   3.884  16.151  0.00  0.00    +0.000 C 
ATOM      6  C   UNL     1       3.984   3.504  16.461  0.00  0.00    +0.000 C 
ATOM      7  C   UNL     1       3.524   4.130  17.540  0.00  0.00    +0.000 C 
ATOM      8  C   UNL     1       4.594   5.001  18.185  0.00  0.00    +0.000 C 
ATOM      9  C   UNL     1       4.564   4.739  19.711  0.00  0.00    +0.000 C 
ENDROOT
BRANCH   8  10
ATOM     10  C   UNL     1       4.297   6.499  17.869  0.00  0.00    +0.000 C 
ATOM     11  O   UNL     1       5.129   7.217  17.326  0.00  0.00    +0.000 OA
ATOM     12  N   UNL     1       3.029   6.957  18.171  0.00  0.00    +0.000 N 
ATOM     13  H   UNL     1       2.457   6.463  18.843  0.00  0.00    +0.000 HD
BRANCH  12  14
ATOM     14  C   UNL     1       2.591   8.293  17.835  0.00  0.00    +0.000 C 
BRANCH  14  15
ATOM     15  C   UNL     1       1.648   8.889  18.862  0.00  0.00    +0.000 A 
ATOM     16  C   UNL     1       0.909  10.026  18.533  0.00  0.00    +0.000 A 
ATOM     17  C   UNL     1       0.059  10.584  19.487  0.00  0.00    +0.000 A 
ATOM     18  C   UNL     1      -0.032   9.996  20.742  0.00  0.00    +0.000 A 
ATOM     19  C   UNL     1       0.739   8.872  20.993  0.00  0.00    +0.000 A 
ATOM     20  N   UNL     1       1.583   8.315  20.091  0.00  0.00    +0.000 NA
ENDBRANCH  14  15
ENDBRANCH  12  14
ENDBRANCH   8  10
BRANCH   5  21
ATOM     21  C   UNL     1       5.445   4.819  14.889  0.00  0.00    +0.000 C 
BRANCH  21  22
ATOM     22  C   UNL     1       5.781   4.144  13.565  0.00  0.00    +0.000 A 
ATOM     23  C   UNL     1       4.795   3.473  12.822  0.00  0.00    +0.000 A 
ATOM     24  C   UNL     1       5.143   2.699  11.710  0.00  0.00    +0.000 A 
ATOM     25  C   UNL     1       6.469   2.650  11.286  0.00  0.00    +0.000 A 
ATOM     26  C   UNL     1       7.431   3.417  11.939  0.00  0.00    +0.000 A 
ATOM     27  C   UNL     1       7.090   4.160  13.070  0.00  0.00    +0.000 A 
ENDBRANCH  21  22
ENDBRANCH   5  21
TORSDOF 5
ENDMDL
MODEL 6
REMARK VINA RESULT:      -7.7      2.136      6.083
REMARK  Name = 
REMARK  7 active torsions:
REMARK  status: ('A' for Active; 'I' for Inactive)
REMARK    1  A    between atoms: C_1  and  C_2
REMARK    2  A    between atoms: C_5  and  C_6
REMARK    3  A    between atoms: C_6  and  C_7
REMARK    4  A    between atoms: C_15  and  C_16
REMARK    5  A    between atoms: C_15  and  C_17
REMARK    6  A    between atoms: N_19  and  C_20
REMARK    7  A    between atoms: C_20  and  C_21
REMARK                            x       y       z     vdW  Elec       q    Type
REMARK                         _______ _______ _______ _____ _____    ______ ____
ROOT
ATOM      1  C   UNL     1       2.230   2.326  17.514  0.00  0.00    +0.000 C 
ATOM      2  C   UNL     1       1.672   3.684  17.928  0.00  0.00    +0.000 C 
ATOM      3  O   UNL     1       1.015   4.328  17.126  0.00  0.00    +0.000 OA
ATOM      4  N   UNL     1       1.990   4.187  19.175  0.00  0.00    +0.000 N 
ATOM      5  C   UNL     1       1.625   5.582  19.581  0.00  0.00    +0.000 C 
ATOM      6  C   UNL     1       1.832   5.476  21.071  0.00  0.00    +0.000 C 
ATOM      7  C   UNL     1       2.498   4.375  21.405  0.00  0.00    +0.000 C 
ATOM      8  C   UNL     1       2.803   3.510  20.189  0.00  0.00    +0.000 C 
ATOM      9  C   UNL     1       2.450   2.046  20.547  0.00  0.00    +0.000 C 
ENDROOT
BRANCH   8  10
ATOM     10  C   UNL     1       4.314   3.648  19.825  0.00  0.00    +0.000 C 
ATOM     11  O   UNL     1       5.059   2.675  19.803  0.00  0.00    +0.000 OA
ATOM     12  N   UNL     1       4.753   4.907  19.467  0.00  0.00    +0.000 N 
ATOM     13  H   UNL     1       4.226   5.727  19.741  0.00  0.00    +0.000 HD
BRANCH  12  14
ATOM     14  C   UNL     1       6.102   5.153  19.009  0.00  0.00    +0.000 C 
BRANCH  14  15
ATOM     15  C   UNL     1       6.234   5.127  17.498  0.00  0.00    +0.000 A 
ATOM     16  C   UNL     1       5.153   5.523  16.711  0.00  0.00    +0.000 A 
ATOM     17  C   UNL     1       5.270   5.477  15.323  0.00  0.00    +0.000 A 
ATOM     18  C   UNL     1       6.460   5.039  14.756  0.00  0.00    +0.000 A 
ATOM     19  C   UNL     1       7.486   4.657  15.605  0.00  0.00    +0.000 A 
ATOM     20  N   UNL     1       7.397   4.677  16.958  0.00  0.00    +0.000 NA
ENDBRANCH  14  15
ENDBRANCH  12  14
ENDBRANCH   8  10
BRANCH   5  21
ATOM     21  C   UNL     1       2.567   6.694  18.993  0.00  0.00    +0.000 C 
BRANCH  21  22
ATOM     22  C   UNL     1       1.986   8.101  18.937  0.00  0.00    +0.000 A 
ATOM     23  C   UNL     1       2.197   8.929  17.821  0.00  0.00    +0.000 A 
ATOM     24  C   UNL     1       1.824  10.277  17.852  0.00  0.00    +0.000 A 
ATOM     25  C   UNL     1       1.171  10.791  18.971  0.00  0.00    +0.000 A 
ATOM     26  C   UNL     1       0.843   9.945  20.027  0.00  0.00    +0.000 A 
ATOM     27  C   UNL     1       1.246   8.609  20.011  0.00  0.00    +0.000 A 
ENDBRANCH  21  22
ENDBRANCH   5  21
TORSDOF 5
ENDMDL
MODEL 7
REMARK VINA RESULT:      -7.6      1.781      4.825
REMARK  Name = 
REMARK  7 active torsions:
REMARK  status: ('A' for Active; 'I' for Inactive)
REMARK    1  A    between atoms: C_1  and  C_2
REMARK    2  A    between atoms: C_5  and  C_6
REMARK    3  A    between atoms: C_6  and  C_7
REMARK    4  A    between atoms: C_15  and  C_16
REMARK    5  A    between atoms: C_15  and  C_17
REMARK    6  A    between atoms: N_19  and  C_20
REMARK    7  A    between atoms: C_20  and  C_21
REMARK                            x       y       z     vdW  Elec       q    Type
REMARK                         _______ _______ _______ _____ _____    ______ ____
ROOT
ATOM      1  C   UNL     1       6.832   5.600  19.442  0.00  0.00    +0.000 C 
ATOM      2  C   UNL     1       6.588   4.799  18.168  0.00  0.00    +0.000 C 
ATOM      3  O   UNL     1       7.540   4.460  17.484  0.00  0.00    +0.000 OA
ATOM      4  N   UNL     1       5.287   4.544  17.776  0.00  0.00    +0.000 N 
ATOM      5  C   UNL     1       4.969   3.920  16.452  0.00  0.00    +0.000 C 
ATOM      6  C   UNL     1       3.535   3.523  16.696  0.00  0.00    +0.000 C 
ATOM      7  C   UNL     1       3.036   4.101  17.784  0.00  0.00    +0.000 C 
ATOM      8  C   UNL     1       4.079   4.945  18.503  0.00  0.00    +0.000 C 
ATOM      9  C   UNL     1       3.998   4.615  20.014  0.00  0.00    +0.000 C 
ENDROOT
BRANCH   8  10
ATOM     10  C   UNL     1       3.788   6.455  18.243  0.00  0.00    +0.000 C 
ATOM     11  O   UNL     1       4.577   7.163  17.629  0.00  0.00    +0.000 OA
ATOM     12  N   UNL     1       2.571   6.936  18.682  0.00  0.00    +0.000 N 
ATOM     13  H   UNL     1       2.059   6.443  19.403  0.00  0.00    +0.000 HD
BRANCH  12  14
ATOM     14  C   UNL     1       2.133   8.288  18.414  0.00  0.00    +0.000 C 
BRANCH  14  15
ATOM     15  C   UNL     1       1.425   8.931  19.591  0.00  0.00    +0.000 A 
ATOM     16  C   UNL     1       1.382   8.260  20.813  0.00  0.00    +0.000 A 
ATOM     17  C   UNL     1       0.712   8.844  21.886  0.00  0.00    +0.000 A 
ATOM     18  C   UNL     1       0.103  10.081  21.715  0.00  0.00    +0.000 A 
ATOM     19  C   UNL     1       0.185  10.681  20.469  0.00  0.00    +0.000 A 
ATOM     20  N   UNL     1       0.818  10.132  19.403  0.00  0.00    +0.000 NA
ENDBRANCH  14  15
ENDBRANCH  12  14
ENDBRANCH   8  10
BRANCH   5  21
ATOM     21  C   UNL     1       5.045   4.910  15.234  0.00  0.00    +0.000 C 
BRANCH  21  22
ATOM     22  C   UNL     1       5.817   4.415  14.017  0.00  0.00    +0.000 A 
ATOM     23  C   UNL     1       7.075   4.948  13.690  0.00  0.00    +0.000 A 
ATOM     24  C   UNL     1       7.692   4.628  12.476  0.00  0.00    +0.000 A 
ATOM     25  C   UNL     1       7.091   3.715  11.612  0.00  0.00    +0.000 A 
ATOM     26  C   UNL     1       5.908   3.084  11.989  0.00  0.00    +0.000 A 
ATOM     27  C   UNL     1       5.274   3.431  13.183  0.00  0.00    +0.000 A 
ENDBRANCH  21  22
ENDBRANCH   5  21
TORSDOF 5
ENDMDL
MODEL 8
REMARK VINA RESULT:      -7.5      2.157      5.003
REMARK  Name = 
REMARK  7 active torsions:
REMARK  status: ('A' for Active; 'I' for Inactive)
REMARK    1  A    between atoms: C_1  and  C_2
REMARK    2  A    between atoms: C_5  and  C_6
REMARK    3  A    between atoms: C_6  and  C_7
REMARK    4  A    between atoms: C_15  and  C_16
REMARK    5  A    between atoms: C_15  and  C_17
REMARK    6  A    between atoms: N_19  and  C_20
REMARK    7  A    between atoms: C_20  and  C_21
REMARK                            x       y       z     vdW  Elec       q    Type
REMARK                         _______ _______ _______ _____ _____    ______ ____
ROOT
ATOM      1  C   UNL     1       2.642   2.735  21.798  0.00  0.00    +0.000 C 
ATOM      2  C   UNL     1       3.386   2.467  20.495  0.00  0.00    +0.000 C 
ATOM      3  O   UNL     1       4.412   1.806  20.519  0.00  0.00    +0.000 OA
ATOM      4  N   UNL     1       2.923   3.044  19.327  0.00  0.00    +0.000 N 
ATOM      5  C   UNL     1       3.698   2.969  18.047  0.00  0.00    +0.000 C 
ATOM      6  C   UNL     1       2.622   3.379  17.074  0.00  0.00    +0.000 C 
ATOM      7  C   UNL     1       1.568   3.907  17.689  0.00  0.00    +0.000 C 
ATOM      8  C   UNL     1       1.730   3.886  19.203  0.00  0.00    +0.000 C 
ATOM      9  C   UNL     1       0.406   3.364  19.815  0.00  0.00    +0.000 C 
ENDROOT
BRANCH   8  10
ATOM     10  C   UNL     1       2.050   5.326  19.708  0.00  0.00    +0.000 C 
ATOM     11  O   UNL     1       2.090   5.593  20.904  0.00  0.00    +0.000 OA
ATOM     12  N   UNL     1       2.349   6.269  18.744  0.00  0.00    +0.000 N 
ATOM     13  H   UNL     1       2.058   6.126  17.785  0.00  0.00    +0.000 HD
BRANCH  12  14
ATOM     14  C   UNL     1       2.764   7.612  19.080  0.00  0.00    +0.000 C 
BRANCH  14  15
ATOM     15  C   UNL     1       1.612   8.596  19.140  0.00  0.00    +0.000 A 
ATOM     16  C   UNL     1       1.053   8.920  20.377  0.00  0.00    +0.000 A 
ATOM     17  C   UNL     1      -0.019   9.809  20.426  0.00  0.00    +0.000 A 
ATOM     18  C   UNL     1      -0.507  10.351  19.244  0.00  0.00    +0.000 A 
ATOM     19  C   UNL     1       0.098   9.975  18.056  0.00  0.00    +0.000 A 
ATOM     20  N   UNL     1       1.134   9.104  17.975  0.00  0.00    +0.000 NA
ENDBRANCH  14  15
ENDBRANCH  12  14
ENDBRANCH   8  10
BRANCH   5  21
ATOM     21  C   UNL     1       4.903   3.974  17.959  0.00  0.00    +0.000 C 
BRANCH  21  22
ATOM     22  C   UNL     1       5.311   4.408  16.557  0.00  0.00    +0.000 A 
ATOM     23  C   UNL     1       5.894   3.498  15.658  0.00  0.00    +0.000 A 
ATOM     24  C   UNL     1       6.436   3.941  14.447  0.00  0.00    +0.000 A 
ATOM     25  C   UNL     1       6.335   5.284  14.092  0.00  0.00    +0.000 A 
ATOM     26  C   UNL     1       5.644   6.167  14.918  0.00  0.00    +0.000 A 
ATOM     27  C   UNL     1       5.135   5.732  16.143  0.00  0.00    +0.000 A 
ENDBRANCH  21  22
ENDBRANCH   5  21
TORSDOF 5
ENDMDL
MODEL 9
REMARK VINA RESULT:      -7.4      2.183      5.642
REMARK  Name = 
REMARK  7 active torsions:
REMARK  status: ('A' for Active; 'I' for Inactive)
REMARK    1  A    between atoms: C_1  and  C_2
REMARK    2  A    between atoms: C_5  and  C_6
REMARK    3  A    between atoms: C_6  and  C_7
REMARK    4  A    between atoms: C_15  and  C_16
REMARK    5  A    between atoms: C_15  and  C_17
REMARK    6  A    between atoms: N_19  and  C_20
REMARK    7  A    between atoms: C_20  and  C_21
REMARK                            x       y       z     vdW  Elec       q    Type
REMARK                         _______ _______ _______ _____ _____    ______ ____
ROOT
ATOM      1  C   UNL     1       2.681   2.979  16.870  0.00  0.00    +0.000 C 
ATOM      2  C   UNL     1       2.010   3.972  17.813  0.00  0.00    +0.000 C 
ATOM      3  O   UNL     1       1.507   4.984  17.353  0.00  0.00    +0.000 OA
ATOM      4  N   UNL     1       2.056   3.739  19.175  0.00  0.00    +0.000 N 
ATOM      5  C   UNL     1       1.575   4.753  20.166  0.00  0.00    +0.000 C 
ATOM      6  C   UNL     1       1.483   3.884  21.395  0.00  0.00    +0.000 C 
ATOM      7  C   UNL     1       2.103   2.720  21.230  0.00  0.00    +0.000 C 
ATOM      8  C   UNL     1       2.671   2.579  19.825  0.00  0.00    +0.000 C 
ATOM      9  C   UNL     1       2.299   1.169  19.302  0.00  0.00    +0.000 C 
ENDROOT
BRANCH   8  10
ATOM     10  C   UNL     1       4.219   2.766  19.874  0.00  0.00    +0.000 C 
ATOM     11  O   UNL     1       4.956   1.900  20.332  0.00  0.00    +0.000 OA
ATOM     12  N   UNL     1       4.721   3.925  19.317  0.00  0.00    +0.000 N 
ATOM     13  H   UNL     1       4.122   4.731  19.193  0.00  0.00    +0.000 HD
BRANCH  12  14
ATOM     14  C   UNL     1       6.141   4.175  19.204  0.00  0.00    +0.000 C 
BRANCH  14  15
ATOM     15  C   UNL     1       6.464   5.474  18.491  0.00  0.00    +0.000 A 
ATOM     16  C   UNL     1       7.656   6.137  18.786  0.00  0.00    +0.000 A 
ATOM     17  C   UNL     1       7.940   7.342  18.145  0.00  0.00    +0.000 A 
ATOM     18  C   UNL     1       7.032   7.854  17.228  0.00  0.00    +0.000 A 
ATOM     19  C   UNL     1       5.868   7.139  16.993  0.00  0.00    +0.000 A 
ATOM     20  N   UNL     1       5.558   5.972  17.611  0.00  0.00    +0.000 NA
ENDBRANCH  14  15
ENDBRANCH  12  14
ENDBRANCH   8  10
BRANCH   5  21
ATOM     21  C   UNL     1       2.580   5.933  20.426  0.00  0.00    +0.000 C 
BRANCH  21  22
ATOM     22  C   UNL     1       2.173   7.292  19.871  0.00  0.00    +0.000 A 
ATOM     23  C   UNL     1       1.432   8.201  20.646  0.00  0.00    +0.000 A 
ATOM     24  C   UNL     1       0.904   9.362  20.073  0.00  0.00    +0.000 A 
ATOM     25  C   UNL     1       1.174   9.663  18.740  0.00  0.00    +0.000 A 
ATOM     26  C   UNL     1       2.015   8.834  18.002  0.00  0.00    +0.000 A 
ATOM     27  C   UNL     1       2.513   7.657  18.563  0.00  0.00    +0.000 A 
ENDBRANCH  21  22
ENDBRANCH   5  21
TORSDOF 5
ENDMDL
