MODEL 1
REMARK VINA RESULT:      -8.5      0.000      0.000
REMARK  Name = 
REMARK  7 active torsions:
REMARK  status: ('A' for Active; 'I' for Inactive)
REMARK    1  A    between atoms: C_1  and  O_2
REMARK    2  A    between atoms: O_2  and  C_3
REMARK    3  A    between atoms: C_10  and  N_11
REMARK    4  A    between atoms: N_14  and  C_15
REMARK    5  A    between atoms: C_15  and  C_16
REMARK    6  A    between atoms: C_16  and  N_17
REMARK    7  A    between atoms: C_18  and  C_20
REMARK                            x       y       z     vdW  Elec       q    Type
REMARK                         _______ _______ _______ _____ _____    ______ ____
ROOT
ATOM      1  N   UNL     1       5.140   5.325  17.852  0.00  0.00    +0.000 N 
ATOM      2  C   UNL     1       6.175   5.626  18.855  0.00  0.00    +0.000 C 
ATOM      3  C   UNL     1       7.567   5.746  18.202  0.00  0.00    +0.000 C 
ATOM      4  N   UNL     1       7.654   6.701  17.071  0.00  0.00    +0.000 NA
ATOM      5  C   UNL     1       6.611   6.301  16.089  0.00  0.00    +0.000 C 
ATOM      6  C   UNL     1       5.169   6.182  16.652  0.00  0.00    +0.000 C 
ENDROOT
BRANCH   1  14
ATOM      7  C   UNL     1       1.569   5.656  20.467  0.00  0.00    +0.000 A 
ATOM      8  C   UNL     1       0.837   4.506  20.711  0.00  0.00    +0.000 A 
ATOM      9  C   UNL     1       1.157   3.333  20.027  0.00  0.00    +0.000 A 
ATOM     10  C   UNL     1       2.237   3.277  19.130  0.00  0.00    +0.000 A 
ATOM     11  C   UNL     1       2.499   2.079  18.459  0.00  0.00    +0.000 A 
ATOM     12  C   UNL     1       3.564   1.983  17.577  0.00  0.00    +0.000 A 
ATOM     13  C   UNL     1       4.402   3.078  17.384  0.00  0.00    +0.000 A 
ATOM     14  C   UNL     1       4.198   4.315  18.035  0.00  0.00    +0.000 A 
ATOM     15  C   UNL     1       3.050   4.420  18.900  0.00  0.00    +0.000 A 
ATOM     16  C   UNL     1       2.626   5.607  19.552  0.00  0.00    +0.000 A 
BRANCH   7  18
ATOM     17  C   UNL     1       1.724   8.020  20.277  0.00  0.00    +0.000 C 
ATOM     18  O   UNL     1       1.383   6.879  21.050  0.00  0.00    +0.000 OA
ENDBRANCH   7  18
ENDBRANCH   1  14
BRANCH   4  19
ATOM     19  C   UNL     1       7.467   8.102  17.499  0.00  0.00    +0.000 C 
BRANCH  19  20
ATOM     20  C   UNL     1       8.503   8.581  18.538  0.00  0.00    +0.000 C 
BRANCH  20  21
ATOM     21  N   UNL     1       9.058   9.879  18.203  0.00  0.00    +0.000 N 
ATOM     22  C   UNL     1       9.470  10.749  19.194  0.00  0.00    +0.000 C 
ATOM     23  O   UNL     1       9.369  10.508  20.395  0.00  0.00    +0.000 OA
ATOM     24  H   UNL     1       9.297  10.057  17.238  0.00  0.00    +0.000 HD
BRANCH  22  25
ATOM     25  C   UNL     1      10.087  12.022  18.738  0.00  0.00    +0.000 A 
ATOM     26  C   UNL     1      10.717  12.126  17.487  0.00  0.00    +0.000 A 
ATOM     27  C   UNL     1      11.272  13.345  17.091  0.00  0.00    +0.000 A 
ATOM     28  C   UNL     1      11.190  14.446  17.935  0.00  0.00    +0.000 A 
ATOM     29  F   UNL     1      11.719  15.612  17.547  0.00  0.00    +0.000 F 
ATOM     30  C   UNL     1      10.558  14.359  19.171  0.00  0.00    +0.000 A 
ATOM     31  C   UNL     1      10.001  13.144  19.572  0.00  0.00    +0.000 A 
ENDBRANCH  22  25
ENDBRANCH  20  21
ENDBRANCH  19  20
ENDBRANCH   4  19
TORSDOF 6
ENDMDL
MODEL 2
REMARK VINA RESULT:      -8.3      0.742      1.056
REMARK  Name = 
REMARK  7 active torsions:
REMARK  status: ('A' for Active; 'I' for Inactive)
REMARK    1  A    between atoms: C_1  and  O_2
REMARK    2  A    between atoms: O_2  and  C_3
REMARK    3  A    between atoms: C_10  and  N_11
REMARK    4  A    between atoms: N_14  and  C_15
REMARK    5  A    between atoms: C_15  and  C_16
REMARK    6  A    between atoms: C_16  and  N_17
REMARK    7  A    between atoms: C_18  and  C_20
REMARK                            x       y       z     vdW  Elec       q    Type
REMARK                         _______ _______ _______ _____ _____    ______ ____
ROOT
ATOM      1  N   UNL     1       5.007   5.107  17.779  0.00  0.00    +0.000 N 
ATOM      2  C   UNL     1       5.881   5.687  18.812  0.00  0.00    +0.000 C 
ATOM      3  C   UNL     1       7.369   5.551  18.426  0.00  0.00    +0.000 C 
ATOM      4  N   UNL     1       7.726   6.087  17.091  0.00  0.00    +0.000 NA
ATOM      5  C   UNL     1       6.832   5.421  16.106  0.00  0.00    +0.000 C 
ATOM      6  C   UNL     1       5.311   5.529  16.399  0.00  0.00    +0.000 C 
ENDROOT
BRANCH   1  14
ATOM      7  C   UNL     1       1.569   6.127  20.394  0.00  0.00    +0.000 A 
ATOM      8  C   UNL     1       0.722   5.102  20.777  0.00  0.00    +0.000 A 
ATOM      9  C   UNL     1       0.890   3.831  20.226  0.00  0.00    +0.000 A 
ATOM     10  C   UNL     1       1.932   3.555  19.324  0.00  0.00    +0.000 A 
ATOM     11  C   UNL     1       2.042   2.268  18.789  0.00  0.00    +0.000 A 
ATOM     12  C   UNL     1       3.064   1.955  17.908  0.00  0.00    +0.000 A 
ATOM     13  C   UNL     1       4.013   2.920  17.580  0.00  0.00    +0.000 A 
ATOM     14  C   UNL     1       3.965   4.236  18.089  0.00  0.00    +0.000 A 
ATOM     15  C   UNL     1       2.861   4.565  18.954  0.00  0.00    +0.000 A 
ATOM     16  C   UNL     1       2.589   5.858  19.474  0.00  0.00    +0.000 A 
BRANCH   7  18
ATOM     17  C   UNL     1       0.341   7.855  21.469  0.00  0.00    +0.000 C 
ATOM     18  O   UNL     1       1.536   7.420  20.836  0.00  0.00    +0.000 OA
ENDBRANCH   7  18
ENDBRANCH   1  14
BRANCH   4  19
ATOM     19  C   UNL     1       7.591   7.556  17.017  0.00  0.00    +0.000 C 
BRANCH  19  20
ATOM     20  C   UNL     1       8.228   8.303  18.207  0.00  0.00    +0.000 C 
BRANCH  20  21
ATOM     21  N   UNL     1       8.682   9.632  17.844  0.00  0.00    +0.000 N 
ATOM     22  C   UNL     1       9.234  10.474  18.790  0.00  0.00    +0.000 C 
ATOM     23  O   UNL     1       9.348  10.179  19.978  0.00  0.00    +0.000 OA
ATOM     24  H   UNL     1       8.745   9.859  16.862  0.00  0.00    +0.000 HD
BRANCH  22  25
ATOM     25  C   UNL     1       9.727  11.786  18.296  0.00  0.00    +0.000 A 
ATOM     26  C   UNL     1       8.983  12.964  18.472  0.00  0.00    +0.000 A 
ATOM     27  C   UNL     1       9.489  14.179  18.006  0.00  0.00    +0.000 A 
ATOM     28  C   UNL     1      10.727  14.213  17.376  0.00  0.00    +0.000 A 
ATOM     29  F   UNL     1      11.209  15.381  16.935  0.00  0.00    +0.000 F 
ATOM     30  C   UNL     1      11.480  13.055  17.205  0.00  0.00    +0.000 A 
ATOM     31  C   UNL     1      10.979  11.838  17.670  0.00  0.00    +0.000 A 
ENDBRANCH  22  25
ENDBRANCH  20  21
ENDBRANCH  19  20
ENDBRANCH   4  19
TORSDOF 6
ENDMDL
MODEL 3
REMARK VINA RESULT:      -7.7      5.665      9.270
REMARK  Name = 
REMARK  7 active torsions:
REMARK  status: ('A' for Active; 'I' for Inactive)
REMARK    1  A    between atoms: C_1  and  O_2
REMARK    2  A    between atoms: O_2  and  C_3
REMARK    3  A    between atoms: C_10  and  N_11
REMARK    4  A    between atoms: N_14  and  C_15
REMARK    5  A    between atoms: C_15  and  C_16
REMARK    6  A    between atoms: C_16  and  N_17
REMARK    7  A    between atoms: C_18  and  C_20
REMARK                            x       y       z     vdW  Elec       q    Type
REMARK                         _______ _______ _______ _____ _____    ______ ____
ROOT
ATOM      1  N   UNL     1       2.263   7.567  18.614  0.00  0.00    +0.000 N 
ATOM      2  C   UNL     1       2.075   8.668  17.654  0.00  0.00    +0.000 C 
ATOM      3  C   UNL     1       0.727   9.383  17.880  0.00  0.00    +0.000 C 
ATOM      4  N   UNL     1       0.490   9.860  19.263  0.00  0.00    +0.000 NA
ATOM      5  C   UNL     1       0.653   8.684  20.159  0.00  0.00    +0.000 C 
ATOM      6  C   UNL     1       1.996   7.916  20.021  0.00  0.00    +0.000 C 
ENDROOT
BRANCH   1  14
ATOM      7  C   UNL     1       6.232   6.638  16.858  0.00  0.00    +0.000 A 
ATOM      8  C   UNL     1       6.423   5.376  16.324  0.00  0.00    +0.000 A 
ATOM      9  C   UNL     1       5.429   4.409  16.478  0.00  0.00    +0.000 A 
ATOM     10  C   UNL     1       4.215   4.700  17.122  0.00  0.00    +0.000 A 
ATOM     11  C   UNL     1       3.263   3.687  17.264  0.00  0.00    +0.000 A 
ATOM     12  C   UNL     1       2.049   3.940  17.882  0.00  0.00    +0.000 A 
ATOM     13  C   UNL     1       1.759   5.226  18.335  0.00  0.00    +0.000 A 
ATOM     14  C   UNL     1       2.673   6.296  18.217  0.00  0.00    +0.000 A 
ATOM     15  C   UNL     1       3.956   6.003  17.630  0.00  0.00    +0.000 A 
ATOM     16  C   UNL     1       5.035   6.920  17.525  0.00  0.00    +0.000 A 
BRANCH   7  18
ATOM     17  C   UNL     1       7.901   7.936  17.944  0.00  0.00    +0.000 C 
ATOM     18  O   UNL     1       7.103   7.690  16.795  0.00  0.00    +0.000 OA
ENDBRANCH   7  18
ENDBRANCH   1  14
BRANCH   4  19
ATOM     19  C   UNL     1       1.408  10.951  19.650  0.00  0.00    +0.000 C 
BRANCH  19  20
ATOM     20  C   UNL     1       1.257  11.406  21.116  0.00  0.00    +0.000 C 
BRANCH  20  21
ATOM     21  N   UNL     1      -0.021  12.047  21.365  0.00  0.00    +0.000 N 
ATOM     22  C   UNL     1      -0.766  11.729  22.483  0.00  0.00    +0.000 C 
ATOM     23  O   UNL     1      -0.428  10.881  23.307  0.00  0.00    +0.000 OA
ATOM     24  H   UNL     1      -0.266  12.849  20.801  0.00  0.00    +0.000 HD
BRANCH  22  25
ATOM     25  C   UNL     1      -2.026  12.494  22.674  0.00  0.00    +0.000 A 
ATOM     26  C   UNL     1      -3.015  12.067  23.575  0.00  0.00    +0.000 A 
ATOM     27  C   UNL     1      -4.178  12.823  23.736  0.00  0.00    +0.000 A 
ATOM     28  C   UNL     1      -4.343  13.995  23.008  0.00  0.00    +0.000 A 
ATOM     29  F   UNL     1      -5.458  14.718  23.171  0.00  0.00    +0.000 F 
ATOM     30  C   UNL     1      -3.366  14.436  22.121  0.00  0.00    +0.000 A 
ATOM     31  C   UNL     1      -2.201  13.685  21.957  0.00  0.00    +0.000 A 
ENDBRANCH  22  25
ENDBRANCH  20  21
ENDBRANCH  19  20
ENDBRANCH   4  19
TORSDOF 6
ENDMDL
MODEL 4
REMARK VINA RESULT:      -7.7      5.796      9.523
REMARK  Name = 
REMARK  7 active torsions:
REMARK  status: ('A' for Active; 'I' for Inactive)
REMARK    1  A    between atoms: C_1  and  O_2
REMARK    2  A    between atoms: O_2  and  C_3
REMARK    3  A    between atoms: C_10  and  N_11
REMARK    4  A    between atoms: N_14  and  C_15
REMARK    5  A    between atoms: C_15  and  C_16
REMARK    6  A    between atoms: C_16  and  N_17
REMARK    7  A    between atoms: C_18  and  C_20
REMARK                            x       y       z     vdW  Elec       q    Type
REMARK                         _______ _______ _______ _____ _____    ______ ____
ROOT
ATOM      1  N   UNL     1       2.240   7.594  18.667  0.00  0.00    +0.000 N 
ATOM      2  C   UNL     1       2.022   8.709  17.730  0.00  0.00    +0.000 C 
ATOM      3  C   UNL     1       0.674   9.410  17.998  0.00  0.00    +0.000 C 
ATOM      4  N   UNL     1       0.465   9.862  19.394  0.00  0.00    +0.000 NA
ATOM      5  C   UNL     1       0.658   8.674  20.267  0.00  0.00    +0.000 C 
ATOM      6  C   UNL     1       2.003   7.919  20.085  0.00  0.00    +0.000 C 
ENDROOT
BRANCH   1  14
ATOM      7  C   UNL     1       6.220   6.704  16.917  0.00  0.00    +0.000 A 
ATOM      8  C   UNL     1       6.413   5.456  16.351  0.00  0.00    +0.000 A 
ATOM      9  C   UNL     1       5.416   4.487  16.472  0.00  0.00    +0.000 A 
ATOM     10  C   UNL     1       4.198   4.764  17.116  0.00  0.00    +0.000 A 
ATOM     11  C   UNL     1       3.243   3.749  17.224  0.00  0.00    +0.000 A 
ATOM     12  C   UNL     1       2.025   3.989  17.840  0.00  0.00    +0.000 A 
ATOM     13  C   UNL     1       1.734   5.263  18.323  0.00  0.00    +0.000 A 
ATOM     14  C   UNL     1       2.651   6.333  18.240  0.00  0.00    +0.000 A 
ATOM     15  C   UNL     1       3.938   6.053  17.655  0.00  0.00    +0.000 A 
ATOM     16  C   UNL     1       5.019   6.970  17.582  0.00  0.00    +0.000 A 
BRANCH   7  18
ATOM     17  C   UNL     1       7.984   7.885  17.987  0.00  0.00    +0.000 C 
ATOM     18  O   UNL     1       7.094   7.755  16.888  0.00  0.00    +0.000 OA
ENDBRANCH   7  18
ENDBRANCH   1  14
BRANCH   4  19
ATOM     19  C   UNL     1       1.384  10.954  19.778  0.00  0.00    +0.000 C 
BRANCH  19  20
ATOM     20  C   UNL     1       0.737  12.354  19.750  0.00  0.00    +0.000 C 
BRANCH  20  21
ATOM     21  N   UNL     1      -0.325  12.490  20.730  0.00  0.00    +0.000 N 
ATOM     22  C   UNL     1      -1.650  12.492  20.341  0.00  0.00    +0.000 C 
ATOM     23  O   UNL     1      -2.015  12.414  19.169  0.00  0.00    +0.000 OA
ATOM     24  H   UNL     1      -0.081  12.406  21.707  0.00  0.00    +0.000 HD
BRANCH  22  25
ATOM     25  C   UNL     1      -2.656  12.568  21.432  0.00  0.00    +0.000 A 
ATOM     26  C   UNL     1      -2.319  12.275  22.764  0.00  0.00    +0.000 A 
ATOM     27  C   UNL     1      -3.291  12.373  23.761  0.00  0.00    +0.000 A 
ATOM     28  C   UNL     1      -4.583  12.763  23.429  0.00  0.00    +0.000 A 
ATOM     29  F   UNL     1      -5.509  12.859  24.390  0.00  0.00    +0.000 F 
ATOM     30  C   UNL     1      -4.928  13.067  22.115  0.00  0.00    +0.000 A 
ATOM     31  C   UNL     1      -3.959  12.973  21.114  0.00  0.00    +0.000 A 
ENDBRANCH  22  25
ENDBRANCH  20  21
ENDBRANCH  19  20
ENDBRANCH   4  19
TORSDOF 6
ENDMDL
MODEL 5
REMARK VINA RESULT:      -7.7      5.693      9.238
REMARK  Name = 
REMARK  7 active torsions:
REMARK  status: ('A' for Active; 'I' for Inactive)
REMARK    1  A    between atoms: C_1  and  O_2
REMARK    2  A    between atoms: O_2  and  C_3
REMARK    3  A    between atoms: C_10  and  N_11
REMARK    4  A    between atoms: N_14  and  C_15
REMARK    5  A    between atoms: C_15  and  C_16
REMARK    6  A    between atoms: C_16  and  N_17
REMARK    7  A    between atoms: C_18  and  C_20
REMARK                            x       y       z     vdW  Elec       q    Type
REMARK                         _______ _______ _______ _____ _____    ______ ____
ROOT
ATOM      1  N   UNL     1       2.336   7.416  18.558  0.00  0.00    +0.000 N 
ATOM      2  C   UNL     1       2.101   8.509  17.599  0.00  0.00    +0.000 C 
ATOM      3  C   UNL     1       0.779   9.244  17.903  0.00  0.00    +0.000 C 
ATOM      4  N   UNL     1       0.637   9.739  19.293  0.00  0.00    +0.000 NA
ATOM      5  C   UNL     1       0.844   8.572  20.190  0.00  0.00    +0.000 C 
ATOM      6  C   UNL     1       2.166   7.785  19.975  0.00  0.00    +0.000 C 
ENDROOT
BRANCH   1  14
ATOM      7  C   UNL     1       6.256   6.381  16.752  0.00  0.00    +0.000 A 
ATOM      8  C   UNL     1       6.404   5.117  16.210  0.00  0.00    +0.000 A 
ATOM      9  C   UNL     1       5.385   4.178  16.371  0.00  0.00    +0.000 A 
ATOM     10  C   UNL     1       4.187   4.502  17.031  0.00  0.00    +0.000 A 
ATOM     11  C   UNL     1       3.208   3.515  17.180  0.00  0.00    +0.000 A 
ATOM     12  C   UNL     1       2.009   3.801  17.813  0.00  0.00    +0.000 A 
ATOM     13  C   UNL     1       1.762   5.092  18.274  0.00  0.00    +0.000 A 
ATOM     14  C   UNL     1       2.705   6.136  18.151  0.00  0.00    +0.000 A 
ATOM     15  C   UNL     1       3.972   5.808  17.547  0.00  0.00    +0.000 A 
ATOM     16  C   UNL     1       5.075   6.694  17.434  0.00  0.00    +0.000 A 
BRANCH   7  18
ATOM     17  C   UNL     1       7.832   7.754  17.884  0.00  0.00    +0.000 C 
ATOM     18  O   UNL     1       7.157   7.408  16.683  0.00  0.00    +0.000 OA
ENDBRANCH   7  18
ENDBRANCH   1  14
BRANCH   4  19
ATOM     19  C   UNL     1       1.591  10.822  19.606  0.00  0.00    +0.000 C 
BRANCH  19  20
ATOM     20  C   UNL     1       0.980  12.236  19.530  0.00  0.00    +0.000 C 
BRANCH  20  21
ATOM     21  N   UNL     1      -0.366  12.284  20.069  0.00  0.00    +0.000 N 
ATOM     22  C   UNL     1      -0.593  12.678  21.373  0.00  0.00    +0.000 C 
ATOM     23  O   UNL     1       0.305  12.977  22.158  0.00  0.00    +0.000 OA
ATOM     24  H   UNL     1      -1.138  12.193  19.423  0.00  0.00    +0.000 HD
BRANCH  22  25
ATOM     25  C   UNL     1      -2.014  12.756  21.800  0.00  0.00    +0.000 A 
ATOM     26  C   UNL     1      -3.037  13.078  20.892  0.00  0.00    +0.000 A 
ATOM     27  C   UNL     1      -4.362  13.127  21.332  0.00  0.00    +0.000 A 
ATOM     28  C   UNL     1      -4.657  12.852  22.661  0.00  0.00    +0.000 A 
ATOM     29  F   UNL     1      -5.929  12.895  23.075  0.00  0.00    +0.000 F 
ATOM     30  C   UNL     1      -3.655  12.521  23.568  0.00  0.00    +0.000 A 
ATOM     31  C   UNL     1      -2.329  12.469  23.134  0.00  0.00    +0.000 A 
ENDBRANCH  22  25
ENDBRANCH  20  21
ENDBRANCH  19  20
ENDBRANCH   4  19
TORSDOF 6
ENDMDL
MODEL 6
REMARK VINA RESULT:      -7.7      5.713      9.377
REMARK  Name = 
REMARK  7 active torsions:
REMARK  status: ('A' for Active; 'I' for Inactive)
REMARK    1  A    between atoms: C_1  and  O_2
REMARK    2  A    between atoms: O_2  and  C_3
REMARK    3  A    between atoms: C_10  and  N_11
REMARK    4  A    between atoms: N_14  and  C_15
REMARK    5  A    between atoms: C_15  and  C_16
REMARK    6  A    between atoms: C_16  and  N_17
REMARK    7  A    between atoms: C_18  and  C_20
REMARK                            x       y       z     vdW  Elec       q    Type
REMARK                         _______ _______ _______ _____ _____    ______ ____
ROOT
ATOM      1  N   UNL     1       2.378   7.340  18.565  0.00  0.00    +0.000 N 
ATOM      2  C   UNL     1       2.221   8.467  17.631  0.00  0.00    +0.000 C 
ATOM      3  C   UNL     1       0.896   9.217  17.878  0.00  0.00    +0.000 C 
ATOM      4  N   UNL     1       0.677   9.670  19.272  0.00  0.00    +0.000 NA
ATOM      5  C   UNL     1       0.808   8.470  20.141  0.00  0.00    +0.000 C 
ATOM      6  C   UNL     1       2.127   7.666  19.981  0.00  0.00    +0.000 C 
ENDROOT
BRANCH   1  14
ATOM      7  C   UNL     1       6.291   6.345  16.722  0.00  0.00    +0.000 A 
ATOM      8  C   UNL     1       6.441   5.088  16.163  0.00  0.00    +0.000 A 
ATOM      9  C   UNL     1       5.426   4.143  16.317  0.00  0.00    +0.000 A 
ATOM     10  C   UNL     1       4.231   4.453  16.989  0.00  0.00    +0.000 A 
ATOM     11  C   UNL     1       3.257   3.461  17.130  0.00  0.00    +0.000 A 
ATOM     12  C   UNL     1       2.060   3.734  17.774  0.00  0.00    +0.000 A 
ATOM     13  C   UNL     1       1.811   5.018  18.254  0.00  0.00    +0.000 A 
ATOM     14  C   UNL     1       2.750   6.066  18.139  0.00  0.00    +0.000 A 
ATOM     15  C   UNL     1       4.014   5.752  17.524  0.00  0.00    +0.000 A 
ATOM     16  C   UNL     1       5.114   6.644  17.416  0.00  0.00    +0.000 A 
BRANCH   7  18
ATOM     17  C   UNL     1       7.713   7.845  17.895  0.00  0.00    +0.000 C 
ATOM     18  O   UNL     1       7.188   7.375  16.663  0.00  0.00    +0.000 OA
ENDBRANCH   7  18
ENDBRANCH   1  14
BRANCH   4  19
ATOM     19  C   UNL     1       1.629  10.724  19.679  0.00  0.00    +0.000 C 
BRANCH  19  20
ATOM     20  C   UNL     1       0.954  12.000  20.223  0.00  0.00    +0.000 C 
BRANCH  20  21
ATOM     21  N   UNL     1      -0.494  11.915  20.189  0.00  0.00    +0.000 N 
ATOM     22  C   UNL     1      -1.212  12.466  19.146  0.00  0.00    +0.000 C 
ATOM     23  O   UNL     1      -0.694  13.080  18.215  0.00  0.00    +0.000 OA
ATOM     24  H   UNL     1      -0.947  11.297  20.848  0.00  0.00    +0.000 HD
BRANCH  22  25
ATOM     25  C   UNL     1      -2.683  12.261  19.178  0.00  0.00    +0.000 A 
ATOM     26  C   UNL     1      -3.340  11.505  18.194  0.00  0.00    +0.000 A 
ATOM     27  C   UNL     1      -4.723  11.324  18.269  0.00  0.00    +0.000 A 
ATOM     28  C   UNL     1      -5.436  11.891  19.318  0.00  0.00    +0.000 A 
ATOM     29  F   UNL     1      -6.760  11.710  19.386  0.00  0.00    +0.000 F 
ATOM     30  C   UNL     1      -4.796  12.633  20.306  0.00  0.00    +0.000 A 
ATOM     31  C   UNL     1      -3.414  12.816  20.237  0.00  0.00    +0.000 A 
ENDBRANCH  22  25
ENDBRANCH  20  21
ENDBRANCH  19  20
ENDBRANCH   4  19
TORSDOF 6
ENDMDL
MODEL 7
REMARK VINA RESULT:      -7.7      1.571      1.877
REMARK  Name = 
REMARK  7 active torsions:
REMARK  status: ('A' for Active; 'I' for Inactive)
REMARK    1  A    between atoms: C_1  and  O_2
REMARK    2  A    between atoms: O_2  and  C_3
REMARK    3  A    between atoms: C_10  and  N_11
REMARK    4  A    between atoms: N_14  and  C_15
REMARK    5  A    between atoms: C_15  and  C_16
REMARK    6  A    between atoms: C_16  and  N_17
REMARK    7  A    between atoms: C_18  and  C_20
REMARK                            x       y       z     vdW  Elec       q    Type
REMARK                         _______ _______ _______ _____ _____    ______ ____
ROOT
ATOM      1  N   UNL     1       5.207   5.090  18.078  0.00  0.00    +0.000 N 
ATOM      2  C   UNL     1       6.584   4.816  18.523  0.00  0.00    +0.000 C 
ATOM      3  C   UNL     1       7.611   5.231  17.450  0.00  0.00    +0.000 C 
ATOM      4  N   UNL     1       7.494   6.628  16.969  0.00  0.00    +0.000 NA
ATOM      5  C   UNL     1       6.095   6.807  16.499  0.00  0.00    +0.000 C 
ATOM      6  C   UNL     1       4.989   6.440  17.526  0.00  0.00    +0.000 C 
ENDROOT
BRANCH   1  14
ATOM      7  C   UNL     1       1.512   5.632  20.476  0.00  0.00    +0.000 A 
ATOM      8  C   UNL     1       0.690   4.533  20.653  0.00  0.00    +0.000 A 
ATOM      9  C   UNL     1       0.970   3.350  19.970  0.00  0.00    +0.000 A 
ATOM     10  C   UNL     1       2.097   3.231  19.139  0.00  0.00    +0.000 A 
ATOM     11  C   UNL     1       2.318   2.028  18.463  0.00  0.00    +0.000 A 
ATOM     12  C   UNL     1       3.426   1.870  17.647  0.00  0.00    +0.000 A 
ATOM     13  C   UNL     1       4.348   2.907  17.525  0.00  0.00    +0.000 A 
ATOM     14  C   UNL     1       4.189   4.145  18.184  0.00  0.00    +0.000 A 
ATOM     15  C   UNL     1       3.000   4.318  18.980  0.00  0.00    +0.000 A 
ATOM     16  C   UNL     1       2.618   5.523  19.626  0.00  0.00    +0.000 A 
BRANCH   7  18
ATOM     17  C   UNL     1       1.737   7.991  20.295  0.00  0.00    +0.000 C 
ATOM     18  O   UNL     1       1.375   6.857  21.068  0.00  0.00    +0.000 OA
ENDBRANCH   7  18
ENDBRANCH   1  14
BRANCH   4  19
ATOM     19  C   UNL     1       7.830   7.615  18.017  0.00  0.00    +0.000 C 
BRANCH  19  20
ATOM     20  C   UNL     1       8.269   8.987  17.466  0.00  0.00    +0.000 C 
BRANCH  20  21
ATOM     21  N   UNL     1       8.410   9.981  18.512  0.00  0.00    +0.000 N 
ATOM     22  C   UNL     1       9.412  10.930  18.457  0.00  0.00    +0.000 C 
ATOM     23  O   UNL     1      10.252  10.980  17.560  0.00  0.00    +0.000 OA
ATOM     24  H   UNL     1       7.660  10.072  19.183  0.00  0.00    +0.000 HD
BRANCH  22  25
ATOM     25  C   UNL     1       9.422  11.943  19.545  0.00  0.00    +0.000 A 
ATOM     26  C   UNL     1       9.140  13.295  19.292  0.00  0.00    +0.000 A 
ATOM     27  C   UNL     1       9.145  14.211  20.346  0.00  0.00    +0.000 A 
ATOM     28  C   UNL     1       9.425  13.777  21.636  0.00  0.00    +0.000 A 
ATOM     29  F   UNL     1       9.424  14.659  22.642  0.00  0.00    +0.000 F 
ATOM     30  C   UNL     1       9.695  12.438  21.902  0.00  0.00    +0.000 A 
ATOM     31  C   UNL     1       9.689  11.517  20.852  0.00  0.00    +0.000 A 
ENDBRANCH  22  25
ENDBRANCH  20  21
ENDBRANCH  19  20
ENDBRANCH   4  19
TORSDOF 6
ENDMDL
MODEL 8
REMARK VINA RESULT:      -7.5      5.859      9.573
REMARK  Name = 
REMARK  7 active torsions:
REMARK  status: ('A' for Active; 'I' for Inactive)
REMARK    1  A    between atoms: C_1  and  O_2
REMARK    2  A    between atoms: O_2  and  C_3
REMARK    3  A    between atoms: C_10  and  N_11
REMARK    4  A    between atoms: N_14  and  C_15
REMARK    5  A    between atoms: C_15  and  C_16
REMARK    6  A    between atoms: C_16  and  N_17
REMARK    7  A    between atoms: C_18  and  C_20
REMARK                            x       y       z     vdW  Elec       q    Type
REMARK                         _______ _______ _______ _____ _____    ______ ____
ROOT
ATOM      1  N   UNL     1       2.312   7.505  18.605  0.00  0.00    +0.000 N 
ATOM      2  C   UNL     1       2.126   8.634  17.679  0.00  0.00    +0.000 C 
ATOM      3  C   UNL     1       0.777   9.342  17.925  0.00  0.00    +0.000 C 
ATOM      4  N   UNL     1       0.539   9.777  19.322  0.00  0.00    +0.000 NA
ATOM      5  C   UNL     1       0.702   8.575  20.182  0.00  0.00    +0.000 C 
ATOM      6  C   UNL     1       2.044   7.812  20.022  0.00  0.00    +0.000 C 
ENDROOT
BRANCH   1  14
ATOM      7  C   UNL     1       6.295   6.623  16.857  0.00  0.00    +0.000 A 
ATOM      8  C   UNL     1       6.488   5.378  16.283  0.00  0.00    +0.000 A 
ATOM      9  C   UNL     1       5.490   4.409  16.395  0.00  0.00    +0.000 A 
ATOM     10  C   UNL     1       4.270   4.683  17.038  0.00  0.00    +0.000 A 
ATOM     11  C   UNL     1       3.314   3.668  17.138  0.00  0.00    +0.000 A 
ATOM     12  C   UNL     1       2.095   3.905  17.752  0.00  0.00    +0.000 A 
ATOM     13  C   UNL     1       1.805   5.176  18.244  0.00  0.00    +0.000 A 
ATOM     14  C   UNL     1       2.723   6.246  18.170  0.00  0.00    +0.000 A 
ATOM     15  C   UNL     1       4.010   5.969  17.586  0.00  0.00    +0.000 A 
ATOM     16  C   UNL     1       5.092   6.886  17.522  0.00  0.00    +0.000 A 
BRANCH   7  18
ATOM     17  C   UNL     1       8.000   7.843  17.977  0.00  0.00    +0.000 C 
ATOM     18  O   UNL     1       7.170   7.673  16.837  0.00  0.00    +0.000 OA
ENDBRANCH   7  18
ENDBRANCH   1  14
BRANCH   4  19
ATOM     19  C   UNL     1       1.457  10.856  19.742  0.00  0.00    +0.000 C 
BRANCH  19  20
ATOM     20  C   UNL     1       0.790  11.943  20.610  0.00  0.00    +0.000 C 
BRANCH  20  21
ATOM     21  N   UNL     1      -0.658  11.856  20.585  0.00  0.00    +0.000 N 
ATOM     22  C   UNL     1      -1.419  12.889  20.075  0.00  0.00    +0.000 C 
ATOM     23  O   UNL     1      -0.942  13.938  19.648  0.00  0.00    +0.000 OA
ATOM     24  H   UNL     1      -1.082  10.961  20.785  0.00  0.00    +0.000 HD
BRANCH  22  25
ATOM     25  C   UNL     1      -2.889  12.667  20.035  0.00  0.00    +0.000 A 
ATOM     26  C   UNL     1      -3.738  13.198  21.019  0.00  0.00    +0.000 A 
ATOM     27  C   UNL     1      -5.115  12.978  20.936  0.00  0.00    +0.000 A 
ATOM     28  C   UNL     1      -5.632  12.239  19.879  0.00  0.00    +0.000 A 
ATOM     29  F   UNL     1      -6.953  12.036  19.803  0.00  0.00    +0.000 F 
ATOM     30  C   UNL     1      -4.803  11.717  18.892  0.00  0.00    +0.000 A 
ATOM     31  C   UNL     1      -3.426  11.935  18.968  0.00  0.00    +0.000 A 
ENDBRANCH  22  25
ENDBRANCH  20  21
ENDBRANCH  19  20
ENDBRANCH   4  19
TORSDOF 6
ENDMDL
MODEL 9
REMARK VINA RESULT:      -7.3      5.826      9.309
REMARK  Name = 
REMARK  7 active torsions:
REMARK  status: ('A' for Active; 'I' for Inactive)
REMARK    1  A    between atoms: C_1  and  O_2
REMARK    2  A    between atoms: O_2  and  C_3
REMARK    3  A    between atoms: C_10  and  N_11
REMARK    4  A    between atoms: N_14  and  C_15
REMARK    5  A    between atoms: C_15  and  C_16
REMARK    6  A    between atoms: C_16  and  N_17
REMARK    7  A    between atoms: C_18  and  C_20
REMARK                            x       y       z     vdW  Elec       q    Type
REMARK                         _______ _______ _______ _____ _____    ______ ____
ROOT
ATOM      1  N   UNL     1       2.064   7.783  19.523  0.00  0.00    +0.000 N 
ATOM      2  C   UNL     1       2.222   8.546  18.273  0.00  0.00    +0.000 C 
ATOM      3  C   UNL     1       0.940   9.336  17.936  0.00  0.00    +0.000 C 
ATOM      4  N   UNL     1       0.439  10.217  19.017  0.00  0.00    +0.000 NA
ATOM      5  C   UNL     1       0.266   9.365  20.223  0.00  0.00    +0.000 C 
ATOM      6  C   UNL     1       1.516   8.551  20.655  0.00  0.00    +0.000 C 
ENDROOT
BRANCH   1  14
ATOM      7  C   UNL     1       5.448   5.906  17.349  0.00  0.00    +0.000 A 
ATOM      8  C   UNL     1       5.556   4.527  17.387  0.00  0.00    +0.000 A 
ATOM      9  C   UNL     1       4.696   3.795  18.208  0.00  0.00    +0.000 A 
ATOM     10  C   UNL     1       3.690   4.422  18.962  0.00  0.00    +0.000 A 
ATOM     11  C   UNL     1       2.871   3.640  19.781  0.00  0.00    +0.000 A 
ATOM     12  C   UNL     1       1.860   4.223  20.529  0.00  0.00    +0.000 A 
ATOM     13  C   UNL     1       1.634   5.594  20.436  0.00  0.00    +0.000 A 
ATOM     14  C   UNL     1       2.420   6.440  19.624  0.00  0.00    +0.000 A 
ATOM     15  C   UNL     1       3.508   5.831  18.901  0.00  0.00    +0.000 A 
ATOM     16  C   UNL     1       4.465   6.533  18.122  0.00  0.00    +0.000 A 
BRANCH   7  18
ATOM     17  C   UNL     1       7.427   7.211  17.179  0.00  0.00    +0.000 C 
ATOM     18  O   UNL     1       6.209   6.762  16.603  0.00  0.00    +0.000 OA
ENDBRANCH   7  18
ENDBRANCH   1  14
BRANCH   4  19
ATOM     19  C   UNL     1       1.352  11.346  19.295  0.00  0.00    +0.000 C 
BRANCH  19  20
ATOM     20  C   UNL     1       0.663  12.726  19.278  0.00  0.00    +0.000 C 
BRANCH  20  21
ATOM     21  N   UNL     1      -0.641  12.698  19.914  0.00  0.00    +0.000 N 
ATOM     22  C   UNL     1      -0.760  12.777  21.288  0.00  0.00    +0.000 C 
ATOM     23  O   UNL     1       0.203  12.841  22.051  0.00  0.00    +0.000 OA
ATOM     24  H   UNL     1      -1.457  12.797  19.326  0.00  0.00    +0.000 HD
BRANCH  22  25
ATOM     25  C   UNL     1      -2.144  12.809  21.829  0.00  0.00    +0.000 A 
ATOM     26  C   UNL     1      -3.250  13.057  21.001  0.00  0.00    +0.000 A 
ATOM     27  C   UNL     1      -4.535  13.064  21.546  0.00  0.00    +0.000 A 
ATOM     28  C   UNL     1      -4.709  12.821  22.903  0.00  0.00    +0.000 A 
ATOM     29  F   UNL     1      -5.944  12.824  23.419  0.00  0.00    +0.000 F 
ATOM     30  C   UNL     1      -3.622  12.563  23.733  0.00  0.00    +0.000 A 
ATOM     31  C   UNL     1      -2.335  12.552  23.193  0.00  0.00    +0.000 A 
ENDBRANCH  22  25
ENDBRANCH  20  21
ENDBRANCH  19  20
ENDBRANCH   4  19
TORSDOF 6
ENDMDL
