MODEL 1
REMARK VINA RESULT:      -7.8      0.000      0.000
REMARK  Name = 
REMARK  5 active torsions:
REMARK  status: ('A' for Active; 'I' for Inactive)
REMARK    1  A    between atoms: O_1  and  C_2
REMARK    2  A    between atoms: N_6  and  C_7
REMARK    3  A    between atoms: C_9  and  C_10
REMARK    4  A    between atoms: N_20  and  C_21
REMARK    5  A    between atoms: C_21  and  C_22
REMARK                            x       y       z     vdW  Elec       q    Type
REMARK                         _______ _______ _______ _____ _____    ______ ____
ROOT
ATOM      1  C   UNL     1       2.325   5.602  19.172  0.00  0.00    +0.000 A 
ATOM      2  N   UNL     1       1.663   6.613  19.786  0.00  0.00    +0.000 NA
ATOM      3  C   UNL     1       1.942   7.893  19.450  0.00  0.00    +0.000 A 
ATOM      4  N   UNL     1       2.836   8.240  18.513  0.00  0.00    +0.000 NA
ATOM      5  C   UNL     1       3.472   7.244  17.883  0.00  0.00    +0.000 A 
ATOM      6  C   UNL     1       3.248   5.900  18.160  0.00  0.00    +0.000 A 
ATOM      7  C   UNL     1       4.048   4.874  17.417  0.00  0.00    +0.000 C 
ATOM      8  N   UNL     1       4.777   5.307  16.204  0.00  0.00    +0.000 NA
ATOM      9  C   UNL     1       5.454   6.583  16.475  0.00  0.00    +0.000 C 
ATOM     10  C   UNL     1       4.422   7.663  16.795  0.00  0.00    +0.000 C 
ENDROOT
BRANCH   1  15
ATOM     11  C   UNL     1       1.500   1.968  18.976  0.00  0.00    +0.000 C 
ATOM     12  C   UNL     1       2.093   1.499  20.296  0.00  0.00    +0.000 C 
ATOM     13  C   UNL     1       3.158   2.473  20.792  0.00  0.00    +0.000 C 
ATOM     14  C   UNL     1       2.611   3.897  20.905  0.00  0.00    +0.000 C 
ATOM     15  N   UNL     1       2.027   4.326  19.630  0.00  0.00    +0.000 N 
ATOM     16  C   UNL     1       1.020   3.424  19.057  0.00  0.00    +0.000 C 
BRANCH  11  17
ATOM     17  O   UNL     1       2.456   1.851  17.915  0.00  0.00    +0.000 OA
ATOM     18  H   UNL     1       2.813   2.732  17.728  0.00  0.00    +0.000 HD
ENDBRANCH  11  17
ENDBRANCH   1  15
BRANCH   3  19
ATOM     19  C   UNL     1       1.205   8.990  20.134  0.00  0.00    +0.000 A 
ATOM     20  C   UNL     1       0.888   8.945  21.494  0.00  0.00    +0.000 A 
ATOM     21  C   UNL     1       0.161   9.990  22.068  0.00  0.00    +0.000 A 
ATOM     22  C   UNL     1      -0.232  11.063  21.281  0.00  0.00    +0.000 A 
ATOM     23  C   UNL     1       0.126  11.055  19.947  0.00  0.00    +0.000 A 
ATOM     24  N   UNL     1       0.825  10.058  19.367  0.00  0.00    +0.000 NA
ENDBRANCH   3  19
BRANCH   8  25
ATOM     25  C   UNL     1       5.739   4.229  15.889  0.00  0.00    +0.000 C 
BRANCH  25  26
ATOM     26  C   UNL     1       6.240   4.201  14.469  0.00  0.00    +0.000 A 
ATOM     27  C   UNL     1       5.554   3.456  13.498  0.00  0.00    +0.000 A 
ATOM     28  C   UNL     1       5.972   3.484  12.169  0.00  0.00    +0.000 A 
ATOM     29  C   UNL     1       7.069   4.256  11.799  0.00  0.00    +0.000 A 
ATOM     30  C   UNL     1       7.764   4.990  12.758  0.00  0.00    +0.000 A 
ATOM     31  C   UNL     1       7.354   4.961  14.090  0.00  0.00    +0.000 A 
ENDBRANCH  25  26
ENDBRANCH   8  25
TORSDOF 5
ENDMDL
MODEL 2
REMARK VINA RESULT:      -7.7      0.542      1.246
REMARK  Name = 
REMARK  5 active torsions:
REMARK  status: ('A' for Active; 'I' for Inactive)
REMARK    1  A    between atoms: O_1  and  C_2
REMARK    2  A    between atoms: N_6  and  C_7
REMARK    3  A    between atoms: C_9  and  C_10
REMARK    4  A    between atoms: N_20  and  C_21
REMARK    5  A    between atoms: C_21  and  C_22
REMARK                            x       y       z     vdW  Elec       q    Type
REMARK                         _______ _______ _______ _____ _____    ______ ____
ROOT
ATOM      1  C   UNL     1       2.348   5.599  19.211  0.00  0.00    +0.000 A 
ATOM      2  N   UNL     1       1.664   6.584  19.844  0.00  0.00    +0.000 NA
ATOM      3  C   UNL     1       1.902   7.875  19.518  0.00  0.00    +0.000 A 
ATOM      4  N   UNL     1       2.775   8.258  18.576  0.00  0.00    +0.000 NA
ATOM      5  C   UNL     1       3.433   7.287  17.928  0.00  0.00    +0.000 A 
ATOM      6  C   UNL     1       3.251   5.935  18.193  0.00  0.00    +0.000 A 
ATOM      7  C   UNL     1       4.072   4.940  17.430  0.00  0.00    +0.000 C 
ATOM      8  N   UNL     1       4.774   5.407  16.214  0.00  0.00    +0.000 NA
ATOM      9  C   UNL     1       5.417   6.699  16.492  0.00  0.00    +0.000 C 
ATOM     10  C   UNL     1       4.358   7.745  16.835  0.00  0.00    +0.000 C 
ENDROOT
BRANCH   1  15
ATOM     11  C   UNL     1       1.484   1.976  18.992  0.00  0.00    +0.000 C 
ATOM     12  C   UNL     1       2.211   1.463  20.226  0.00  0.00    +0.000 C 
ATOM     13  C   UNL     1       3.330   2.418  20.635  0.00  0.00    +0.000 C 
ATOM     14  C   UNL     1       2.807   3.839  20.850  0.00  0.00    +0.000 C 
ATOM     15  N   UNL     1       2.093   4.311  19.659  0.00  0.00    +0.000 N 
ATOM     16  C   UNL     1       1.024   3.430  19.170  0.00  0.00    +0.000 C 
BRANCH  11  17
ATOM     17  O   UNL     1       2.320   1.890  17.832  0.00  0.00    +0.000 OA
ATOM     18  H   UNL     1       2.844   1.078  17.894  0.00  0.00    +0.000 HD
ENDBRANCH  11  17
ENDBRANCH   1  15
BRANCH   3  19
ATOM     19  C   UNL     1       1.142   8.942  20.222  0.00  0.00    +0.000 A 
ATOM     20  C   UNL     1       0.536  10.003  19.543  0.00  0.00    +0.000 A 
ATOM     21  C   UNL     1      -0.131  10.995  20.266  0.00  0.00    +0.000 A 
ATOM     22  C   UNL     1      -0.190  10.910  21.650  0.00  0.00    +0.000 A 
ATOM     23  C   UNL     1       0.414   9.828  22.260  0.00  0.00    +0.000 A 
ATOM     24  N   UNL     1       1.067   8.859  21.586  0.00  0.00    +0.000 NA
ENDBRANCH   3  19
BRANCH   8  25
ATOM     25  C   UNL     1       5.763   4.361  15.877  0.00  0.00    +0.000 C 
BRANCH  25  26
ATOM     26  C   UNL     1       6.206   4.326  14.437  0.00  0.00    +0.000 A 
ATOM     27  C   UNL     1       7.330   5.061  14.032  0.00  0.00    +0.000 A 
ATOM     28  C   UNL     1       7.785   4.975  12.717  0.00  0.00    +0.000 A 
ATOM     29  C   UNL     1       7.129   4.157  11.803  0.00  0.00    +0.000 A 
ATOM     30  C   UNL     1       6.004   3.433  12.194  0.00  0.00    +0.000 A 
ATOM     31  C   UNL     1       5.541   3.519  13.506  0.00  0.00    +0.000 A 
ENDBRANCH  25  26
ENDBRANCH   8  25
TORSDOF 5
ENDMDL
MODEL 3
REMARK VINA RESULT:      -7.6      1.015      1.351
REMARK  Name = 
REMARK  5 active torsions:
REMARK  status: ('A' for Active; 'I' for Inactive)
REMARK    1  A    between atoms: O_1  and  C_2
REMARK    2  A    between atoms: N_6  and  C_7
REMARK    3  A    between atoms: C_9  and  C_10
REMARK    4  A    between atoms: N_20  and  C_21
REMARK    5  A    between atoms: C_21  and  C_22
REMARK                            x       y       z     vdW  Elec       q    Type
REMARK                         _______ _______ _______ _____ _____    ______ ____
ROOT
ATOM      1  C   UNL     1       2.676   5.465  18.958  0.00  0.00    +0.000 A 
ATOM      2  N   UNL     1       1.936   6.415  19.580  0.00  0.00    +0.000 NA
ATOM      3  C   UNL     1       2.115   7.716  19.258  0.00  0.00    +0.000 A 
ATOM      4  N   UNL     1       2.982   8.142  18.328  0.00  0.00    +0.000 NA
ATOM      5  C   UNL     1       3.696   7.205  17.690  0.00  0.00    +0.000 A 
ATOM      6  C   UNL     1       3.577   5.845  17.954  0.00  0.00    +0.000 A 
ATOM      7  C   UNL     1       4.457   4.892  17.203  0.00  0.00    +0.000 C 
ATOM      8  N   UNL     1       5.153   5.393  15.998  0.00  0.00    +0.000 NA
ATOM      9  C   UNL     1       5.728   6.715  16.285  0.00  0.00    +0.000 C 
ATOM     10  C   UNL     1       4.614   7.708  16.611  0.00  0.00    +0.000 C 
ENDROOT
BRANCH   1  15
ATOM     11  C   UNL     1       2.660   2.597  21.345  0.00  0.00    +0.000 C 
ATOM     12  C   UNL     1       1.519   1.781  20.757  0.00  0.00    +0.000 C 
ATOM     13  C   UNL     1       0.598   2.660  19.915  0.00  0.00    +0.000 C 
ATOM     14  C   UNL     1       1.370   3.399  18.821  0.00  0.00    +0.000 C 
ATOM     15  N   UNL     1       2.477   4.166  19.402  0.00  0.00    +0.000 N 
ATOM     16  C   UNL     1       3.392   3.406  20.264  0.00  0.00    +0.000 C 
BRANCH  11  17
ATOM     17  O   UNL     1       2.181   3.494  22.354  0.00  0.00    +0.000 OA
ATOM     18  H   UNL     1       2.044   2.990  23.169  0.00  0.00    +0.000 HD
ENDBRANCH  11  17
ENDBRANCH   1  15
BRANCH   3  19
ATOM     19  C   UNL     1       1.293   8.745  19.950  0.00  0.00    +0.000 A 
ATOM     20  C   UNL     1       0.833   8.581  21.259  0.00  0.00    +0.000 A 
ATOM     21  C   UNL     1       0.033   9.568  21.839  0.00  0.00    +0.000 A 
ATOM     22  C   UNL     1      -0.291  10.703  21.109  0.00  0.00    +0.000 A 
ATOM     23  C   UNL     1       0.208  10.812  19.825  0.00  0.00    +0.000 A 
ATOM     24  N   UNL     1       0.980   9.874  19.241  0.00  0.00    +0.000 NA
ENDBRANCH   3  19
BRANCH   8  25
ATOM     25  C   UNL     1       6.198   4.397  15.675  0.00  0.00    +0.000 C 
BRANCH  25  26
ATOM     26  C   UNL     1       6.561   4.285  14.218  0.00  0.00    +0.000 A 
ATOM     27  C   UNL     1       5.863   3.394  13.388  0.00  0.00    +0.000 A 
ATOM     28  C   UNL     1       6.146   3.339  12.025  0.00  0.00    +0.000 A 
ATOM     29  C   UNL     1       7.120   4.171  11.481  0.00  0.00    +0.000 A 
ATOM     30  C   UNL     1       7.827   5.050  12.299  0.00  0.00    +0.000 A 
ATOM     31  C   UNL     1       7.551   5.105  13.665  0.00  0.00    +0.000 A 
ENDBRANCH  25  26
ENDBRANCH   8  25
TORSDOF 5
ENDMDL
MODEL 4
REMARK VINA RESULT:      -7.5      1.012      1.124
REMARK  Name = 
REMARK  5 active torsions:
REMARK  status: ('A' for Active; 'I' for Inactive)
REMARK    1  A    between atoms: O_1  and  C_2
REMARK    2  A    between atoms: N_6  and  C_7
REMARK    3  A    between atoms: C_9  and  C_10
REMARK    4  A    between atoms: N_20  and  C_21
REMARK    5  A    between atoms: C_21  and  C_22
REMARK                            x       y       z     vdW  Elec       q    Type
REMARK                         _______ _______ _______ _____ _____    ______ ____
ROOT
ATOM      1  C   UNL     1       2.868   5.799  19.497  0.00  0.00    +0.000 A 
ATOM      2  N   UNL     1       2.088   6.779  20.016  0.00  0.00    +0.000 NA
ATOM      3  C   UNL     1       2.017   7.975  19.389  0.00  0.00    +0.000 A 
ATOM      4  N   UNL     1       2.664   8.260  18.250  0.00  0.00    +0.000 NA
ATOM      5  C   UNL     1       3.414   7.286  17.718  0.00  0.00    +0.000 A 
ATOM      6  C   UNL     1       3.544   6.026  18.291  0.00  0.00    +0.000 A 
ATOM      7  C   UNL     1       4.442   5.028  17.624  0.00  0.00    +0.000 C 
ATOM      8  N   UNL     1       4.871   5.299  16.235  0.00  0.00    +0.000 NA
ATOM      9  C   UNL     1       5.271   6.709  16.117  0.00  0.00    +0.000 C 
ATOM     10  C   UNL     1       4.077   7.616  16.410  0.00  0.00    +0.000 C 
ENDROOT
BRANCH   1  15
ATOM     11  C   UNL     1       1.645   2.954  21.578  0.00  0.00    +0.000 C 
ATOM     12  C   UNL     1       2.685   1.905  21.216  0.00  0.00    +0.000 C 
ATOM     13  C   UNL     1       3.344   2.230  19.878  0.00  0.00    +0.000 C 
ATOM     14  C   UNL     1       3.949   3.635  19.875  0.00  0.00    +0.000 C 
ATOM     15  N   UNL     1       2.938   4.631  20.244  0.00  0.00    +0.000 N 
ATOM     16  C   UNL     1       2.222   4.374  21.500  0.00  0.00    +0.000 C 
BRANCH  11  17
ATOM     17  O   UNL     1       0.507   2.865  20.713  0.00  0.00    +0.000 OA
ATOM     18  H   UNL     1       0.603   2.074  20.163  0.00  0.00    +0.000 HD
ENDBRANCH  11  17
ENDBRANCH   1  15
BRANCH   3  19
ATOM     19  C   UNL     1       1.155   9.039  19.972  0.00  0.00    +0.000 A 
ATOM     20  C   UNL     1       0.873   9.109  21.339  0.00  0.00    +0.000 A 
ATOM     21  C   UNL     1       0.025  10.110  21.819  0.00  0.00    +0.000 A 
ATOM     22  C   UNL     1      -0.520  11.027  20.932  0.00  0.00    +0.000 A 
ATOM     23  C   UNL     1      -0.190  10.913  19.596  0.00  0.00    +0.000 A 
ATOM     24  N   UNL     1       0.624   9.955  19.106  0.00  0.00    +0.000 NA
ENDBRANCH   3  19
BRANCH   8  25
ATOM     25  C   UNL     1       5.998   4.382  15.959  0.00  0.00    +0.000 C 
BRANCH  25  26
ATOM     26  C   UNL     1       6.430   4.299  14.519  0.00  0.00    +0.000 A 
ATOM     27  C   UNL     1       5.732   3.472  13.625  0.00  0.00    +0.000 A 
ATOM     28  C   UNL     1       6.084   3.445  12.277  0.00  0.00    +0.000 A 
ATOM     29  C   UNL     1       7.125   4.243  11.811  0.00  0.00    +0.000 A 
ATOM     30  C   UNL     1       7.831   5.057  12.694  0.00  0.00    +0.000 A 
ATOM     31  C   UNL     1       7.488   5.084  14.045  0.00  0.00    +0.000 A 
ENDBRANCH  25  26
ENDBRANCH   8  25
TORSDOF 5
ENDMDL
MODEL 5
REMARK VINA RESULT:      -7.5      1.441      7.987
REMARK  Name = 
REMARK  5 active torsions:
REMARK  status: ('A' for Active; 'I' for Inactive)
REMARK    1  A    between atoms: O_1  and  C_2
REMARK    2  A    between atoms: N_6  and  C_7
REMARK    3  A    between atoms: C_9  and  C_10
REMARK    4  A    between atoms: N_20  and  C_21
REMARK    5  A    between atoms: C_21  and  C_22
REMARK                            x       y       z     vdW  Elec       q    Type
REMARK                         _______ _______ _______ _____ _____    ______ ____
ROOT
ATOM      1  C   UNL     1       2.553   5.721  19.071  0.00  0.00    +0.000 A 
ATOM      2  N   UNL     1       3.499   5.253  18.220  0.00  0.00    +0.000 NA
ATOM      3  C   UNL     1       4.058   6.092  17.320  0.00  0.00    +0.000 A 
ATOM      4  N   UNL     1       3.750   7.393  17.220  0.00  0.00    +0.000 NA
ATOM      5  C   UNL     1       2.836   7.867  18.078  0.00  0.00    +0.000 A 
ATOM      6  C   UNL     1       2.211   7.080  19.037  0.00  0.00    +0.000 A 
ATOM      7  C   UNL     1       1.176   7.713  19.917  0.00  0.00    +0.000 C 
ATOM      8  N   UNL     1       1.111   9.190  19.960  0.00  0.00    +0.000 NA
ATOM      9  C   UNL     1       1.209   9.720  18.592  0.00  0.00    +0.000 C 
ATOM     10  C   UNL     1       2.557   9.342  17.982  0.00  0.00    +0.000 C 
ENDROOT
BRANCH   1  15
ATOM     11  C   UNL     1       0.926   2.510  20.053  0.00  0.00    +0.000 C 
ATOM     12  C   UNL     1       1.420   2.399  21.487  0.00  0.00    +0.000 C 
ATOM     13  C   UNL     1       2.687   3.227  21.692  0.00  0.00    +0.000 C 
ATOM     14  C   UNL     1       2.477   4.687  21.289  0.00  0.00    +0.000 C 
ATOM     15  N   UNL     1       1.983   4.775  19.911  0.00  0.00    +0.000 N 
ATOM     16  C   UNL     1       0.788   3.974  19.613  0.00  0.00    +0.000 C 
BRANCH  11  17
ATOM     17  O   UNL     1       1.812   1.834  19.152  0.00  0.00    +0.000 OA
ATOM     18  H   UNL     1       1.351   1.706  18.311  0.00  0.00    +0.000 HD
ENDBRANCH  11  17
ENDBRANCH   1  15
BRANCH   3  19
ATOM     19  C   UNL     1       5.095   5.562  16.394  0.00  0.00    +0.000 A 
ATOM     20  C   UNL     1       4.861   4.472  15.552  0.00  0.00    +0.000 A 
ATOM     21  C   UNL     1       5.889   3.997  14.734  0.00  0.00    +0.000 A 
ATOM     22  C   UNL     1       7.129   4.620  14.763  0.00  0.00    +0.000 A 
ATOM     23  C   UNL     1       7.292   5.702  15.606  0.00  0.00    +0.000 A 
ATOM     24  N   UNL     1       6.317   6.178  16.408  0.00  0.00    +0.000 NA
ENDBRANCH   3  19
BRANCH   8  25
ATOM     25  C   UNL     1      -0.181   9.533  20.592  0.00  0.00    +0.000 C 
BRANCH  25  26
ATOM     26  C   UNL     1      -0.239  10.879  21.265  0.00  0.00    +0.000 A 
ATOM     27  C   UNL     1       0.484  11.959  20.735  0.00  0.00    +0.000 A 
ATOM     28  C   UNL     1       0.378  13.222  21.312  0.00  0.00    +0.000 A 
ATOM     29  C   UNL     1      -0.449  13.419  22.414  0.00  0.00    +0.000 A 
ATOM     30  C   UNL     1      -1.161  12.350  22.954  0.00  0.00    +0.000 A 
ATOM     31  C   UNL     1      -1.054  11.082  22.384  0.00  0.00    +0.000 A 
ENDBRANCH  25  26
ENDBRANCH   8  25
TORSDOF 5
ENDMDL
MODEL 6
REMARK VINA RESULT:      -7.4      1.427      7.734
REMARK  Name = 
REMARK  5 active torsions:
REMARK  status: ('A' for Active; 'I' for Inactive)
REMARK    1  A    between atoms: O_1  and  C_2
REMARK    2  A    between atoms: N_6  and  C_7
REMARK    3  A    between atoms: C_9  and  C_10
REMARK    4  A    between atoms: N_20  and  C_21
REMARK    5  A    between atoms: C_21  and  C_22
REMARK                            x       y       z     vdW  Elec       q    Type
REMARK                         _______ _______ _______ _____ _____    ______ ____
ROOT
ATOM      1  C   UNL     1       3.443   4.828  18.089  0.00  0.00    +0.000 A 
ATOM      2  N   UNL     1       4.263   4.490  17.063  0.00  0.00    +0.000 NA
ATOM      3  C   UNL     1       4.714   5.451  16.226  0.00  0.00    +0.000 A 
ATOM      4  N   UNL     1       4.418   6.752  16.355  0.00  0.00    +0.000 NA
ATOM      5  C   UNL     1       3.631   7.096  17.384  0.00  0.00    +0.000 A 
ATOM      6  C   UNL     1       3.123   6.177  18.295  0.00  0.00    +0.000 A 
ATOM      7  C   UNL     1       2.221   6.675  19.384  0.00  0.00    +0.000 C 
ATOM      8  N   UNL     1       2.188   8.130  19.646  0.00  0.00    +0.000 NA
ATOM      9  C   UNL     1       2.116   8.851  18.367  0.00  0.00    +0.000 C 
ATOM     10  C   UNL     1       3.367   8.568  17.538  0.00  0.00    +0.000 C 
ENDROOT
BRANCH   1  15
ATOM     11  C   UNL     1       2.718   2.841  21.163  0.00  0.00    +0.000 C 
ATOM     12  C   UNL     1       1.486   2.083  20.694  0.00  0.00    +0.000 C 
ATOM     13  C   UNL     1       0.809   2.809  19.534  0.00  0.00    +0.000 C 
ATOM     14  C   UNL     1       1.781   3.054  18.378  0.00  0.00    +0.000 C 
ATOM     15  N   UNL     1       2.971   3.770  18.852  0.00  0.00    +0.000 N 
ATOM     16  C   UNL     1       3.663   3.163  19.996  0.00  0.00    +0.000 C 
BRANCH  11  17
ATOM     17  O   UNL     1       2.350   4.063  21.814  0.00  0.00    +0.000 OA
ATOM     18  H   UNL     1       1.883   3.843  22.633  0.00  0.00    +0.000 HD
ENDBRANCH  11  17
ENDBRANCH   1  15
BRANCH   3  19
ATOM     19  C   UNL     1       5.613   5.061  15.107  0.00  0.00    +0.000 A 
ATOM     20  C   UNL     1       5.259   4.093  14.163  0.00  0.00    +0.000 A 
ATOM     21  C   UNL     1       6.164   3.745  13.158  0.00  0.00    +0.000 A 
ATOM     22  C   UNL     1       7.402   4.370  13.105  0.00  0.00    +0.000 A 
ATOM     23  C   UNL     1       7.686   5.329  14.058  0.00  0.00    +0.000 A 
ATOM     24  N   UNL     1       6.831   5.682  15.040  0.00  0.00    +0.000 NA
ENDBRANCH   3  19
BRANCH   8  25
ATOM     25  C   UNL     1       0.994   8.375  20.484  0.00  0.00    +0.000 C 
BRANCH  25  26
ATOM     26  C   UNL     1       0.415   9.763  20.398  0.00  0.00    +0.000 A 
ATOM     27  C   UNL     1      -0.704  10.006  19.587  0.00  0.00    +0.000 A 
ATOM     28  C   UNL     1      -1.287  11.272  19.560  0.00  0.00    +0.000 A 
ATOM     29  C   UNL     1      -0.764  12.297  20.341  0.00  0.00    +0.000 A 
ATOM     30  C   UNL     1       0.354  12.068  21.141  0.00  0.00    +0.000 A 
ATOM     31  C   UNL     1       0.945  10.806  21.167  0.00  0.00    +0.000 A 
ENDBRANCH  25  26
ENDBRANCH   8  25
TORSDOF 5
ENDMDL
MODEL 7
REMARK VINA RESULT:      -7.4      1.628      7.499
REMARK  Name = 
REMARK  5 active torsions:
REMARK  status: ('A' for Active; 'I' for Inactive)
REMARK    1  A    between atoms: O_1  and  C_2
REMARK    2  A    between atoms: N_6  and  C_7
REMARK    3  A    between atoms: C_9  and  C_10
REMARK    4  A    between atoms: N_20  and  C_21
REMARK    5  A    between atoms: C_21  and  C_22
REMARK                            x       y       z     vdW  Elec       q    Type
REMARK                         _______ _______ _______ _____ _____    ______ ____
ROOT
ATOM      1  C   UNL     1       2.651   5.651  18.874  0.00  0.00    +0.000 A 
ATOM      2  N   UNL     1       3.581   5.171  18.013  0.00  0.00    +0.000 NA
ATOM      3  C   UNL     1       4.177   6.013  17.138  0.00  0.00    +0.000 A 
ATOM      4  N   UNL     1       3.920   7.328  17.076  0.00  0.00    +0.000 NA
ATOM      5  C   UNL     1       3.023   7.813  17.945  0.00  0.00    +0.000 A 
ATOM      6  C   UNL     1       2.364   7.023  18.879  0.00  0.00    +0.000 A 
ATOM      7  C   UNL     1       1.350   7.670  19.774  0.00  0.00    +0.000 C 
ATOM      8  N   UNL     1       1.344   9.147  19.860  0.00  0.00    +0.000 NA
ATOM      9  C   UNL     1       1.468   9.712  18.509  0.00  0.00    +0.000 C 
ATOM     10  C   UNL     1       2.803   9.299  17.892  0.00  0.00    +0.000 C 
ENDROOT
BRANCH   1  15
ATOM     11  C   UNL     1       1.125   2.378  19.811  0.00  0.00    +0.000 C 
ATOM     12  C   UNL     1       1.437   2.366  21.300  0.00  0.00    +0.000 C 
ATOM     13  C   UNL     1       2.609   3.290  21.618  0.00  0.00    +0.000 C 
ATOM     14  C   UNL     1       2.358   4.713  21.116  0.00  0.00    +0.000 C 
ATOM     15  N   UNL     1       2.041   4.704  19.684  0.00  0.00    +0.000 N 
ATOM     16  C   UNL     1       0.949   3.808  19.281  0.00  0.00    +0.000 C 
BRANCH  11  17
ATOM     17  O   UNL     1       2.162   1.729  19.066  0.00  0.00    +0.000 OA
ATOM     18  H   UNL     1       2.242   0.818  19.385  0.00  0.00    +0.000 HD
ENDBRANCH  11  17
ENDBRANCH   1  15
BRANCH   3  19
ATOM     19  C   UNL     1       5.196   5.469  16.200  0.00  0.00    +0.000 A 
ATOM     20  C   UNL     1       4.909   4.445  15.294  0.00  0.00    +0.000 A 
ATOM     21  C   UNL     1       5.920   3.951  14.467  0.00  0.00    +0.000 A 
ATOM     22  C   UNL     1       7.197   4.490  14.551  0.00  0.00    +0.000 A 
ATOM     23  C   UNL     1       7.412   5.511  15.456  0.00  0.00    +0.000 A 
ATOM     24  N   UNL     1       6.454   6.004  16.268  0.00  0.00    +0.000 NA
ENDBRANCH   3  19
BRANCH   8  25
ATOM     25  C   UNL     1       0.064   9.522  20.498  0.00  0.00    +0.000 C 
BRANCH  25  26
ATOM     26  C   UNL     1      -0.873  10.336  19.645  0.00  0.00    +0.000 A 
ATOM     27  C   UNL     1      -1.501   9.747  18.536  0.00  0.00    +0.000 A 
ATOM     28  C   UNL     1      -2.423  10.475  17.786  0.00  0.00    +0.000 A 
ATOM     29  C   UNL     1      -2.728  11.786  18.137  0.00  0.00    +0.000 A 
ATOM     30  C   UNL     1      -2.100  12.383  19.228  0.00  0.00    +0.000 A 
ATOM     31  C   UNL     1      -1.172  11.662  19.979  0.00  0.00    +0.000 A 
ENDBRANCH  25  26
ENDBRANCH   8  25
TORSDOF 5
ENDMDL
MODEL 8
REMARK VINA RESULT:      -7.3      1.519      7.993
REMARK  Name = 
REMARK  5 active torsions:
REMARK  status: ('A' for Active; 'I' for Inactive)
REMARK    1  A    between atoms: O_1  and  C_2
REMARK    2  A    between atoms: N_6  and  C_7
REMARK    3  A    between atoms: C_9  and  C_10
REMARK    4  A    between atoms: N_20  and  C_21
REMARK    5  A    between atoms: C_21  and  C_22
REMARK                            x       y       z     vdW  Elec       q    Type
REMARK                         _______ _______ _______ _____ _____    ______ ____
ROOT
ATOM      1  C   UNL     1       2.549   5.835  19.141  0.00  0.00    +0.000 A 
ATOM      2  N   UNL     1       3.543   5.358  18.353  0.00  0.00    +0.000 NA
ATOM      3  C   UNL     1       4.139   6.181  17.461  0.00  0.00    +0.000 A 
ATOM      4  N   UNL     1       3.820   7.475  17.311  0.00  0.00    +0.000 NA
ATOM      5  C   UNL     1       2.858   7.959  18.109  0.00  0.00    +0.000 A 
ATOM      6  C   UNL     1       2.194   7.187  19.055  0.00  0.00    +0.000 A 
ATOM      7  C   UNL     1       1.106   7.829  19.863  0.00  0.00    +0.000 C 
ATOM      8  N   UNL     1       1.022   9.305  19.865  0.00  0.00    +0.000 NA
ATOM      9  C   UNL     1       1.184   9.802  18.491  0.00  0.00    +0.000 C 
ATOM     10  C   UNL     1       2.567   9.426  17.961  0.00  0.00    +0.000 C 
ENDROOT
BRANCH   1  15
ATOM     11  C   UNL     1       0.901   2.633  20.118  0.00  0.00    +0.000 C 
ATOM     12  C   UNL     1       1.330   2.558  21.576  0.00  0.00    +0.000 C 
ATOM     13  C   UNL     1       2.581   3.399  21.820  0.00  0.00    +0.000 C 
ATOM     14  C   UNL     1       2.379   4.849  21.376  0.00  0.00    +0.000 C 
ATOM     15  N   UNL     1       1.948   4.902  19.975  0.00  0.00    +0.000 N 
ATOM     16  C   UNL     1       0.773   4.086  19.641  0.00  0.00    +0.000 C 
BRANCH  11  17
ATOM     17  O   UNL     1       1.832   1.945  19.274  0.00  0.00    +0.000 OA
ATOM     18  H   UNL     1       1.515   2.002  18.361  0.00  0.00    +0.000 HD
ENDBRANCH  11  17
ENDBRANCH   1  15
BRANCH   3  19
ATOM     19  C   UNL     1       5.229   5.641  16.604  0.00  0.00    +0.000 A 
ATOM     20  C   UNL     1       5.138   5.605  15.210  0.00  0.00    +0.000 A 
ATOM     21  C   UNL     1       6.180   5.050  14.464  0.00  0.00    +0.000 A 
ATOM     22  C   UNL     1       7.297   4.547  15.118  0.00  0.00    +0.000 A 
ATOM     23  C   UNL     1       7.332   4.627  16.496  0.00  0.00    +0.000 A 
ATOM     24  N   UNL     1       6.339   5.155  17.240  0.00  0.00    +0.000 NA
ENDBRANCH   3  19
BRANCH   8  25
ATOM     25  C   UNL     1      -0.306   9.647  20.420  0.00  0.00    +0.000 C 
BRANCH  25  26
ATOM     26  C   UNL     1      -0.403  10.993  21.089  0.00  0.00    +0.000 A 
ATOM     27  C   UNL     1      -1.085  11.121  22.309  0.00  0.00    +0.000 A 
ATOM     28  C   UNL     1      -1.116  12.349  22.967  0.00  0.00    +0.000 A 
ATOM     29  C   UNL     1      -0.469  13.452  22.418  0.00  0.00    +0.000 A 
ATOM     30  C   UNL     1       0.199  13.336  21.201  0.00  0.00    +0.000 A 
ATOM     31  C   UNL     1       0.230  12.112  20.535  0.00  0.00    +0.000 A 
ENDBRANCH  25  26
ENDBRANCH   8  25
TORSDOF 5
ENDMDL
MODEL 9
REMARK VINA RESULT:      -7.3      3.884     10.886
REMARK  Name = 
REMARK  5 active torsions:
REMARK  status: ('A' for Active; 'I' for Inactive)
REMARK    1  A    between atoms: O_1  and  C_2
REMARK    2  A    between atoms: N_6  and  C_7
REMARK    3  A    between atoms: C_9  and  C_10
REMARK    4  A    between atoms: N_20  and  C_21
REMARK    5  A    between atoms: C_21  and  C_22
REMARK                            x       y       z     vdW  Elec       q    Type
REMARK                         _______ _______ _______ _____ _____    ______ ____
ROOT
ATOM      1  C   UNL     1       1.087  10.780  19.440  0.00  0.00    +0.000 A 
ATOM      2  N   UNL     1       1.781   9.766  18.866  0.00  0.00    +0.000 NA
ATOM      3  C   UNL     1       1.770   8.542  19.441  0.00  0.00    +0.000 A 
ATOM      4  N   UNL     1       1.087   8.248  20.557  0.00  0.00    +0.000 NA
ATOM      5  C   UNL     1       0.376   9.239  21.112  0.00  0.00    +0.000 A 
ATOM      6  C   UNL     1       0.327  10.526  20.590  0.00  0.00    +0.000 A 
ATOM      7  C   UNL     1      -0.472  11.563  21.320  0.00  0.00    +0.000 C 
ATOM      8  N   UNL     1      -1.431  11.103  22.348  0.00  0.00    +0.000 NA
ATOM      9  C   UNL     1      -0.792  10.075  23.182  0.00  0.00    +0.000 C 
ATOM     10  C   UNL     1      -0.428   8.863  22.325  0.00  0.00    +0.000 C 
ENDROOT
BRANCH   1  15
ATOM     11  C   UNL     1       0.519  14.421  18.855  0.00  0.00    +0.000 C 
ATOM     12  C   UNL     1       1.836  14.781  18.184  0.00  0.00    +0.000 C 
ATOM     13  C   UNL     1       2.921  13.767  18.534  0.00  0.00    +0.000 C 
ATOM     14  C   UNL     1       2.493  12.341  18.183  0.00  0.00    +0.000 C 
ATOM     15  N   UNL     1       1.214  12.016  18.823  0.00  0.00    +0.000 N 
ATOM     16  C   UNL     1       0.121  12.965  18.574  0.00  0.00    +0.000 C 
BRANCH  11  17
ATOM     17  O   UNL     1       0.596  14.617  20.272  0.00  0.00    +0.000 OA
ATOM     18  H   UNL     1       0.699  15.565  20.443  0.00  0.00    +0.000 HD
ENDBRANCH  11  17
ENDBRANCH   1  15
BRANCH   3  19
ATOM     19  C   UNL     1       2.537   7.442  18.797  0.00  0.00    +0.000 A 
ATOM     20  C   UNL     1       3.384   7.657  17.708  0.00  0.00    +0.000 A 
ATOM     21  C   UNL     1       4.047   6.575  17.124  0.00  0.00    +0.000 A 
ATOM     22  C   UNL     1       3.859   5.299  17.638  0.00  0.00    +0.000 A 
ATOM     23  C   UNL     1       3.021   5.156  18.726  0.00  0.00    +0.000 A 
ATOM     24  N   UNL     1       2.368   6.183  19.307  0.00  0.00    +0.000 NA
ENDBRANCH   3  19
BRANCH   8  25
ATOM     25  C   UNL     1      -1.801  12.298  23.137  0.00  0.00    +0.000 C 
BRANCH  25  26
ATOM     26  C   UNL     1      -3.277  12.585  23.227  0.00  0.00    +0.000 A 
ATOM     27  C   UNL     1      -3.991  12.953  22.076  0.00  0.00    +0.000 A 
ATOM     28  C   UNL     1      -5.369  13.150  22.140  0.00  0.00    +0.000 A 
ATOM     29  C   UNL     1      -6.043  12.978  23.345  0.00  0.00    +0.000 A 
ATOM     30  C   UNL     1      -5.340  12.625  24.496  0.00  0.00    +0.000 A 
ATOM     31  C   UNL     1      -3.961  12.432  24.439  0.00  0.00    +0.000 A 
ENDBRANCH  25  26
ENDBRANCH   8  25
TORSDOF 5
ENDMDL
