MODEL 1
REMARK VINA RESULT:      -7.1      0.000      0.000
REMARK  Name = 
REMARK  8 active torsions:
REMARK  status: ('A' for Active; 'I' for Inactive)
REMARK    1  A    between atoms: C_1  and  C_2
REMARK    2  A    between atoms: C_5  and  C_6
REMARK    3  A    between atoms: C_7  and  C_8
REMARK    4  A    between atoms: C_8  and  N_9
REMARK    5  A    between atoms: C_15  and  C_16
REMARK    6  A    between atoms: C_16  and  N_17
REMARK    7  A    between atoms: N_17  and  C_18
REMARK    8  A    between atoms: N_17  and  C_19
REMARK                            x       y       z     vdW  Elec       q    Type
REMARK                         _______ _______ _______ _____ _____    ______ ____
ROOT
ATOM      1  N   UNL     1       4.348   6.444  17.317  0.00  0.00    +0.000 NA
ATOM      2  C   UNL     1       3.781   7.352  18.312  0.00  0.00    +0.000 C 
ATOM      3  C   UNL     1       2.393   7.122  18.927  0.00  0.00    +0.000 C 
ATOM      4  C   UNL     1       2.196   5.800  19.573  0.00  0.00    +0.000 A 
ATOM      5  N   UNL     1       1.789   5.574  20.806  0.00  0.00    +0.000 NA
ATOM      6  C   UNL     1       1.647   4.218  20.900  0.00  0.00    +0.000 A 
ATOM      7  C   UNL     1       1.999   3.588  19.724  0.00  0.00    +0.000 A 
ATOM      8  N   UNL     1       2.302   4.624  18.873  0.00  0.00    +0.000 N 
ATOM      9  C   UNL     1       2.606   4.578  17.463  0.00  0.00    +0.000 C 
ATOM     10  C   UNL     1       4.029   5.035  17.151  0.00  0.00    +0.000 C 
ENDROOT
BRANCH   1  11
ATOM     11  C   UNL     1       5.615   6.869  16.729  0.00  0.00    +0.000 C 
BRANCH  11  18
ATOM     12  C   UNL     1       7.285   5.844  19.314  0.00  0.00    +0.000 C 
ATOM     13  C   UNL     1       7.291   5.284  17.947  0.00  0.00    +0.000 A 
ATOM     14  N   UNL     1       8.073   4.245  17.650  0.00  0.00    +0.000 NA
ATOM     15  O   UNL     1       7.872   3.979  16.322  0.00  0.00    +0.000 OA
ATOM     16  C   UNL     1       6.965   4.852  15.804  0.00  0.00    +0.000 A 
ATOM     17  C   UNL     1       6.674   4.691  14.379  0.00  0.00    +0.000 C 
ATOM     18  C   UNL     1       6.552   5.723  16.803  0.00  0.00    +0.000 A 
ENDBRANCH  11  18
ENDBRANCH   1  11
BRANCH   7  19
ATOM     19  C   UNL     1       2.028   2.135  19.396  0.00  0.00    +0.000 C 
BRANCH  19  20
ATOM     20  N   UNL     1       3.392   1.576  19.356  0.00  0.00    +0.000 NA
ATOM     21  C   UNL     1       3.876   1.395  17.981  0.00  0.00    +0.000 C 
ATOM     22  C   UNL     1       4.308   2.487  20.055  0.00  0.00    +0.000 C 
ENDBRANCH  19  20
ENDBRANCH   7  19
TORSDOF 4
ENDMDL
MODEL 2
REMARK VINA RESULT:      -6.9      0.467      1.740
REMARK  Name = 
REMARK  8 active torsions:
REMARK  status: ('A' for Active; 'I' for Inactive)
REMARK    1  A    between atoms: C_1  and  C_2
REMARK    2  A    between atoms: C_5  and  C_6
REMARK    3  A    between atoms: C_7  and  C_8
REMARK    4  A    between atoms: C_8  and  N_9
REMARK    5  A    between atoms: C_15  and  C_16
REMARK    6  A    between atoms: C_16  and  N_17
REMARK    7  A    between atoms: N_17  and  C_18
REMARK    8  A    between atoms: N_17  and  C_19
REMARK                            x       y       z     vdW  Elec       q    Type
REMARK                         _______ _______ _______ _____ _____    ______ ____
ROOT
ATOM      1  N   UNL     1       4.152   6.405  17.146  0.00  0.00    +0.000 NA
ATOM      2  C   UNL     1       3.702   7.344  18.171  0.00  0.00    +0.000 C 
ATOM      3  C   UNL     1       2.394   7.136  18.948  0.00  0.00    +0.000 C 
ATOM      4  C   UNL     1       2.275   5.835  19.653  0.00  0.00    +0.000 A 
ATOM      5  N   UNL     1       2.013   5.649  20.931  0.00  0.00    +0.000 NA
ATOM      6  C   UNL     1       1.885   4.296  21.083  0.00  0.00    +0.000 A 
ATOM      7  C   UNL     1       2.099   3.630  19.894  0.00  0.00    +0.000 A 
ATOM      8  N   UNL     1       2.302   4.638  18.983  0.00  0.00    +0.000 N 
ATOM      9  C   UNL     1       2.441   4.548  17.549  0.00  0.00    +0.000 C 
ATOM     10  C   UNL     1       3.818   4.991  17.062  0.00  0.00    +0.000 C 
ENDROOT
BRANCH   1  11
ATOM     11  C   UNL     1       5.342   6.808  16.404  0.00  0.00    +0.000 C 
BRANCH  11  18
ATOM     12  C   UNL     1       6.591   4.726  14.253  0.00  0.00    +0.000 C 
ATOM     13  C   UNL     1       6.927   4.865  15.685  0.00  0.00    +0.000 A 
ATOM     14  N   UNL     1       7.825   4.055  16.246  0.00  0.00    +0.000 NA
ATOM     15  O   UNL     1       7.898   4.415  17.565  0.00  0.00    +0.000 OA
ATOM     16  C   UNL     1       7.047   5.449  17.814  0.00  0.00    +0.000 A 
ATOM     17  C   UNL     1       7.011   5.919  19.198  0.00  0.00    +0.000 C 
ATOM     18  C   UNL     1       6.389   5.786  16.640  0.00  0.00    +0.000 A 
ENDBRANCH  11  18
ENDBRANCH   1  11
BRANCH   7  19
ATOM     19  C   UNL     1       2.093   2.167  19.610  0.00  0.00    +0.000 C 
BRANCH  19  20
ATOM     20  N   UNL     1       3.445   1.602  19.437  0.00  0.00    +0.000 NA
ATOM     21  C   UNL     1       3.783   1.400  18.022  0.00  0.00    +0.000 C 
ATOM     22  C   UNL     1       4.430   2.520  20.024  0.00  0.00    +0.000 C 
ENDBRANCH  19  20
ENDBRANCH   7  19
TORSDOF 4
ENDMDL
MODEL 3
REMARK VINA RESULT:      -6.7      3.228      5.960
REMARK  Name = 
REMARK  8 active torsions:
REMARK  status: ('A' for Active; 'I' for Inactive)
REMARK    1  A    between atoms: C_1  and  C_2
REMARK    2  A    between atoms: C_5  and  C_6
REMARK    3  A    between atoms: C_7  and  C_8
REMARK    4  A    between atoms: C_8  and  N_9
REMARK    5  A    between atoms: C_15  and  C_16
REMARK    6  A    between atoms: C_16  and  N_17
REMARK    7  A    between atoms: N_17  and  C_18
REMARK    8  A    between atoms: N_17  and  C_19
REMARK                            x       y       z     vdW  Elec       q    Type
REMARK                         _______ _______ _______ _____ _____    ______ ____
ROOT
ATOM      1  N   UNL     1       2.013   6.752  20.083  0.00  0.00    +0.000 NA
ATOM      2  C   UNL     1       1.497   5.618  20.847  0.00  0.00    +0.000 C 
ATOM      3  C   UNL     1       1.188   4.266  20.189  0.00  0.00    +0.000 C 
ATOM      4  C   UNL     1       2.317   3.647  19.449  0.00  0.00    +0.000 A 
ATOM      5  N   UNL     1       2.807   2.436  19.621  0.00  0.00    +0.000 NA
ATOM      6  C   UNL     1       3.745   2.279  18.639  0.00  0.00    +0.000 A 
ATOM      7  C   UNL     1       3.865   3.417  17.867  0.00  0.00    +0.000 A 
ATOM      8  N   UNL     1       2.909   4.263  18.374  0.00  0.00    +0.000 N 
ATOM      9  C   UNL     1       2.480   5.547  17.876  0.00  0.00    +0.000 C 
ATOM     10  C   UNL     1       2.780   6.686  18.848  0.00  0.00    +0.000 C 
ENDROOT
BRANCH   1  11
ATOM     11  C   UNL     1       2.130   8.006  20.821  0.00  0.00    +0.000 C 
BRANCH  11  18
ATOM     12  C   UNL     1      -0.580   8.926  22.347  0.00  0.00    +0.000 C 
ATOM     13  C   UNL     1      -0.119   9.316  20.999  0.00  0.00    +0.000 A 
ATOM     14  N   UNL     1      -0.865  10.120  20.241  0.00  0.00    +0.000 NA
ATOM     15  O   UNL     1      -0.187  10.274  19.061  0.00  0.00    +0.000 OA
ATOM     16  C   UNL     1       0.975   9.566  19.095  0.00  0.00    +0.000 A 
ATOM     17  C   UNL     1       1.789   9.627  17.881  0.00  0.00    +0.000 C 
ATOM     18  C   UNL     1       1.078   8.923  20.320  0.00  0.00    +0.000 A 
ENDBRANCH  11  18
ENDBRANCH   1  11
BRANCH   7  19
ATOM     19  C   UNL     1       4.779   3.697  16.723  0.00  0.00    +0.000 C 
BRANCH  19  20
ATOM     20  N   UNL     1       5.652   4.863  16.949  0.00  0.00    +0.000 NA
ATOM     21  C   UNL     1       7.069   4.485  17.033  0.00  0.00    +0.000 C 
ATOM     22  C   UNL     1       5.489   5.812  15.840  0.00  0.00    +0.000 C 
ENDBRANCH  19  20
ENDBRANCH   7  19
TORSDOF 4
ENDMDL
MODEL 4
REMARK VINA RESULT:      -6.7      4.141      6.945
REMARK  Name = 
REMARK  8 active torsions:
REMARK  status: ('A' for Active; 'I' for Inactive)
REMARK    1  A    between atoms: C_1  and  C_2
REMARK    2  A    between atoms: C_5  and  C_6
REMARK    3  A    between atoms: C_7  and  C_8
REMARK    4  A    between atoms: C_8  and  N_9
REMARK    5  A    between atoms: C_15  and  C_16
REMARK    6  A    between atoms: C_16  and  N_17
REMARK    7  A    between atoms: N_17  and  C_18
REMARK    8  A    between atoms: N_17  and  C_19
REMARK                            x       y       z     vdW  Elec       q    Type
REMARK                         _______ _______ _______ _____ _____    ______ ____
ROOT
ATOM      1  N   UNL     1       2.383   7.053  19.359  0.00  0.00    +0.000 NA
ATOM      2  C   UNL     1       2.591   7.797  18.118  0.00  0.00    +0.000 C 
ATOM      3  C   UNL     1       1.649   8.928  17.678  0.00  0.00    +0.000 C 
ATOM      4  C   UNL     1       1.470  10.023  18.664  0.00  0.00    +0.000 A 
ATOM      5  N   UNL     1       1.654  11.312  18.457  0.00  0.00    +0.000 NA
ATOM      6  C   UNL     1       1.252  11.927  19.610  0.00  0.00    +0.000 A 
ATOM      7  C   UNL     1       0.842  11.010  20.558  0.00  0.00    +0.000 A 
ATOM      8  N   UNL     1       0.947   9.801  19.913  0.00  0.00    +0.000 N 
ATOM      9  C   UNL     1       0.526   8.496  20.364  0.00  0.00    +0.000 C 
ATOM     10  C   UNL     1       1.695   7.531  20.548  0.00  0.00    +0.000 C 
ENDROOT
BRANCH   1  11
ATOM     11  C   UNL     1       3.281   5.923  19.571  0.00  0.00    +0.000 C 
BRANCH  11  18
ATOM     12  C   UNL     1       4.340   4.823  16.710  0.00  0.00    +0.000 C 
ATOM     13  C   UNL     1       3.224   4.304  17.527  0.00  0.00    +0.000 A 
ATOM     14  N   UNL     1       2.494   3.276  17.092  0.00  0.00    +0.000 NA
ATOM     15  O   UNL     1       1.539   3.050  18.047  0.00  0.00    +0.000 OA
ATOM     16  C   UNL     1       1.683   3.938  19.070  0.00  0.00    +0.000 A 
ATOM     17  C   UNL     1       0.707   3.819  20.152  0.00  0.00    +0.000 C 
ATOM     18  C   UNL     1       2.754   4.776  18.794  0.00  0.00    +0.000 A 
ENDBRANCH  11  18
ENDBRANCH   1  11
BRANCH   7  19
ATOM     19  C   UNL     1       0.363  11.233  21.951  0.00  0.00    +0.000 C 
BRANCH  19  20
ATOM     20  N   UNL     1      -0.873  12.035  22.019  0.00  0.00    +0.000 NA
ATOM     21  C   UNL     1      -1.807  11.525  23.031  0.00  0.00    +0.000 C 
ATOM     22  C   UNL     1      -0.531  13.423  22.359  0.00  0.00    +0.000 C 
ENDBRANCH  19  20
ENDBRANCH   7  19
TORSDOF 4
ENDMDL
MODEL 5
REMARK VINA RESULT:      -6.6      4.203      6.955
REMARK  Name = 
REMARK  8 active torsions:
REMARK  status: ('A' for Active; 'I' for Inactive)
REMARK    1  A    between atoms: C_1  and  C_2
REMARK    2  A    between atoms: C_5  and  C_6
REMARK    3  A    between atoms: C_7  and  C_8
REMARK    4  A    between atoms: C_8  and  N_9
REMARK    5  A    between atoms: C_15  and  C_16
REMARK    6  A    between atoms: C_16  and  N_17
REMARK    7  A    between atoms: N_17  and  C_18
REMARK    8  A    between atoms: N_17  and  C_19
REMARK                            x       y       z     vdW  Elec       q    Type
REMARK                         _______ _______ _______ _____ _____    ______ ____
ROOT
ATOM      1  N   UNL     1       2.262   7.244  19.500  0.00  0.00    +0.000 NA
ATOM      2  C   UNL     1       2.499   7.993  18.268  0.00  0.00    +0.000 C 
ATOM      3  C   UNL     1       1.560   9.116  17.803  0.00  0.00    +0.000 C 
ATOM      4  C   UNL     1       1.340  10.206  18.785  0.00  0.00    +0.000 A 
ATOM      5  N   UNL     1       1.517  11.497  18.588  0.00  0.00    +0.000 NA
ATOM      6  C   UNL     1       1.073  12.105  19.730  0.00  0.00    +0.000 A 
ATOM      7  C   UNL     1       0.644  11.181  20.662  0.00  0.00    +0.000 A 
ATOM      8  N   UNL     1       0.781   9.975  20.018  0.00  0.00    +0.000 N 
ATOM      9  C   UNL     1       0.360   8.665  20.451  0.00  0.00    +0.000 C 
ATOM     10  C   UNL     1       1.533   7.711  20.669  0.00  0.00    +0.000 C 
ENDROOT
BRANCH   1  11
ATOM     11  C   UNL     1       3.164   6.122  19.737  0.00  0.00    +0.000 C 
BRANCH  11  18
ATOM     12  C   UNL     1       0.780   3.957  20.125  0.00  0.00    +0.000 C 
ATOM     13  C   UNL     1       1.728   4.073  18.998  0.00  0.00    +0.000 A 
ATOM     14  N   UNL     1       1.682   3.203  17.989  0.00  0.00    +0.000 NA
ATOM     15  O   UNL     1       2.685   3.559  17.127  0.00  0.00    +0.000 OA
ATOM     16  C   UNL     1       3.347   4.648  17.606  0.00  0.00    +0.000 A 
ATOM     17  C   UNL     1       4.463   5.121  16.787  0.00  0.00    +0.000 C 
ATOM     18  C   UNL     1       2.777   5.029  18.813  0.00  0.00    +0.000 A 
ENDBRANCH  11  18
ENDBRANCH   1  11
BRANCH   7  19
ATOM     19  C   UNL     1       0.120  11.395  22.040  0.00  0.00    +0.000 C 
BRANCH  19  20
ATOM     20  N   UNL     1      -1.062  12.276  22.082  0.00  0.00    +0.000 NA
ATOM     21  C   UNL     1      -2.092  11.775  23.002  0.00  0.00    +0.000 C 
ATOM     22  C   UNL     1      -0.652  13.614  22.527  0.00  0.00    +0.000 C 
ENDBRANCH  19  20
ENDBRANCH   7  19
TORSDOF 4
ENDMDL
MODEL 6
REMARK VINA RESULT:      -6.6      3.391      6.176
REMARK  Name = 
REMARK  8 active torsions:
REMARK  status: ('A' for Active; 'I' for Inactive)
REMARK    1  A    between atoms: C_1  and  C_2
REMARK    2  A    between atoms: C_5  and  C_6
REMARK    3  A    between atoms: C_7  and  C_8
REMARK    4  A    between atoms: C_8  and  N_9
REMARK    5  A    between atoms: C_15  and  C_16
REMARK    6  A    between atoms: C_16  and  N_17
REMARK    7  A    between atoms: N_17  and  C_18
REMARK    8  A    between atoms: N_17  and  C_19
REMARK                            x       y       z     vdW  Elec       q    Type
REMARK                         _______ _______ _______ _____ _____    ______ ____
ROOT
ATOM      1  N   UNL     1       2.049   6.831  20.013  0.00  0.00    +0.000 NA
ATOM      2  C   UNL     1       1.545   5.722  20.821  0.00  0.00    +0.000 C 
ATOM      3  C   UNL     1       1.227   4.349  20.211  0.00  0.00    +0.000 C 
ATOM      4  C   UNL     1       2.345   3.707  19.475  0.00  0.00    +0.000 A 
ATOM      5  N   UNL     1       2.838   2.502  19.677  0.00  0.00    +0.000 NA
ATOM      6  C   UNL     1       3.761   2.315  18.687  0.00  0.00    +0.000 A 
ATOM      7  C   UNL     1       3.868   3.427  17.876  0.00  0.00    +0.000 A 
ATOM      8  N   UNL     1       2.919   4.288  18.371  0.00  0.00    +0.000 N 
ATOM      9  C   UNL     1       2.482   5.556  17.839  0.00  0.00    +0.000 C 
ATOM     10  C   UNL     1       2.796   6.726  18.770  0.00  0.00    +0.000 C 
ENDROOT
BRANCH   1  11
ATOM     11  C   UNL     1       2.176   8.108  20.709  0.00  0.00    +0.000 C 
BRANCH  11  18
ATOM     12  C   UNL     1       1.705   9.688  17.916  0.00  0.00    +0.000 C 
ATOM     13  C   UNL     1       0.819   9.646  19.097  0.00  0.00    +0.000 A 
ATOM     14  N   UNL     1      -0.321  10.337  19.107  0.00  0.00    +0.000 NA
ATOM     15  O   UNL     1      -0.897  10.113  20.328  0.00  0.00    +0.000 OA
ATOM     16  C   UNL     1      -0.113   9.282  21.069  0.00  0.00    +0.000 A 
ATOM     17  C   UNL     1      -0.605   8.977  22.412  0.00  0.00    +0.000 C 
ATOM     18  C   UNL     1       1.013   8.945  20.330  0.00  0.00    +0.000 A 
ENDBRANCH  11  18
ENDBRANCH   1  11
BRANCH   7  19
ATOM     19  C   UNL     1       4.763   3.670  16.710  0.00  0.00    +0.000 C 
BRANCH  19  20
ATOM     20  N   UNL     1       5.624   4.856  16.876  0.00  0.00    +0.000 NA
ATOM     21  C   UNL     1       7.039   4.496  17.026  0.00  0.00    +0.000 C 
ATOM     22  C   UNL     1       5.487   5.721  15.696  0.00  0.00    +0.000 C 
ENDBRANCH  19  20
ENDBRANCH   7  19
TORSDOF 4
ENDMDL
MODEL 7
REMARK VINA RESULT:      -6.5      1.997      4.360
REMARK  Name = 
REMARK  8 active torsions:
REMARK  status: ('A' for Active; 'I' for Inactive)
REMARK    1  A    between atoms: C_1  and  C_2
REMARK    2  A    between atoms: C_5  and  C_6
REMARK    3  A    between atoms: C_7  and  C_8
REMARK    4  A    between atoms: C_8  and  N_9
REMARK    5  A    between atoms: C_15  and  C_16
REMARK    6  A    between atoms: C_16  and  N_17
REMARK    7  A    between atoms: N_17  and  C_18
REMARK    8  A    between atoms: N_17  and  C_19
REMARK                            x       y       z     vdW  Elec       q    Type
REMARK                         _______ _______ _______ _____ _____    ______ ____
ROOT
ATOM      1  N   UNL     1       4.475   3.881  17.422  0.00  0.00    +0.000 NA
ATOM      2  C   UNL     1       4.074   2.920  18.448  0.00  0.00    +0.000 C 
ATOM      3  C   UNL     1       3.883   3.327  19.916  0.00  0.00    +0.000 C 
ATOM      4  C   UNL     1       2.924   4.437  20.147  0.00  0.00    +0.000 A 
ATOM      5  N   UNL     1       1.879   4.427  20.950  0.00  0.00    +0.000 NA
ATOM      6  C   UNL     1       1.382   5.700  20.918  0.00  0.00    +0.000 A 
ATOM      7  C   UNL     1       2.106   6.505  20.062  0.00  0.00    +0.000 A 
ATOM      8  N   UNL     1       3.116   5.688  19.615  0.00  0.00    +0.000 N 
ATOM      9  C   UNL     1       4.259   6.024  18.800  0.00  0.00    +0.000 C 
ATOM     10  C   UNL     1       4.246   5.317  17.447  0.00  0.00    +0.000 C 
ENDROOT
BRANCH   1  11
ATOM     11  C   UNL     1       4.746   3.316  16.104  0.00  0.00    +0.000 C 
BRANCH  11  18
ATOM     12  C   UNL     1       5.205   4.061  12.981  0.00  0.00    +0.000 C 
ATOM     13  C   UNL     1       6.072   4.390  14.131  0.00  0.00    +0.000 A 
ATOM     14  N   UNL     1       7.217   5.048  13.944  0.00  0.00    +0.000 NA
ATOM     15  O   UNL     1       7.792   5.179  15.179  0.00  0.00    +0.000 OA
ATOM     16  C   UNL     1       7.001   4.603  16.126  0.00  0.00    +0.000 A 
ATOM     17  C   UNL     1       7.514   4.654  17.495  0.00  0.00    +0.000 C 
ATOM     18  C   UNL     1       5.874   4.073  15.513  0.00  0.00    +0.000 A 
ENDBRANCH  11  18
ENDBRANCH   1  11
BRANCH   7  19
ATOM     19  C   UNL     1       1.898   7.936  19.700  0.00  0.00    +0.000 C 
BRANCH  19  20
ATOM     20  N   UNL     1       0.896   8.610  20.547  0.00  0.00    +0.000 NA
ATOM     21  C   UNL     1       1.454   9.020  21.842  0.00  0.00    +0.000 C 
ATOM     22  C   UNL     1       0.404   9.807  19.853  0.00  0.00    +0.000 C 
ENDBRANCH  19  20
ENDBRANCH   7  19
TORSDOF 4
ENDMDL
MODEL 8
REMARK VINA RESULT:      -6.4      3.503      6.216
REMARK  Name = 
REMARK  8 active torsions:
REMARK  status: ('A' for Active; 'I' for Inactive)
REMARK    1  A    between atoms: C_1  and  C_2
REMARK    2  A    between atoms: C_5  and  C_6
REMARK    3  A    between atoms: C_7  and  C_8
REMARK    4  A    between atoms: C_8  and  N_9
REMARK    5  A    between atoms: C_15  and  C_16
REMARK    6  A    between atoms: C_16  and  N_17
REMARK    7  A    between atoms: N_17  and  C_18
REMARK    8  A    between atoms: N_17  and  C_19
REMARK                            x       y       z     vdW  Elec       q    Type
REMARK                         _______ _______ _______ _____ _____    ______ ____
ROOT
ATOM      1  N   UNL     1       2.383   6.183  18.668  0.00  0.00    +0.000 NA
ATOM      2  C   UNL     1       2.029   5.988  20.072  0.00  0.00    +0.000 C 
ATOM      3  C   UNL     1       1.972   7.157  21.067  0.00  0.00    +0.000 C 
ATOM      4  C   UNL     1       1.078   8.277  20.679  0.00  0.00    +0.000 A 
ATOM      5  N   UNL     1       0.101   8.796  21.396  0.00  0.00    +0.000 NA
ATOM      6  C   UNL     1      -0.347   9.870  20.679  0.00  0.00    +0.000 A 
ATOM      7  C   UNL     1       0.336  10.005  19.487  0.00  0.00    +0.000 A 
ATOM      8  N   UNL     1       1.275   9.002  19.530  0.00  0.00    +0.000 N 
ATOM      9  C   UNL     1       2.361   8.739  18.617  0.00  0.00    +0.000 C 
ATOM     10  C   UNL     1       2.212   7.403  17.894  0.00  0.00    +0.000 C 
ENDROOT
BRANCH   1  11
ATOM     11  C   UNL     1       2.525   4.962  17.881  0.00  0.00    +0.000 C 
BRANCH  11  18
ATOM     12  C   UNL     1       1.865   2.045  19.137  0.00  0.00    +0.000 C 
ATOM     13  C   UNL     1       3.147   2.779  19.167  0.00  0.00    +0.000 A 
ATOM     14  N   UNL     1       4.204   2.260  19.792  0.00  0.00    +0.000 NA
ATOM     15  O   UNL     1       5.215   3.174  19.663  0.00  0.00    +0.000 OA
ATOM     16  C   UNL     1       4.780   4.254  18.957  0.00  0.00    +0.000 A 
ATOM     17  C   UNL     1       5.761   5.322  18.765  0.00  0.00    +0.000 C 
ATOM     18  C   UNL     1       3.450   4.062  18.609  0.00  0.00    +0.000 A 
ENDBRANCH  11  18
ENDBRANCH   1  11
BRANCH   7  19
ATOM     19  C   UNL     1       0.155  11.003  18.396  0.00  0.00    +0.000 C 
BRANCH  19  20
ATOM     20  N   UNL     1      -0.882  12.008  18.694  0.00  0.00    +0.000 NA
ATOM     21  C   UNL     1      -0.432  13.373  18.393  0.00  0.00    +0.000 C 
ATOM     22  C   UNL     1      -2.076  11.724  17.886  0.00  0.00    +0.000 C 
ENDBRANCH  19  20
ENDBRANCH   7  19
TORSDOF 4
ENDMDL
MODEL 9
REMARK VINA RESULT:      -6.3      5.005      7.565
REMARK  Name = 
REMARK  8 active torsions:
REMARK  status: ('A' for Active; 'I' for Inactive)
REMARK    1  A    between atoms: C_1  and  C_2
REMARK    2  A    between atoms: C_5  and  C_6
REMARK    3  A    between atoms: C_7  and  C_8
REMARK    4  A    between atoms: C_8  and  N_9
REMARK    5  A    between atoms: C_15  and  C_16
REMARK    6  A    between atoms: C_16  and  N_17
REMARK    7  A    between atoms: N_17  and  C_18
REMARK    8  A    between atoms: N_17  and  C_19
REMARK                            x       y       z     vdW  Elec       q    Type
REMARK                         _______ _______ _______ _____ _____    ______ ____
ROOT
ATOM      1  N   UNL     1       0.370   9.786  19.642  0.00  0.00    +0.000 NA
ATOM      2  C   UNL     1       1.037   9.808  18.342  0.00  0.00    +0.000 C 
ATOM      3  C   UNL     1       2.380   9.104  18.104  0.00  0.00    +0.000 C 
ATOM      4  C   UNL     1       2.407   7.658  18.436  0.00  0.00    +0.000 A 
ATOM      5  N   UNL     1       2.772   6.670  17.643  0.00  0.00    +0.000 NA
ATOM      6  C   UNL     1       2.744   5.548  18.422  0.00  0.00    +0.000 A 
ATOM      7  C   UNL     1       2.328   5.832  19.707  0.00  0.00    +0.000 A 
ATOM      8  N   UNL     1       2.162   7.196  19.705  0.00  0.00    +0.000 N 
ATOM      9  C   UNL     1       1.867   8.074  20.812  0.00  0.00    +0.000 C 
ATOM     10  C   UNL     1       0.513   8.767  20.671  0.00  0.00    +0.000 C 
ENDROOT
BRANCH   1  11
ATOM     11  C   UNL     1      -0.830  10.611  19.748  0.00  0.00    +0.000 C 
BRANCH  11  18
ATOM     12  C   UNL     1       0.534  13.455  18.994  0.00  0.00    +0.000 C 
ATOM     13  C   UNL     1       0.086  12.985  20.321  0.00  0.00    +0.000 A 
ATOM     14  N   UNL     1       0.252  13.754  21.397  0.00  0.00    +0.000 NA
ATOM     15  O   UNL     1      -0.236  13.041  22.459  0.00  0.00    +0.000 OA
ATOM     16  C   UNL     1      -0.705  11.835  22.035  0.00  0.00    +0.000 A 
ATOM     17  C   UNL     1      -1.238  10.960  23.079  0.00  0.00    +0.000 C 
ATOM     18  C   UNL     1      -0.524  11.736  20.662  0.00  0.00    +0.000 A 
ENDBRANCH  11  18
ENDBRANCH   1  11
BRANCH   7  19
ATOM     19  C   UNL     1       2.121   4.917  20.864  0.00  0.00    +0.000 C 
BRANCH  19  20
ATOM     20  N   UNL     1       2.120   3.492  20.485  0.00  0.00    +0.000 NA
ATOM     21  C   UNL     1       2.489   2.620  21.608  0.00  0.00    +0.000 C 
ATOM     22  C   UNL     1       0.777   3.115  20.026  0.00  0.00    +0.000 C 
ENDBRANCH  19  20
ENDBRANCH   7  19
TORSDOF 4
ENDMDL
