MODEL 1
REMARK VINA RESULT:      -7.0      0.000      0.000
REMARK  Name = 
REMARK  8 active torsions:
REMARK  status: ('A' for Active; 'I' for Inactive)
REMARK    1  A    between atoms: C_2  and  C_4
REMARK    2  A    between atoms: N_7  and  C_8
REMARK    3  A    between atoms: C_10  and  C_11
REMARK    4  A    between atoms: C_11  and  O_12
REMARK    5  A    between atoms: O_12  and  P_13
REMARK    6  A    between atoms: P_13  and  O_16
REMARK    7  A    between atoms: C_17  and  O_18
REMARK    8  A    between atoms: C_19  and  O_20
REMARK                            x       y       z     vdW  Elec       q    Type
REMARK                         _______ _______ _______ _____ _____    ______ ____
ROOT
ATOM      1  C   UNL     1       6.980   4.664  17.508  0.00  0.00    +0.000 C 
ATOM      2  O   UNL     1       6.063   3.814  18.226  0.00  0.00    +0.000 OA
ATOM      3  C   UNL     1       5.549   4.542  19.375  0.00  0.00    +0.000 C 
ATOM      4  C   UNL     1       6.427   5.793  19.492  0.00  0.00    +0.000 C 
ATOM      5  C   UNL     1       6.796   6.080  18.044  0.00  0.00    +0.000 C 
ENDROOT
BRANCH   1   9
ATOM      6  C   UNL     1       7.133   4.751  14.021  0.00  0.00    +0.000 A 
ATOM      7  N   UNL     1       6.013   3.942  14.079  0.00  0.00    +0.000 NA
ATOM      8  C   UNL     1       5.812   3.840  15.382  0.00  0.00    +0.000 A 
ATOM      9  N   UNL     1       6.808   4.478  16.072  0.00  0.00    +0.000 N 
ATOM     10  N   UNL     1       7.631   5.121  15.202  0.00  0.00    +0.000 NA
BRANCH   6  12
ATOM     11  N   UNL     1       7.348   4.358  11.667  0.00  0.00    +0.000 N 
ATOM     12  C   UNL     1       7.690   5.154  12.721  0.00  0.00    +0.000 C 
ATOM     13  O   UNL     1       8.409   6.141  12.636  0.00  0.00    +0.000 OA
ATOM     14  H   UNL     1       7.641   4.578  10.724  0.00  0.00    +0.000 HD
ATOM     15  H   UNL     1       6.690   3.595  11.813  0.00  0.00    +0.000 HD
ENDBRANCH   6  12
ENDBRANCH   1   9
BRANCH   4  16
ATOM     16  O   UNL     1       7.672   5.540  20.177  0.00  0.00    +0.000 OA
ATOM     17  H   UNL     1       7.721   4.589  20.387  0.00  0.00    +0.000 HD
ENDBRANCH   4  16
BRANCH   5  18
ATOM     18  O   UNL     1       7.993   6.853  17.942  0.00  0.00    +0.000 OA
ATOM     19  H   UNL     1       7.839   7.639  18.513  0.00  0.00    +0.000 HD
ENDBRANCH   5  18
BRANCH   3  20
ATOM     20  C   UNL     1       4.076   4.892  19.159  0.00  0.00    +0.000 C 
BRANCH  20  21
ATOM     21  O   UNL     1       3.577   4.249  17.981  0.00  0.00    +0.000 OA
BRANCH  21  22
ATOM     22  P   UNL     1       2.406   3.016  18.300  0.00  0.00    +0.000 P 
ATOM     23  O   UNL     1       1.338   3.666  17.420  0.00  0.00    +0.000 OA
ATOM     24  O   UNL     1       3.322   1.941  17.705  0.00  0.00    +0.000 OA
BRANCH  22  25
ATOM     25  O   UNL     1       1.235   1.782  18.617  0.00  0.00    +0.000 OA
ATOM     26  H   UNL     1       1.604   1.528  19.489  0.00  0.00    +0.000 HD
ENDBRANCH  22  25
ENDBRANCH  21  22
ENDBRANCH  20  21
ENDBRANCH   3  20
TORSDOF 8
ENDMDL
MODEL 2
REMARK VINA RESULT:      -6.8      1.778      2.144
REMARK  Name = 
REMARK  8 active torsions:
REMARK  status: ('A' for Active; 'I' for Inactive)
REMARK    1  A    between atoms: C_2  and  C_4
REMARK    2  A    between atoms: N_7  and  C_8
REMARK    3  A    between atoms: C_10  and  C_11
REMARK    4  A    between atoms: C_11  and  O_12
REMARK    5  A    between atoms: O_12  and  P_13
REMARK    6  A    between atoms: P_13  and  O_16
REMARK    7  A    between atoms: C_17  and  O_18
REMARK    8  A    between atoms: C_19  and  O_20
REMARK                            x       y       z     vdW  Elec       q    Type
REMARK                         _______ _______ _______ _____ _____    ______ ____
ROOT
ATOM      1  C   UNL     1       7.098   4.840  16.178  0.00  0.00    +0.000 C 
ATOM      2  O   UNL     1       6.349   3.851  16.914  0.00  0.00    +0.000 OA
ATOM      3  C   UNL     1       5.745   4.488  18.073  0.00  0.00    +0.000 C 
ATOM      4  C   UNL     1       6.406   5.868  18.173  0.00  0.00    +0.000 C 
ATOM      5  C   UNL     1       6.693   6.207  16.719  0.00  0.00    +0.000 C 
ENDROOT
BRANCH   1   9
ATOM      6  C   UNL     1       6.222   3.749  12.979  0.00  0.00    +0.000 A 
ATOM      7  N   UNL     1       7.192   4.637  12.550  0.00  0.00    +0.000 NA
ATOM      8  C   UNL     1       7.647   5.123  13.692  0.00  0.00    +0.000 A 
ATOM      9  N   UNL     1       6.930   4.624  14.746  0.00  0.00    +0.000 N 
ATOM     10  N   UNL     1       6.049   3.690  14.301  0.00  0.00    +0.000 NA
BRANCH   6  12
ATOM     11  N   UNL     1       6.060   1.775  11.631  0.00  0.00    +0.000 N 
ATOM     12  C   UNL     1       5.468   2.946  12.005  0.00  0.00    +0.000 C 
ATOM     13  O   UNL     1       4.388   3.339  11.584  0.00  0.00    +0.000 OA
ATOM     14  H   UNL     1       5.601   1.130  11.002  0.00  0.00    +0.000 HD
ATOM     15  H   UNL     1       6.929   1.490  12.081  0.00  0.00    +0.000 HD
ENDBRANCH   6  12
ENDBRANCH   1   9
BRANCH   4  16
ATOM     16  O   UNL     1       7.689   5.825  18.833  0.00  0.00    +0.000 OA
ATOM     17  H   UNL     1       7.640   6.371  19.640  0.00  0.00    +0.000 HD
ENDBRANCH   4  16
BRANCH   5  18
ATOM     18  O   UNL     1       7.744   7.167  16.592  0.00  0.00    +0.000 OA
ATOM     19  H   UNL     1       7.289   8.022  16.416  0.00  0.00    +0.000 HD
ENDBRANCH   5  18
BRANCH   3  20
ATOM     20  C   UNL     1       4.230   4.590  17.888  0.00  0.00    +0.000 C 
BRANCH  20  21
ATOM     21  O   UNL     1       3.750   3.499  17.094  0.00  0.00    +0.000 OA
BRANCH  21  22
ATOM     22  P   UNL     1       2.491   2.583  17.850  0.00  0.00    +0.000 P 
ATOM     23  O   UNL     1       3.188   2.566  19.211  0.00  0.00    +0.000 OA
ATOM     24  O   UNL     1       1.462   3.676  17.544  0.00  0.00    +0.000 OA
BRANCH  22  25
ATOM     25  O   UNL     1       1.232   1.669  18.607  0.00  0.00    +0.000 OA
ATOM     26  H   UNL     1       0.943   2.389  19.206  0.00  0.00    +0.000 HD
ENDBRANCH  22  25
ENDBRANCH  21  22
ENDBRANCH  20  21
ENDBRANCH   3  20
TORSDOF 8
ENDMDL
MODEL 3
REMARK VINA RESULT:      -6.8      2.783      4.995
REMARK  Name = 
REMARK  8 active torsions:
REMARK  status: ('A' for Active; 'I' for Inactive)
REMARK    1  A    between atoms: C_2  and  C_4
REMARK    2  A    between atoms: N_7  and  C_8
REMARK    3  A    between atoms: C_10  and  C_11
REMARK    4  A    between atoms: C_11  and  O_12
REMARK    5  A    between atoms: O_12  and  P_13
REMARK    6  A    between atoms: P_13  and  O_16
REMARK    7  A    between atoms: C_17  and  O_18
REMARK    8  A    between atoms: C_19  and  O_20
REMARK                            x       y       z     vdW  Elec       q    Type
REMARK                         _______ _______ _______ _____ _____    ______ ____
ROOT
ATOM      1  C   UNL     1       4.179   3.361  17.699  0.00  0.00    +0.000 C 
ATOM      2  O   UNL     1       3.109   4.294  17.448  0.00  0.00    +0.000 OA
ATOM      3  C   UNL     1       1.999   3.984  18.335  0.00  0.00    +0.000 C 
ATOM      4  C   UNL     1       2.333   2.619  18.947  0.00  0.00    +0.000 C 
ATOM      5  C   UNL     1       3.852   2.640  19.002  0.00  0.00    +0.000 C 
ENDROOT
BRANCH   1   9
ATOM      6  C   UNL     1       7.078   5.221  18.268  0.00  0.00    +0.000 A 
ATOM      7  N   UNL     1       7.325   5.010  16.924  0.00  0.00    +0.000 NA
ATOM      8  C   UNL     1       6.261   4.317  16.553  0.00  0.00    +0.000 A 
ATOM      9  N   UNL     1       5.462   4.049  17.633  0.00  0.00    +0.000 N 
ATOM     10  N   UNL     1       5.950   4.681  18.733  0.00  0.00    +0.000 NA
BRANCH   6  12
ATOM     11  N   UNL     1       8.483   5.378  20.204  0.00  0.00    +0.000 N 
ATOM     12  C   UNL     1       8.022   6.002  19.081  0.00  0.00    +0.000 C 
ATOM     13  O   UNL     1       8.344   7.132  18.738  0.00  0.00    +0.000 OA
ATOM     14  H   UNL     1       9.172   5.813  20.803  0.00  0.00    +0.000 HD
ATOM     15  H   UNL     1       8.216   4.411  20.380  0.00  0.00    +0.000 HD
ENDBRANCH   6  12
ENDBRANCH   1   9
BRANCH   4  16
ATOM     16  O   UNL     1       1.982   1.518  18.081  0.00  0.00    +0.000 OA
ATOM     17  H   UNL     1       1.143   1.733  17.632  0.00  0.00    +0.000 HD
ENDBRANCH   4  16
BRANCH   5  18
ATOM     18  O   UNL     1       4.403   1.322  19.040  0.00  0.00    +0.000 OA
ATOM     19  H   UNL     1       5.183   1.354  18.440  0.00  0.00    +0.000 HD
ENDBRANCH   5  18
BRANCH   3  20
ATOM     20  C   UNL     1       1.858   5.072  19.402  0.00  0.00    +0.000 C 
BRANCH  20  21
ATOM     21  O   UNL     1       2.901   6.044  19.263  0.00  0.00    +0.000 OA
BRANCH  21  22
ATOM     22  P   UNL     1       2.448   7.427  18.326  0.00  0.00    +0.000 P 
ATOM     23  O   UNL     1       2.065   8.254  19.554  0.00  0.00    +0.000 OA
ATOM     24  O   UNL     1       3.862   7.544  17.748  0.00  0.00    +0.000 OA
BRANCH  22  25
ATOM     25  O   UNL     1       1.996   8.809  17.390  0.00  0.00    +0.000 OA
ATOM     26  H   UNL     1       2.911   9.052  17.135  0.00  0.00    +0.000 HD
ENDBRANCH  22  25
ENDBRANCH  21  22
ENDBRANCH  20  21
ENDBRANCH   3  20
TORSDOF 8
ENDMDL
MODEL 4
REMARK VINA RESULT:      -6.8      1.039      1.078
REMARK  Name = 
REMARK  8 active torsions:
REMARK  status: ('A' for Active; 'I' for Inactive)
REMARK    1  A    between atoms: C_2  and  C_4
REMARK    2  A    between atoms: N_7  and  C_8
REMARK    3  A    between atoms: C_10  and  C_11
REMARK    4  A    between atoms: C_11  and  O_12
REMARK    5  A    between atoms: O_12  and  P_13
REMARK    6  A    between atoms: P_13  and  O_16
REMARK    7  A    between atoms: C_17  and  O_18
REMARK    8  A    between atoms: C_19  and  O_20
REMARK                            x       y       z     vdW  Elec       q    Type
REMARK                         _______ _______ _______ _____ _____    ______ ____
ROOT
ATOM      1  C   UNL     1       6.723   4.592  17.439  0.00  0.00    +0.000 C 
ATOM      2  O   UNL     1       5.678   3.829  18.077  0.00  0.00    +0.000 OA
ATOM      3  C   UNL     1       5.184   4.577  19.222  0.00  0.00    +0.000 C 
ATOM      4  C   UNL     1       6.187   5.718  19.429  0.00  0.00    +0.000 C 
ATOM      5  C   UNL     1       6.667   6.002  18.015  0.00  0.00    +0.000 C 
ENDROOT
BRANCH   1   9
ATOM      6  C   UNL     1       7.088   4.755  13.971  0.00  0.00    +0.000 A 
ATOM      7  N   UNL     1       5.876   4.089  13.940  0.00  0.00    +0.000 NA
ATOM      8  C   UNL     1       5.589   3.976  15.226  0.00  0.00    +0.000 A 
ATOM      9  N   UNL     1       6.613   4.467  15.991  0.00  0.00    +0.000 N 
ATOM     10  N   UNL     1       7.558   5.027  15.189  0.00  0.00    +0.000 NA
BRANCH   6  12
ATOM     11  N   UNL     1       8.761   6.045  12.839  0.00  0.00    +0.000 N 
ATOM     12  C   UNL     1       7.764   5.121  12.718  0.00  0.00    +0.000 C 
ATOM     13  O   UNL     1       7.424   4.607  11.660  0.00  0.00    +0.000 OA
ATOM     14  H   UNL     1       9.317   6.327  12.043  0.00  0.00    +0.000 HD
ATOM     15  H   UNL     1       9.026   6.371  13.767  0.00  0.00    +0.000 HD
ENDBRANCH   6  12
ENDBRANCH   1   9
BRANCH   4  16
ATOM     16  O   UNL     1       7.355   5.306  20.170  0.00  0.00    +0.000 OA
ATOM     17  H   UNL     1       7.381   4.331  20.189  0.00  0.00    +0.000 HD
ENDBRANCH   4  16
BRANCH   5  18
ATOM     18  O   UNL     1       7.946   6.638  18.003  0.00  0.00    +0.000 OA
ATOM     19  H   UNL     1       8.516   6.057  17.450  0.00  0.00    +0.000 HD
ENDBRANCH   5  18
BRANCH   3  20
ATOM     20  C   UNL     1       3.773   5.098  18.940  0.00  0.00    +0.000 C 
BRANCH  20  21
ATOM     21  O   UNL     1       2.991   4.092  18.286  0.00  0.00    +0.000 OA
BRANCH  21  22
ATOM     22  P   UNL     1       1.673   3.500  19.239  0.00  0.00    +0.000 P 
ATOM     23  O   UNL     1       0.800   3.200  18.020  0.00  0.00    +0.000 OA
ATOM     24  O   UNL     1       2.550   2.391  19.830  0.00  0.00    +0.000 OA
BRANCH  22  25
ATOM     25  O   UNL     1       0.356   2.908  20.191  0.00  0.00    +0.000 OA
ATOM     26  H   UNL     1      -0.339   3.390  19.696  0.00  0.00    +0.000 HD
ENDBRANCH  22  25
ENDBRANCH  21  22
ENDBRANCH  20  21
ENDBRANCH   3  20
TORSDOF 8
ENDMDL
MODEL 5
REMARK VINA RESULT:      -6.8      3.637      6.181
REMARK  Name = 
REMARK  8 active torsions:
REMARK  status: ('A' for Active; 'I' for Inactive)
REMARK    1  A    between atoms: C_2  and  C_4
REMARK    2  A    between atoms: N_7  and  C_8
REMARK    3  A    between atoms: C_10  and  C_11
REMARK    4  A    between atoms: C_11  and  O_12
REMARK    5  A    between atoms: O_12  and  P_13
REMARK    6  A    between atoms: P_13  and  O_16
REMARK    7  A    between atoms: C_17  and  O_18
REMARK    8  A    between atoms: C_19  and  O_20
REMARK                            x       y       z     vdW  Elec       q    Type
REMARK                         _______ _______ _______ _____ _____    ______ ____
ROOT
ATOM      1  C   UNL     1       5.457   5.501  18.822  0.00  0.00    +0.000 C 
ATOM      2  O   UNL     1       4.759   6.381  17.918  0.00  0.00    +0.000 OA
ATOM      3  C   UNL     1       5.666   6.775  16.852  0.00  0.00    +0.000 C 
ATOM      4  C   UNL     1       7.057   6.320  17.311  0.00  0.00    +0.000 C 
ATOM      5  C   UNL     1       6.749   5.078  18.132  0.00  0.00    +0.000 C 
ENDROOT
BRANCH   1   9
ATOM      6  C   UNL     1       2.991   3.512  20.289  0.00  0.00    +0.000 A 
ATOM      7  N   UNL     1       3.671   2.460  19.704  0.00  0.00    +0.000 NA
ATOM      8  C   UNL     1       4.682   3.077  19.114  0.00  0.00    +0.000 A 
ATOM      9  N   UNL     1       4.566   4.433  19.261  0.00  0.00    +0.000 N 
ATOM     10  N   UNL     1       3.512   4.721  20.070  0.00  0.00    +0.000 NA
BRANCH   6  12
ATOM     11  N   UNL     1       0.605   3.326  20.416  0.00  0.00    +0.000 N 
ATOM     12  C   UNL     1       1.787   3.260  21.094  0.00  0.00    +0.000 C 
ATOM     13  O   UNL     1       1.884   3.012  22.289  0.00  0.00    +0.000 OA
ATOM     14  H   UNL     1      -0.276   3.122  20.870  0.00  0.00    +0.000 HD
ATOM     15  H   UNL     1       0.618   3.471  19.408  0.00  0.00    +0.000 HD
ENDBRANCH   6  12
ENDBRANCH   1   9
BRANCH   4  16
ATOM     16  O   UNL     1       7.678   7.254  18.220  0.00  0.00    +0.000 OA
ATOM     17  H   UNL     1       7.336   7.085  19.118  0.00  0.00    +0.000 HD
ENDBRANCH   4  16
BRANCH   5  18
ATOM     18  O   UNL     1       7.788   4.786  19.069  0.00  0.00    +0.000 OA
ATOM     19  H   UNL     1       7.718   5.489  19.754  0.00  0.00    +0.000 HD
ENDBRANCH   5  18
BRANCH   3  20
ATOM     20  C   UNL     1       5.251   6.114  15.537  0.00  0.00    +0.000 C 
BRANCH  20  21
ATOM     21  O   UNL     1       6.402   5.857  14.723  0.00  0.00    +0.000 OA
BRANCH  21  22
ATOM     22  P   UNL     1       6.280   4.415  13.775  0.00  0.00    +0.000 P 
ATOM     23  O   UNL     1       7.508   4.752  12.928  0.00  0.00    +0.000 OA
ATOM     24  O   UNL     1       6.441   3.538  15.021  0.00  0.00    +0.000 OA
BRANCH  22  25
ATOM     25  O   UNL     1       6.160   2.972  12.828  0.00  0.00    +0.000 OA
ATOM     26  H   UNL     1       5.183   2.994  12.751  0.00  0.00    +0.000 HD
ENDBRANCH  22  25
ENDBRANCH  21  22
ENDBRANCH  20  21
ENDBRANCH   3  20
TORSDOF 8
ENDMDL
MODEL 6
REMARK VINA RESULT:      -6.8      0.896      1.125
REMARK  Name = 
REMARK  8 active torsions:
REMARK  status: ('A' for Active; 'I' for Inactive)
REMARK    1  A    between atoms: C_2  and  C_4
REMARK    2  A    between atoms: N_7  and  C_8
REMARK    3  A    between atoms: C_10  and  C_11
REMARK    4  A    between atoms: C_11  and  O_12
REMARK    5  A    between atoms: O_12  and  P_13
REMARK    6  A    between atoms: P_13  and  O_16
REMARK    7  A    between atoms: C_17  and  O_18
REMARK    8  A    between atoms: C_19  and  O_20
REMARK                            x       y       z     vdW  Elec       q    Type
REMARK                         _______ _______ _______ _____ _____    ______ ____
ROOT
ATOM      1  C   UNL     1       6.811   4.641  17.389  0.00  0.00    +0.000 C 
ATOM      2  O   UNL     1       5.850   3.802  18.063  0.00  0.00    +0.000 OA
ATOM      3  C   UNL     1       5.329   4.518  19.216  0.00  0.00    +0.000 C 
ATOM      4  C   UNL     1       6.242   5.739  19.386  0.00  0.00    +0.000 C 
ATOM      5  C   UNL     1       6.656   6.048  17.956  0.00  0.00    +0.000 C 
ENDROOT
BRANCH   1   9
ATOM      6  C   UNL     1       7.087   4.769  13.912  0.00  0.00    +0.000 A 
ATOM      7  N   UNL     1       5.896   4.065  13.919  0.00  0.00    +0.000 NA
ATOM      8  C   UNL     1       5.644   3.961  15.213  0.00  0.00    +0.000 A 
ATOM      9  N   UNL     1       6.671   4.494  15.946  0.00  0.00    +0.000 N 
ATOM     10  N   UNL     1       7.577   5.073  15.115  0.00  0.00    +0.000 NA
BRANCH   6  12
ATOM     11  N   UNL     1       8.635   6.151  12.711  0.00  0.00    +0.000 N 
ATOM     12  C   UNL     1       7.721   5.139  12.638  0.00  0.00    +0.000 C 
ATOM     13  O   UNL     1       7.420   4.555  11.605  0.00  0.00    +0.000 OA
ATOM     14  H   UNL     1       9.160   6.447  11.899  0.00  0.00    +0.000 HD
ATOM     15  H   UNL     1       8.876   6.537  13.622  0.00  0.00    +0.000 HD
ENDBRANCH   6  12
ENDBRANCH   1   9
BRANCH   4  16
ATOM     16  O   UNL     1       7.460   5.430  20.096  0.00  0.00    +0.000 OA
ATOM     17  H   UNL     1       7.248   4.817  20.823  0.00  0.00    +0.000 HD
ENDBRANCH   4  16
BRANCH   5  18
ATOM     18  O   UNL     1       7.878   6.786  17.902  0.00  0.00    +0.000 OA
ATOM     19  H   UNL     1       8.425   6.428  18.638  0.00  0.00    +0.000 HD
ENDBRANCH   5  18
BRANCH   3  20
ATOM     20  C   UNL     1       3.873   4.919  18.973  0.00  0.00    +0.000 C 
BRANCH  20  21
ATOM     21  O   UNL     1       3.359   4.250  17.815  0.00  0.00    +0.000 OA
BRANCH  21  22
ATOM     22  P   UNL     1       2.151   3.063  18.173  0.00  0.00    +0.000 P 
ATOM     23  O   UNL     1       2.320   3.206  19.686  0.00  0.00    +0.000 OA
ATOM     24  O   UNL     1       1.078   3.886  17.452  0.00  0.00    +0.000 OA
BRANCH  22  25
ATOM     25  O   UNL     1       0.943   1.878  18.530  0.00  0.00    +0.000 OA
ATOM     26  H   UNL     1       0.838   1.572  17.605  0.00  0.00    +0.000 HD
ENDBRANCH  22  25
ENDBRANCH  21  22
ENDBRANCH  20  21
ENDBRANCH   3  20
TORSDOF 8
ENDMDL
MODEL 7
REMARK VINA RESULT:      -6.7      1.636      1.909
REMARK  Name = 
REMARK  8 active torsions:
REMARK  status: ('A' for Active; 'I' for Inactive)
REMARK    1  A    between atoms: C_2  and  C_4
REMARK    2  A    between atoms: N_7  and  C_8
REMARK    3  A    between atoms: C_10  and  C_11
REMARK    4  A    between atoms: C_11  and  O_12
REMARK    5  A    between atoms: O_12  and  P_13
REMARK    6  A    between atoms: P_13  and  O_16
REMARK    7  A    between atoms: C_17  and  O_18
REMARK    8  A    between atoms: C_19  and  O_20
REMARK                            x       y       z     vdW  Elec       q    Type
REMARK                         _______ _______ _______ _____ _____    ______ ____
ROOT
ATOM      1  C   UNL     1       6.361   4.536  17.073  0.00  0.00    +0.000 C 
ATOM      2  O   UNL     1       5.108   3.920  17.437  0.00  0.00    +0.000 OA
ATOM      3  C   UNL     1       4.541   4.642  18.566  0.00  0.00    +0.000 C 
ATOM      4  C   UNL     1       5.661   5.561  19.067  0.00  0.00    +0.000 C 
ATOM      5  C   UNL     1       6.430   5.878  17.794  0.00  0.00    +0.000 C 
ENDROOT
BRANCH   1   9
ATOM      6  C   UNL     1       6.252   3.951  13.634  0.00  0.00    +0.000 A 
ATOM      7  N   UNL     1       7.170   4.982  13.558  0.00  0.00    +0.000 NA
ATOM      8  C   UNL     1       7.336   5.299  14.831  0.00  0.00    +0.000 A 
ATOM      9  N   UNL     1       6.497   4.560  15.622  0.00  0.00    +0.000 N 
ATOM     10  N   UNL     1       5.838   3.645  14.864  0.00  0.00    +0.000 NA
BRANCH   6  12
ATOM     11  N   UNL     1       6.702   2.402  11.861  0.00  0.00    +0.000 N 
ATOM     12  C   UNL     1       5.803   3.267  12.411  0.00  0.00    +0.000 C 
ATOM     13  O   UNL     1       4.689   3.490  11.953  0.00  0.00    +0.000 OA
ATOM     14  H   UNL     1       6.471   1.849  11.046  0.00  0.00    +0.000 HD
ATOM     15  H   UNL     1       7.581   2.224  12.344  0.00  0.00    +0.000 HD
ENDBRANCH   6  12
ENDBRANCH   1   9
BRANCH   4  16
ATOM     16  O   UNL     1       6.593   4.883  19.936  0.00  0.00    +0.000 OA
ATOM     17  H   UNL     1       6.894   4.069  19.491  0.00  0.00    +0.000 HD
ENDBRANCH   4  16
BRANCH   5  18
ATOM     18  O   UNL     1       7.776   6.272  18.066  0.00  0.00    +0.000 OA
ATOM     19  H   UNL     1       8.093   6.689  17.233  0.00  0.00    +0.000 HD
ENDBRANCH   5  18
BRANCH   3  20
ATOM     20  C   UNL     1       3.308   5.430  18.120  0.00  0.00    +0.000 C 
BRANCH  20  21
ATOM     21  O   UNL     1       2.183   5.102  18.943  0.00  0.00    +0.000 OA
BRANCH  21  22
ATOM     22  P   UNL     1       1.659   3.460  18.789  0.00  0.00    +0.000 P 
ATOM     23  O   UNL     1       0.736   3.538  20.005  0.00  0.00    +0.000 OA
ATOM     24  O   UNL     1       1.091   3.733  17.392  0.00  0.00    +0.000 OA
BRANCH  22  25
ATOM     25  O   UNL     1       1.134   1.819  18.634  0.00  0.00    +0.000 OA
ATOM     26  H   UNL     1       0.598   1.969  17.827  0.00  0.00    +0.000 HD
ENDBRANCH  22  25
ENDBRANCH  21  22
ENDBRANCH  20  21
ENDBRANCH   3  20
TORSDOF 8
ENDMDL
MODEL 8
REMARK VINA RESULT:      -6.7      2.050      2.397
REMARK  Name = 
REMARK  8 active torsions:
REMARK  status: ('A' for Active; 'I' for Inactive)
REMARK    1  A    between atoms: C_2  and  C_4
REMARK    2  A    between atoms: N_7  and  C_8
REMARK    3  A    between atoms: C_10  and  C_11
REMARK    4  A    between atoms: C_11  and  O_12
REMARK    5  A    between atoms: O_12  and  P_13
REMARK    6  A    between atoms: P_13  and  O_16
REMARK    7  A    between atoms: C_17  and  O_18
REMARK    8  A    between atoms: C_19  and  O_20
REMARK                            x       y       z     vdW  Elec       q    Type
REMARK                         _______ _______ _______ _____ _____    ______ ____
ROOT
ATOM      1  C   UNL     1       6.927   4.805  16.163  0.00  0.00    +0.000 C 
ATOM      2  O   UNL     1       6.067   3.887  16.869  0.00  0.00    +0.000 OA
ATOM      3  C   UNL     1       5.450   4.586  17.985  0.00  0.00    +0.000 C 
ATOM      4  C   UNL     1       6.206   5.915  18.104  0.00  0.00    +0.000 C 
ATOM      5  C   UNL     1       6.597   6.207  16.663  0.00  0.00    +0.000 C 
ENDROOT
BRANCH   1   9
ATOM      6  C   UNL     1       6.176   3.702  12.937  0.00  0.00    +0.000 A 
ATOM      7  N   UNL     1       7.188   4.560  12.546  0.00  0.00    +0.000 NA
ATOM      8  C   UNL     1       7.601   5.047  13.704  0.00  0.00    +0.000 A 
ATOM      9  N   UNL     1       6.822   4.577  14.727  0.00  0.00    +0.000 N 
ATOM     10  N   UNL     1       5.938   3.661  14.249  0.00  0.00    +0.000 NA
BRANCH   6  12
ATOM     11  N   UNL     1       6.051   1.740  11.567  0.00  0.00    +0.000 N 
ATOM     12  C   UNL     1       5.449   2.908  11.936  0.00  0.00    +0.000 C 
ATOM     13  O   UNL     1       4.381   3.305  11.489  0.00  0.00    +0.000 OA
ATOM     14  H   UNL     1       5.608   1.100  10.920  0.00  0.00    +0.000 HD
ATOM     15  H   UNL     1       6.907   1.451  12.038  0.00  0.00    +0.000 HD
ENDBRANCH   6  12
ENDBRANCH   1   9
BRANCH   4  16
ATOM     16  O   UNL     1       7.445   5.789  18.834  0.00  0.00    +0.000 OA
ATOM     17  H   UNL     1       7.457   6.462  19.539  0.00  0.00    +0.000 HD
ENDBRANCH   4  16
BRANCH   5  18
ATOM     18  O   UNL     1       7.722   7.085  16.583  0.00  0.00    +0.000 OA
ATOM     19  H   UNL     1       7.975   7.089  15.632  0.00  0.00    +0.000 HD
ENDBRANCH   5  18
BRANCH   3  20
ATOM     20  C   UNL     1       3.959   4.797  17.714  0.00  0.00    +0.000 C 
BRANCH  20  21
ATOM     21  O   UNL     1       3.183   3.809  18.401  0.00  0.00    +0.000 OA
BRANCH  21  22
ATOM     22  P   UNL     1       4.130   2.697  19.329  0.00  0.00    +0.000 P 
ATOM     23  O   UNL     1       3.358   2.966  20.621  0.00  0.00    +0.000 OA
ATOM     24  O   UNL     1       3.710   1.530  18.428  0.00  0.00    +0.000 OA
BRANCH  22  25
ATOM     25  O   UNL     1       5.076   1.584  20.256  0.00  0.00    +0.000 OA
ATOM     26  H   UNL     1       5.696   1.363  19.530  0.00  0.00    +0.000 HD
ENDBRANCH  22  25
ENDBRANCH  21  22
ENDBRANCH  20  21
ENDBRANCH   3  20
TORSDOF 8
ENDMDL
MODEL 9
REMARK VINA RESULT:      -6.7      3.611      6.219
REMARK  Name = 
REMARK  8 active torsions:
REMARK  status: ('A' for Active; 'I' for Inactive)
REMARK    1  A    between atoms: C_2  and  C_4
REMARK    2  A    between atoms: N_7  and  C_8
REMARK    3  A    between atoms: C_10  and  C_11
REMARK    4  A    between atoms: C_11  and  O_12
REMARK    5  A    between atoms: O_12  and  P_13
REMARK    6  A    between atoms: P_13  and  O_16
REMARK    7  A    between atoms: C_17  and  O_18
REMARK    8  A    between atoms: C_19  and  O_20
REMARK                            x       y       z     vdW  Elec       q    Type
REMARK                         _______ _______ _______ _____ _____    ______ ____
ROOT
ATOM      1  C   UNL     1       5.148   5.640  18.236  0.00  0.00    +0.000 C 
ATOM      2  O   UNL     1       5.107   5.919  16.821  0.00  0.00    +0.000 OA
ATOM      3  C   UNL     1       6.456   5.826  16.285  0.00  0.00    +0.000 C 
ATOM      4  C   UNL     1       7.378   5.761  17.509  0.00  0.00    +0.000 C 
ATOM      5  C   UNL     1       6.519   5.045  18.538  0.00  0.00    +0.000 C 
ENDROOT
BRANCH   1   9
ATOM      6  C   UNL     1       2.725   3.708  19.842  0.00  0.00    +0.000 A 
ATOM      7  N   UNL     1       2.163   3.596  18.583  0.00  0.00    +0.000 NA
ATOM      8  C   UNL     1       3.015   4.279  17.837  0.00  0.00    +0.000 A 
ATOM      9  N   UNL     1       3.987   4.846  18.618  0.00  0.00    +0.000 N 
ATOM     10  N   UNL     1       3.843   4.433  19.905  0.00  0.00    +0.000 NA
BRANCH   6  12
ATOM     11  N   UNL     1       0.740   2.915  20.926  0.00  0.00    +0.000 N 
ATOM     12  C   UNL     1       2.096   3.047  20.995  0.00  0.00    +0.000 C 
ATOM     13  O   UNL     1       2.781   2.659  21.933  0.00  0.00    +0.000 OA
ATOM     14  H   UNL     1       0.220   2.432  21.647  0.00  0.00    +0.000 HD
ATOM     15  H   UNL     1       0.254   3.205  20.079  0.00  0.00    +0.000 HD
ENDBRANCH   6  12
ENDBRANCH   1   9
BRANCH   4  16
ATOM     16  O   UNL     1       7.661   7.064  18.064  0.00  0.00    +0.000 OA
ATOM     17  H   UNL     1       7.128   7.177  18.873  0.00  0.00    +0.000 HD
ENDBRANCH   4  16
BRANCH   5  18
ATOM     18  O   UNL     1       6.942   5.323  19.874  0.00  0.00    +0.000 OA
ATOM     19  H   UNL     1       7.730   5.905  19.776  0.00  0.00    +0.000 HD
ENDBRANCH   5  18
BRANCH   3  20
ATOM     20  C   UNL     1       6.587   4.583  15.402  0.00  0.00    +0.000 C 
BRANCH  20  21
ATOM     21  O   UNL     1       5.872   4.767  14.175  0.00  0.00    +0.000 OA
BRANCH  21  22
ATOM     22  P   UNL     1       6.214   3.562  12.980  0.00  0.00    +0.000 P 
ATOM     23  O   UNL     1       4.790   3.572  12.423  0.00  0.00    +0.000 OA
ATOM     24  O   UNL     1       7.282   4.453  12.336  0.00  0.00    +0.000 OA
BRANCH  22  25
ATOM     25  O   UNL     1       6.556   2.360  11.785  0.00  0.00    +0.000 OA
ATOM     26  H   UNL     1       5.683   2.417  11.343  0.00  0.00    +0.000 HD
ENDBRANCH  22  25
ENDBRANCH  21  22
ENDBRANCH  20  21
ENDBRANCH   3  20
TORSDOF 8
ENDMDL
