MODEL 1
REMARK VINA RESULT:      -8.3      0.000      0.000
REMARK  Name = 
REMARK  5 active torsions:
REMARK  status: ('A' for Active; 'I' for Inactive)
REMARK    1  A    between atoms: C_1  and  C_2
REMARK    2  A    between atoms: N_8  and  C_9
REMARK    3  A    between atoms: C_18  and  O_19
REMARK    4  A    between atoms: C_20  and  C_21
REMARK    5  A    between atoms: C_21  and  C_22
REMARK                            x       y       z     vdW  Elec       q    Type
REMARK                         _______ _______ _______ _____ _____    ______ ____
ROOT
ATOM      1  C   UNL     1       3.413   7.387  17.375  0.00  0.00    +0.000 C 
ATOM      2  C   UNL     1       2.717   6.979  18.635  0.00  0.00    +0.000 A 
ATOM      3  N   UNL     1       2.089   8.001  19.263  0.00  0.00    +0.000 NA
ATOM      4  C   UNL     1       1.447   7.781  20.412  0.00  0.00    +0.000 A 
ATOM      5  N   UNL     1       0.900   8.858  21.076  0.00  0.00    +0.000 N 
ATOM      6  C   UNL     1      -0.196   8.605  22.019  0.00  0.00    +0.000 C 
ATOM      7  C   UNL     1      -0.334   9.796  22.999  0.00  0.00    +0.000 C 
ATOM      8  N   UNL     1      -0.454  11.053  22.238  0.00  0.00    +0.000 N 
ATOM      9  C   UNL     1       0.662  11.294  21.300  0.00  0.00    +0.000 C 
ATOM     10  C   UNL     1       0.764  10.113  20.315  0.00  0.00    +0.000 C 
ATOM     11  N   UNL     1       1.382   6.572  20.977  0.00  0.00    +0.000 NA
ATOM     12  C   UNL     1       2.019   5.589  20.333  0.00  0.00    +0.000 A 
ATOM     13  C   UNL     1       2.715   5.698  19.149  0.00  0.00    +0.000 A 
ENDROOT
BRANCH   8  14
ATOM     14  C   UNL     1      -1.202  12.118  22.694  0.00  0.00    +0.000 A 
ATOM     15  C   UNL     1      -0.722  13.432  22.709  0.00  0.00    +0.000 A 
ATOM     16  C   UNL     1      -1.475  14.476  23.260  0.00  0.00    +0.000 A 
ATOM     17  C   UNL     1      -2.723  14.217  23.816  0.00  0.00    +0.000 A 
ATOM     18  C   UNL     1      -3.230  12.924  23.802  0.00  0.00    +0.000 A 
ATOM     19  C   UNL     1      -2.476  11.890  23.241  0.00  0.00    +0.000 A 
ENDBRANCH   8  14
BRANCH  12  20
ATOM     20  O   UNL     1       1.904   4.402  20.981  0.00  0.00    +0.000 OA
ATOM     21  H   UNL     1       2.688   3.946  20.620  0.00  0.00    +0.000 HD
ENDBRANCH  12  20
BRANCH  13  22
ATOM     22  C   UNL     1       3.399   4.507  18.536  0.00  0.00    +0.000 C 
BRANCH  22  23
ATOM     23  C   UNL     1       4.897   4.673  18.391  0.00  0.00    +0.000 A 
ATOM     24  C   UNL     1       5.654   5.247  19.424  0.00  0.00    +0.000 A 
ATOM     25  C   UNL     1       7.007   5.537  19.237  0.00  0.00    +0.000 A 
ATOM     26  C   UNL     1       7.621   5.240  18.024  0.00  0.00    +0.000 A 
ATOM     27  C   UNL     1       6.896   4.611  17.014  0.00  0.00    +0.000 A 
ATOM     28  C   UNL     1       5.542   4.321  17.199  0.00  0.00    +0.000 A 
ENDBRANCH  22  23
ENDBRANCH  13  22
TORSDOF 4
ENDMDL
MODEL 2
REMARK VINA RESULT:      -8.2      1.543      2.368
REMARK  Name = 
REMARK  5 active torsions:
REMARK  status: ('A' for Active; 'I' for Inactive)
REMARK    1  A    between atoms: C_1  and  C_2
REMARK    2  A    between atoms: N_8  and  C_9
REMARK    3  A    between atoms: C_18  and  O_19
REMARK    4  A    between atoms: C_20  and  C_21
REMARK    5  A    between atoms: C_21  and  C_22
REMARK                            x       y       z     vdW  Elec       q    Type
REMARK                         _______ _______ _______ _____ _____    ______ ____
ROOT
ATOM      1  C   UNL     1       2.508   5.318  20.723  0.00  0.00    +0.000 C 
ATOM      2  C   UNL     1       2.305   6.577  19.940  0.00  0.00    +0.000 A 
ATOM      3  N   UNL     1       1.574   7.510  20.595  0.00  0.00    +0.000 NA
ATOM      4  C   UNL     1       1.297   8.674  20.002  0.00  0.00    +0.000 A 
ATOM      5  N   UNL     1       0.471   9.563  20.654  0.00  0.00    +0.000 N 
ATOM      6  C   UNL     1       0.559  10.983  20.290  0.00  0.00    +0.000 C 
ATOM      7  C   UNL     1      -0.729  11.721  20.731  0.00  0.00    +0.000 C 
ATOM      8  N   UNL     1      -0.981  11.467  22.161  0.00  0.00    +0.000 N 
ATOM      9  C   UNL     1      -1.074  10.033  22.506  0.00  0.00    +0.000 C 
ATOM     10  C   UNL     1       0.228   9.322  22.087  0.00  0.00    +0.000 C 
ATOM     11  N   UNL     1       1.729   8.973  18.773  0.00  0.00    +0.000 NA
ATOM     12  C   UNL     1       2.442   8.026  18.156  0.00  0.00    +0.000 A 
ATOM     13  C   UNL     1       2.784   6.792  18.664  0.00  0.00    +0.000 A 
ENDROOT
BRANCH   8  14
ATOM     14  C   UNL     1      -1.575  12.404  22.979  0.00  0.00    +0.000 A 
ATOM     15  C   UNL     1      -2.853  12.235  23.525  0.00  0.00    +0.000 A 
ATOM     16  C   UNL     1      -3.461  13.244  24.279  0.00  0.00    +0.000 A 
ATOM     17  C   UNL     1      -2.802  14.450  24.492  0.00  0.00    +0.000 A 
ATOM     18  C   UNL     1      -1.527  14.639  23.975  0.00  0.00    +0.000 A 
ATOM     19  C   UNL     1      -0.922  13.623  23.231  0.00  0.00    +0.000 A 
ENDBRANCH   8  14
BRANCH  12  20
ATOM     20  O   UNL     1       2.832   8.415  16.915  0.00  0.00    +0.000 OA
ATOM     21  H   UNL     1       2.664   7.586  16.428  0.00  0.00    +0.000 HD
ENDBRANCH  12  20
BRANCH  13  22
ATOM     22  C   UNL     1       3.585   5.811  17.853  0.00  0.00    +0.000 C 
BRANCH  22  23
ATOM     23  C   UNL     1       5.082   5.960  18.021  0.00  0.00    +0.000 A 
ATOM     24  C   UNL     1       5.751   5.307  19.069  0.00  0.00    +0.000 A 
ATOM     25  C   UNL     1       7.101   5.560  19.317  0.00  0.00    +0.000 A 
ATOM     26  C   UNL     1       7.802   6.451  18.510  0.00  0.00    +0.000 A 
ATOM     27  C   UNL     1       7.166   7.056  17.427  0.00  0.00    +0.000 A 
ATOM     28  C   UNL     1       5.815   6.805  17.179  0.00  0.00    +0.000 A 
ENDBRANCH  22  23
ENDBRANCH  13  22
TORSDOF 4
ENDMDL
MODEL 3
REMARK VINA RESULT:      -8.2      1.018      1.304
REMARK  Name = 
REMARK  5 active torsions:
REMARK  status: ('A' for Active; 'I' for Inactive)
REMARK    1  A    between atoms: C_1  and  C_2
REMARK    2  A    between atoms: N_8  and  C_9
REMARK    3  A    between atoms: C_18  and  O_19
REMARK    4  A    between atoms: C_20  and  C_21
REMARK    5  A    between atoms: C_21  and  C_22
REMARK                            x       y       z     vdW  Elec       q    Type
REMARK                         _______ _______ _______ _____ _____    ______ ____
ROOT
ATOM      1  C   UNL     1       2.685   8.498  17.183  0.00  0.00    +0.000 C 
ATOM      2  C   UNL     1       2.268   7.988  18.528  0.00  0.00    +0.000 A 
ATOM      3  N   UNL     1       1.569   8.891  19.256  0.00  0.00    +0.000 NA
ATOM      4  C   UNL     1       1.155   8.576  20.485  0.00  0.00    +0.000 A 
ATOM      5  N   UNL     1       0.530   9.546  21.237  0.00  0.00    +0.000 N 
ATOM      6  C   UNL     1      -0.351   9.115  22.330  0.00  0.00    +0.000 C 
ATOM      7  C   UNL     1      -0.551  10.274  23.336  0.00  0.00    +0.000 C 
ATOM      8  N   UNL     1      -1.004  11.480  22.619  0.00  0.00    +0.000 N 
ATOM      9  C   UNL     1      -0.100  11.903  21.529  0.00  0.00    +0.000 C 
ATOM     10  C   UNL     1       0.062  10.747  20.523  0.00  0.00    +0.000 C 
ATOM     11  N   UNL     1       1.390   7.381  21.037  0.00  0.00    +0.000 NA
ATOM     12  C   UNL     1       2.088   6.519  20.291  0.00  0.00    +0.000 A 
ATOM     13  C   UNL     1       2.569   6.734  19.018  0.00  0.00    +0.000 A 
ENDROOT
BRANCH   8  14
ATOM     14  C   UNL     1      -1.853  12.401  23.196  0.00  0.00    +0.000 A 
ATOM     15  C   UNL     1      -1.453  13.701  23.524  0.00  0.00    +0.000 A 
ATOM     16  C   UNL     1      -2.314  14.582  24.189  0.00  0.00    +0.000 A 
ATOM     17  C   UNL     1      -3.593  14.170  24.546  0.00  0.00    +0.000 A 
ATOM     18  C   UNL     1      -4.021  12.889  24.220  0.00  0.00    +0.000 A 
ATOM     19  C   UNL     1      -3.159  12.019  23.548  0.00  0.00    +0.000 A 
ENDBRANCH   8  14
BRANCH  12  20
ATOM     20  O   UNL     1       2.284   5.339  20.933  0.00  0.00    +0.000 OA
ATOM     21  H   UNL     1       1.724   4.761  20.380  0.00  0.00    +0.000 HD
ENDBRANCH  12  20
BRANCH  13  22
ATOM     22  C   UNL     1       3.355   5.676  18.293  0.00  0.00    +0.000 C 
BRANCH  22  23
ATOM     23  C   UNL     1       4.852   5.893  18.336  0.00  0.00    +0.000 A 
ATOM     24  C   UNL     1       5.508   6.554  17.285  0.00  0.00    +0.000 A 
ATOM     25  C   UNL     1       6.902   6.625  17.249  0.00  0.00    +0.000 A 
ATOM     26  C   UNL     1       7.654   6.052  18.270  0.00  0.00    +0.000 A 
ATOM     27  C   UNL     1       7.013   5.449  19.351  0.00  0.00    +0.000 A 
ATOM     28  C   UNL     1       5.619   5.377  19.388  0.00  0.00    +0.000 A 
ENDBRANCH  22  23
ENDBRANCH  13  22
TORSDOF 4
ENDMDL
MODEL 4
REMARK VINA RESULT:      -8.2      0.272      1.336
REMARK  Name = 
REMARK  5 active torsions:
REMARK  status: ('A' for Active; 'I' for Inactive)
REMARK    1  A    between atoms: C_1  and  C_2
REMARK    2  A    between atoms: N_8  and  C_9
REMARK    3  A    between atoms: C_18  and  O_19
REMARK    4  A    between atoms: C_20  and  C_21
REMARK    5  A    between atoms: C_21  and  C_22
REMARK                            x       y       z     vdW  Elec       q    Type
REMARK                         _______ _______ _______ _____ _____    ______ ____
ROOT
ATOM      1  C   UNL     1       3.159   7.743  17.217  0.00  0.00    +0.000 C 
ATOM      2  C   UNL     1       2.563   7.274  18.507  0.00  0.00    +0.000 A 
ATOM      3  N   UNL     1       1.921   8.250  19.194  0.00  0.00    +0.000 NA
ATOM      4  C   UNL     1       1.363   7.975  20.374  0.00  0.00    +0.000 A 
ATOM      5  N   UNL     1       0.801   9.008  21.092  0.00  0.00    +0.000 N 
ATOM      6  C   UNL     1      -0.222   8.679  22.093  0.00  0.00    +0.000 C 
ATOM      7  C   UNL     1      -0.362   9.842  23.106  0.00  0.00    +0.000 C 
ATOM      8  N   UNL     1      -0.593  11.104  22.381  0.00  0.00    +0.000 N 
ATOM      9  C   UNL     1       0.451  11.422  21.384  0.00  0.00    +0.000 C 
ATOM     10  C   UNL     1       0.554  10.267  20.369  0.00  0.00    +0.000 C 
ATOM     11  N   UNL     1       1.394   6.753  20.915  0.00  0.00    +0.000 NA
ATOM     12  C   UNL     1       2.041   5.818  20.213  0.00  0.00    +0.000 A 
ATOM     13  C   UNL     1       2.658   5.986  18.992  0.00  0.00    +0.000 A 
ENDROOT
BRANCH   8  14
ATOM     14  C   UNL     1      -1.367  12.119  22.904  0.00  0.00    +0.000 A 
ATOM     15  C   UNL     1      -2.670  11.916  23.370  0.00  0.00    +0.000 A 
ATOM     16  C   UNL     1      -3.459  12.984  23.813  0.00  0.00    +0.000 A 
ATOM     17  C   UNL     1      -2.956  14.280  23.788  0.00  0.00    +0.000 A 
ATOM     18  C   UNL     1      -1.660  14.508  23.344  0.00  0.00    +0.000 A 
ATOM     19  C   UNL     1      -0.876  13.436  22.913  0.00  0.00    +0.000 A 
ENDBRANCH   8  14
BRANCH  12  20
ATOM     20  O   UNL     1       2.028   4.614  20.840  0.00  0.00    +0.000 OA
ATOM     21  H   UNL     1       1.095   4.592  21.124  0.00  0.00    +0.000 HD
ENDBRANCH  12  20
BRANCH  13  22
ATOM     22  C   UNL     1       3.365   4.845  18.313  0.00  0.00    +0.000 C 
BRANCH  22  23
ATOM     23  C   UNL     1       4.863   5.032  18.209  0.00  0.00    +0.000 A 
ATOM     24  C   UNL     1       5.540   4.726  17.017  0.00  0.00    +0.000 A 
ATOM     25  C   UNL     1       6.934   4.756  16.964  0.00  0.00    +0.000 A 
ATOM     26  C   UNL     1       7.667   5.109  18.093  0.00  0.00    +0.000 A 
ATOM     27  C   UNL     1       7.005   5.477  19.263  0.00  0.00    +0.000 A 
ATOM     28  C   UNL     1       5.610   5.447  19.319  0.00  0.00    +0.000 A 
ENDBRANCH  22  23
ENDBRANCH  13  22
TORSDOF 4
ENDMDL
MODEL 5
REMARK VINA RESULT:      -8.0      1.606      2.380
REMARK  Name = 
REMARK  5 active torsions:
REMARK  status: ('A' for Active; 'I' for Inactive)
REMARK    1  A    between atoms: C_1  and  C_2
REMARK    2  A    between atoms: N_8  and  C_9
REMARK    3  A    between atoms: C_18  and  O_19
REMARK    4  A    between atoms: C_20  and  C_21
REMARK    5  A    between atoms: C_21  and  C_22
REMARK                            x       y       z     vdW  Elec       q    Type
REMARK                         _______ _______ _______ _____ _____    ______ ____
ROOT
ATOM      1  C   UNL     1       2.123   5.601  20.883  0.00  0.00    +0.000 C 
ATOM      2  C   UNL     1       1.987   6.863  20.089  0.00  0.00    +0.000 A 
ATOM      3  N   UNL     1       1.303   7.838  20.733  0.00  0.00    +0.000 NA
ATOM      4  C   UNL     1       1.088   9.008  20.130  0.00  0.00    +0.000 A 
ATOM      5  N   UNL     1       0.307   9.945  20.772  0.00  0.00    +0.000 N 
ATOM      6  C   UNL     1       0.469  11.355  20.396  0.00  0.00    +0.000 C 
ATOM      7  C   UNL     1      -0.780  12.162  20.826  0.00  0.00    +0.000 C 
ATOM      8  N   UNL     1      -1.050  11.933  22.257  0.00  0.00    +0.000 N 
ATOM      9  C   UNL     1      -1.217  10.509  22.615  0.00  0.00    +0.000 C 
ATOM     10  C   UNL     1       0.048   9.729  22.206  0.00  0.00    +0.000 C 
ATOM     11  N   UNL     1       1.539   9.275  18.900  0.00  0.00    +0.000 NA
ATOM     12  C   UNL     1       2.203   8.287  18.293  0.00  0.00    +0.000 A 
ATOM     13  C   UNL     1       2.480   7.041  18.813  0.00  0.00    +0.000 A 
ENDROOT
BRANCH   8  14
ATOM     14  C   UNL     1      -1.597  12.907  23.066  0.00  0.00    +0.000 A 
ATOM     15  C   UNL     1      -0.901  14.062  23.442  0.00  0.00    +0.000 A 
ATOM     16  C   UNL     1      -1.454  14.987  24.334  0.00  0.00    +0.000 A 
ATOM     17  C   UNL     1      -2.716  14.766  24.875  0.00  0.00    +0.000 A 
ATOM     18  C   UNL     1      -3.435  13.636  24.508  0.00  0.00    +0.000 A 
ATOM     19  C   UNL     1      -2.880  12.722  23.609  0.00  0.00    +0.000 A 
ENDBRANCH   8  14
BRANCH  12  20
ATOM     20  O   UNL     1       2.616   8.644  17.050  0.00  0.00    +0.000 OA
ATOM     21  H   UNL     1       3.120   9.449  17.274  0.00  0.00    +0.000 HD
ENDBRANCH  12  20
BRANCH  13  22
ATOM     22  C   UNL     1       3.232   6.013  18.012  0.00  0.00    +0.000 C 
BRANCH  22  23
ATOM     23  C   UNL     1       4.735   6.099  18.169  0.00  0.00    +0.000 A 
ATOM     24  C   UNL     1       5.510   6.811  17.240  0.00  0.00    +0.000 A 
ATOM     25  C   UNL     1       6.904   6.769  17.296  0.00  0.00    +0.000 A 
ATOM     26  C   UNL     1       7.539   6.031  18.291  0.00  0.00    +0.000 A 
ATOM     27  C   UNL     1       6.780   5.373  19.258  0.00  0.00    +0.000 A 
ATOM     28  C   UNL     1       5.386   5.413  19.202  0.00  0.00    +0.000 A 
ENDBRANCH  22  23
ENDBRANCH  13  22
TORSDOF 4
ENDMDL
MODEL 6
REMARK VINA RESULT:      -7.8      2.094      9.723
REMARK  Name = 
REMARK  5 active torsions:
REMARK  status: ('A' for Active; 'I' for Inactive)
REMARK    1  A    between atoms: C_1  and  C_2
REMARK    2  A    between atoms: N_8  and  C_9
REMARK    3  A    between atoms: C_18  and  O_19
REMARK    4  A    between atoms: C_20  and  C_21
REMARK    5  A    between atoms: C_21  and  C_22
REMARK                            x       y       z     vdW  Elec       q    Type
REMARK                         _______ _______ _______ _____ _____    ______ ____
ROOT
ATOM      1  C   UNL     1      -0.089  13.267  20.038  0.00  0.00    +0.000 C 
ATOM      2  C   UNL     1       0.010  11.970  20.779  0.00  0.00    +0.000 A 
ATOM      3  N   UNL     1       0.646  10.997  20.085  0.00  0.00    +0.000 NA
ATOM      4  C   UNL     1       0.784   9.782  20.619  0.00  0.00    +0.000 A 
ATOM      5  N   UNL     1       1.350   8.787  19.852  0.00  0.00    +0.000 N 
ATOM      6  C   UNL     1       1.958   7.642  20.543  0.00  0.00    +0.000 C 
ATOM      7  C   UNL     1       2.080   6.444  19.570  0.00  0.00    +0.000 C 
ATOM      8  N   UNL     1       2.783   6.869  18.346  0.00  0.00    +0.000 N 
ATOM      9  C   UNL     1       2.152   8.017  17.661  0.00  0.00    +0.000 C 
ATOM     10  C   UNL     1       2.067   9.208  18.636  0.00  0.00    +0.000 C 
ATOM     11  N   UNL     1       0.326   9.478  21.838  0.00  0.00    +0.000 NA
ATOM     12  C   UNL     1      -0.302  10.461  22.489  0.00  0.00    +0.000 A 
ATOM     13  C   UNL     1      -0.507  11.747  22.039  0.00  0.00    +0.000 A 
ENDROOT
BRANCH   8  14
ATOM     14  C   UNL     1       3.597   6.013  17.633  0.00  0.00    +0.000 A 
ATOM     15  C   UNL     1       4.637   6.463  16.813  0.00  0.00    +0.000 A 
ATOM     16  C   UNL     1       5.387   5.574  16.035  0.00  0.00    +0.000 A 
ATOM     17  C   UNL     1       5.100   4.214  16.058  0.00  0.00    +0.000 A 
ATOM     18  C   UNL     1       4.082   3.738  16.875  0.00  0.00    +0.000 A 
ATOM     19  C   UNL     1       3.344   4.632  17.656  0.00  0.00    +0.000 A 
ENDBRANCH   8  14
BRANCH  12  20
ATOM     20  O   UNL     1      -0.737  10.061  23.711  0.00  0.00    +0.000 OA
ATOM     21  H   UNL     1      -1.070  10.913  24.050  0.00  0.00    +0.000 HD
ENDBRANCH  12  20
BRANCH  13  22
ATOM     22  C   UNL     1      -1.245  12.757  22.874  0.00  0.00    +0.000 C 
BRANCH  22  23
ATOM     23  C   UNL     1      -2.750  12.683  22.731  0.00  0.00    +0.000 A 
ATOM     24  C   UNL     1      -3.351  12.755  21.464  0.00  0.00    +0.000 A 
ATOM     25  C   UNL     1      -4.739  12.838  21.339  0.00  0.00    +0.000 A 
ATOM     26  C   UNL     1      -5.542  12.830  22.476  0.00  0.00    +0.000 A 
ATOM     27  C   UNL     1      -4.961  12.694  23.735  0.00  0.00    +0.000 A 
ATOM     28  C   UNL     1      -3.573  12.612  23.862  0.00  0.00    +0.000 A 
ENDBRANCH  22  23
ENDBRANCH  13  22
TORSDOF 4
ENDMDL
MODEL 7
REMARK VINA RESULT:      -7.6      6.364      8.588
REMARK  Name = 
REMARK  5 active torsions:
REMARK  status: ('A' for Active; 'I' for Inactive)
REMARK    1  A    between atoms: C_1  and  C_2
REMARK    2  A    between atoms: N_8  and  C_9
REMARK    3  A    between atoms: C_18  and  O_19
REMARK    4  A    between atoms: C_20  and  C_21
REMARK    5  A    between atoms: C_21  and  C_22
REMARK                            x       y       z     vdW  Elec       q    Type
REMARK                         _______ _______ _______ _____ _____    ______ ____
ROOT
ATOM      1  C   UNL     1       5.489   7.022  16.076  0.00  0.00    +0.000 C 
ATOM      2  C   UNL     1       6.528   7.052  17.154  0.00  0.00    +0.000 A 
ATOM      3  N   UNL     1       7.087   8.272  17.333  0.00  0.00    +0.000 NA
ATOM      4  C   UNL     1       8.046   8.436  18.247  0.00  0.00    +0.000 A 
ATOM      5  N   UNL     1       8.663   9.664  18.340  0.00  0.00    +0.000 N 
ATOM      6  C   UNL     1       9.318  10.016  19.606  0.00  0.00    +0.000 C 
ATOM      7  C   UNL     1      10.342  11.153  19.372  0.00  0.00    +0.000 C 
ATOM      8  N   UNL     1       9.683  12.280  18.686  0.00  0.00    +0.000 N 
ATOM      9  C   UNL     1       9.036  11.908  17.410  0.00  0.00    +0.000 C 
ATOM     10  C   UNL     1       8.000  10.797  17.669  0.00  0.00    +0.000 C 
ATOM     11  N   UNL     1       8.478   7.435  19.020  0.00  0.00    +0.000 NA
ATOM     12  C   UNL     1       7.907   6.245  18.811  0.00  0.00    +0.000 A 
ATOM     13  C   UNL     1       6.918   5.956  17.897  0.00  0.00    +0.000 A 
ENDROOT
BRANCH   8  14
ATOM     14  C   UNL     1      10.053  13.590  18.906  0.00  0.00    +0.000 A 
ATOM     15  C   UNL     1       9.759  14.623  18.009  0.00  0.00    +0.000 A 
ATOM     16  C   UNL     1      10.225  15.925  18.220  0.00  0.00    +0.000 A 
ATOM     17  C   UNL     1      11.007  16.214  19.334  0.00  0.00    +0.000 A 
ATOM     18  C   UNL     1      11.302  15.211  20.248  0.00  0.00    +0.000 A 
ATOM     19  C   UNL     1      10.824  13.916  20.035  0.00  0.00    +0.000 A 
ENDBRANCH   8  14
BRANCH  12  20
ATOM     20  O   UNL     1       8.411   5.290  19.634  0.00  0.00    +0.000 OA
ATOM     21  H   UNL     1       9.360   5.507  19.568  0.00  0.00    +0.000 HD
ENDBRANCH  12  20
BRANCH  13  22
ATOM     22  C   UNL     1       6.370   4.563  17.755  0.00  0.00    +0.000 C 
BRANCH  22  23
ATOM     23  C   UNL     1       4.910   4.440  18.137  0.00  0.00    +0.000 A 
ATOM     24  C   UNL     1       3.996   3.818  17.272  0.00  0.00    +0.000 A 
ATOM     25  C   UNL     1       2.628   3.835  17.552  0.00  0.00    +0.000 A 
ATOM     26  C   UNL     1       2.161   4.457  18.706  0.00  0.00    +0.000 A 
ATOM     27  C   UNL     1       3.065   5.021  19.605  0.00  0.00    +0.000 A 
ATOM     28  C   UNL     1       4.433   5.006  19.326  0.00  0.00    +0.000 A 
ENDBRANCH  22  23
ENDBRANCH  13  22
TORSDOF 4
ENDMDL
MODEL 8
REMARK VINA RESULT:      -7.6      2.725     10.005
REMARK  Name = 
REMARK  5 active torsions:
REMARK  status: ('A' for Active; 'I' for Inactive)
REMARK    1  A    between atoms: C_1  and  C_2
REMARK    2  A    between atoms: N_8  and  C_9
REMARK    3  A    between atoms: C_18  and  O_19
REMARK    4  A    between atoms: C_20  and  C_21
REMARK    5  A    between atoms: C_21  and  C_22
REMARK                            x       y       z     vdW  Elec       q    Type
REMARK                         _______ _______ _______ _____ _____    ______ ____
ROOT
ATOM      1  C   UNL     1      -1.444  11.174  23.198  0.00  0.00    +0.000 C 
ATOM      2  C   UNL     1      -1.034  11.412  21.778  0.00  0.00    +0.000 A 
ATOM      3  N   UNL     1      -0.299  10.404  21.250  0.00  0.00    +0.000 NA
ATOM      4  C   UNL     1       0.153  10.496  19.998  0.00  0.00    +0.000 A 
ATOM      5  N   UNL     1       0.977   9.499  19.522  0.00  0.00    +0.000 N 
ATOM      6  C   UNL     1       1.066   9.311  18.068  0.00  0.00    +0.000 C 
ATOM      7  C   UNL     1       2.357   8.532  17.716  0.00  0.00    +0.000 C 
ATOM      8  N   UNL     1       2.416   7.288  18.503  0.00  0.00    +0.000 N 
ATOM      9  C   UNL     1       2.333   7.498  19.963  0.00  0.00    +0.000 C 
ATOM     10  C   UNL     1       1.027   8.247  20.297  0.00  0.00    +0.000 C 
ATOM     11  N   UNL     1      -0.104  11.551  19.219  0.00  0.00    +0.000 NA
ATOM     12  C   UNL     1      -0.825  12.528  19.775  0.00  0.00    +0.000 A 
ATOM     13  C   UNL     1      -1.338  12.546  21.054  0.00  0.00    +0.000 A 
ENDROOT
BRANCH   8  14
ATOM     14  C   UNL     1       2.996   6.136  18.013  0.00  0.00    +0.000 A 
ATOM     15  C   UNL     1       4.283   6.109  17.464  0.00  0.00    +0.000 A 
ATOM     16  C   UNL     1       4.808   4.943  16.895  0.00  0.00    +0.000 A 
ATOM     17  C   UNL     1       4.045   3.781  16.859  0.00  0.00    +0.000 A 
ATOM     18  C   UNL     1       2.770   3.776  17.410  0.00  0.00    +0.000 A 
ATOM     19  C   UNL     1       2.257   4.942  17.984  0.00  0.00    +0.000 A 
ENDBRANCH   8  14
BRANCH  12  20
ATOM     20  O   UNL     1      -1.030  13.558  18.915  0.00  0.00    +0.000 OA
ATOM     21  H   UNL     1      -0.105  13.838  18.777  0.00  0.00    +0.000 HD
ENDBRANCH  12  20
BRANCH  13  22
ATOM     22  C   UNL     1      -2.128  13.722  21.560  0.00  0.00    +0.000 C 
BRANCH  22  23
ATOM     23  C   UNL     1      -3.609  13.445  21.703  0.00  0.00    +0.000 A 
ATOM     24  C   UNL     1      -4.243  13.577  22.949  0.00  0.00    +0.000 A 
ATOM     25  C   UNL     1      -5.571  13.181  23.116  0.00  0.00    +0.000 A 
ATOM     26  C   UNL     1      -6.285  12.666  22.038  0.00  0.00    +0.000 A 
ATOM     27  C   UNL     1      -5.687  12.590  20.782  0.00  0.00    +0.000 A 
ATOM     28  C   UNL     1      -4.359  12.985  20.613  0.00  0.00    +0.000 A 
ENDBRANCH  22  23
ENDBRANCH  13  22
TORSDOF 4
ENDMDL
MODEL 9
REMARK VINA RESULT:      -7.5      1.804      2.711
REMARK  Name = 
REMARK  5 active torsions:
REMARK  status: ('A' for Active; 'I' for Inactive)
REMARK    1  A    between atoms: C_1  and  C_2
REMARK    2  A    between atoms: N_8  and  C_9
REMARK    3  A    between atoms: C_18  and  O_19
REMARK    4  A    between atoms: C_20  and  C_21
REMARK    5  A    between atoms: C_21  and  C_22
REMARK                            x       y       z     vdW  Elec       q    Type
REMARK                         _______ _______ _______ _____ _____    ______ ____
ROOT
ATOM      1  C   UNL     1       2.736   8.366  17.326  0.00  0.00    +0.000 C 
ATOM      2  C   UNL     1       2.297   7.947  18.695  0.00  0.00    +0.000 A 
ATOM      3  N   UNL     1       1.496   8.851  19.307  0.00  0.00    +0.000 NA
ATOM      4  C   UNL     1       1.051   8.614  20.543  0.00  0.00    +0.000 A 
ATOM      5  N   UNL     1       0.317   9.594  21.176  0.00  0.00    +0.000 N 
ATOM      6  C   UNL     1      -0.578   9.191  22.268  0.00  0.00    +0.000 C 
ATOM      7  C   UNL     1      -0.915  10.417  23.152  0.00  0.00    +0.000 C 
ATOM      8  N   UNL     1      -1.427  11.511  22.308  0.00  0.00    +0.000 N 
ATOM      9  C   UNL     1      -0.509  11.908  21.220  0.00  0.00    +0.000 C 
ATOM     10  C   UNL     1      -0.210  10.683  20.334  0.00  0.00    +0.000 C 
ATOM     11  N   UNL     1       1.353   7.498  21.213  0.00  0.00    +0.000 NA
ATOM     12  C   UNL     1       2.151   6.633  20.580  0.00  0.00    +0.000 A 
ATOM     13  C   UNL     1       2.673   6.771  19.312  0.00  0.00    +0.000 A 
ENDROOT
BRANCH   8  14
ATOM     14  C   UNL     1      -2.372  12.407  22.763  0.00  0.00    +0.000 A 
ATOM     15  C   UNL     1      -3.230  12.129  23.832  0.00  0.00    +0.000 A 
ATOM     16  C   UNL     1      -4.236  13.025  24.211  0.00  0.00    +0.000 A 
ATOM     17  C   UNL     1      -4.407  14.216  23.515  0.00  0.00    +0.000 A 
ATOM     18  C   UNL     1      -3.559  14.525  22.459  0.00  0.00    +0.000 A 
ATOM     19  C   UNL     1      -2.551  13.630  22.093  0.00  0.00    +0.000 A 
ENDBRANCH   8  14
BRANCH  12  20
ATOM     20  O   UNL     1       2.408   5.535  21.336  0.00  0.00    +0.000 OA
ATOM     21  H   UNL     1       1.525   5.401  21.730  0.00  0.00    +0.000 HD
ENDBRANCH  12  20
BRANCH  13  22
ATOM     22  C   UNL     1       3.572   5.720  18.721  0.00  0.00    +0.000 C 
BRANCH  22  23
ATOM     23  C   UNL     1       2.946   4.343  18.666  0.00  0.00    +0.000 A 
ATOM     24  C   UNL     1       1.596   4.187  18.316  0.00  0.00    +0.000 A 
ATOM     25  C   UNL     1       0.977   2.939  18.408  0.00  0.00    +0.000 A 
ATOM     26  C   UNL     1       1.705   1.831  18.833  0.00  0.00    +0.000 A 
ATOM     27  C   UNL     1       3.062   1.961  19.121  0.00  0.00    +0.000 A 
ATOM     28  C   UNL     1       3.682   3.209  19.031  0.00  0.00    +0.000 A 
ENDBRANCH  22  23
ENDBRANCH  13  22
TORSDOF 4
ENDMDL
