MODEL 1
REMARK VINA RESULT:      -7.9      0.000      0.000
REMARK  Name = 
REMARK  10 active torsions:
REMARK  status: ('A' for Active; 'I' for Inactive)
REMARK    1  A    between atoms: C_2  and  C_3
REMARK    2  A    between atoms: C_5  and  C_6
REMARK    3  A    between atoms: N_8  and  C_9
REMARK    4  A    between atoms: C_9  and  C_10
REMARK    5  A    between atoms: C_10  and  C_11
REMARK    6  A    between atoms: C_10  and  C_14
REMARK    7  A    between atoms: C_11  and  O_13
REMARK    8  A    between atoms: C_17  and  O_18
REMARK    9  A    between atoms: C_22  and  O_23
REMARK   10  A    between atoms: O_23  and  C_24
REMARK                            x       y       z     vdW  Elec       q    Type
REMARK                         _______ _______ _______ _____ _____    ______ ____
ROOT
ATOM      1  C   UNL     1       2.965   5.266  19.420  0.00  0.00    +0.000 A 
ATOM      2  N   UNL     1       2.170   6.146  20.078  0.00  0.00    +0.000 NA
ATOM      3  C   UNL     1       2.069   7.392  19.545  0.00  0.00    +0.000 A 
ATOM      4  C   UNL     1       2.711   7.795  18.379  0.00  0.00    +0.000 A 
ATOM      5  C   UNL     1       3.537   6.882  17.726  0.00  0.00    +0.000 A 
ATOM      6  C   UNL     1       4.230   7.263  16.569  0.00  0.00    +0.000 A 
ATOM      7  C   UNL     1       5.084   6.383  15.925  0.00  0.00    +0.000 A 
ATOM      8  C   UNL     1       5.311   5.112  16.453  0.00  0.00    +0.000 A 
ATOM      9  C   UNL     1       4.588   4.692  17.571  0.00  0.00    +0.000 A 
ATOM     10  C   UNL     1       3.706   5.575  18.242  0.00  0.00    +0.000 A 
ENDROOT
BRANCH   3  11
ATOM     11  C   UNL     1       1.304   8.402  20.329  0.00  0.00    +0.000 C 
ATOM     12  O   UNL     1       1.299   8.355  21.557  0.00  0.00    +0.000 OA
ATOM     13  N   UNL     1       0.621   9.343  19.608  0.00  0.00    +0.000 N 
ATOM     14  H   UNL     1       0.827   9.427  18.613  0.00  0.00    +0.000 HD
BRANCH  13  15
ATOM     15  C   UNL     1      -0.231  10.321  20.245  0.00  0.00    +0.000 C 
BRANCH  15  16
ATOM     16  C   UNL     1      -1.191  11.057  19.291  0.00  0.00    +0.000 C 
BRANCH  16  17
ATOM     17  C   UNL     1      -1.741  10.072  18.276  0.00  0.00    +0.000 C 
ATOM     18  C   UNL     1      -3.201  10.082  17.871  0.00  0.00    +0.000 C 
ATOM     19  C   UNL     1      -2.153  10.520  16.892  0.00  0.00    +0.000 C 
ENDBRANCH  16  17
BRANCH  16  20
ATOM     20  C   UNL     1      -0.451  12.220  18.633  0.00  0.00    +0.000 C 
ATOM     21  O   UNL     1      -0.896  13.349  18.480  0.00  0.00    +0.000 OA
BRANCH  20  22
ATOM     22  O   UNL     1       0.787  11.892  18.185  0.00  0.00    +0.000 OA
ATOM     23  H   UNL     1       1.431  11.736  18.905  0.00  0.00    +0.000 HD
ENDBRANCH  20  22
ENDBRANCH  16  20
ENDBRANCH  15  16
ENDBRANCH  13  15
ENDBRANCH   3  11
BRANCH   1  25
ATOM     24  N   UNL     1       3.141   2.905  20.520  0.00  0.00    +0.000 NA
ATOM     25  C   UNL     1       3.060   3.962  20.042  0.00  0.00    +0.000 C 
ENDBRANCH   1  25
BRANCH   4  26
ATOM     26  O   UNL     1       2.589   9.062  17.856  0.00  0.00    +0.000 OA
ATOM     27  H   UNL     1       1.657   9.203  17.568  0.00  0.00    +0.000 HD
ENDBRANCH   4  26
BRANCH   8  28
ATOM     28  O   UNL     1       6.229   4.222  15.926  0.00  0.00    +0.000 OA
BRANCH  28  29
ATOM     29  C   UNL     1       6.440   4.233  14.559  0.00  0.00    +0.000 A 
ATOM     30  C   UNL     1       5.710   3.442  13.667  0.00  0.00    +0.000 A 
ATOM     31  C   UNL     1       6.079   3.370  12.326  0.00  0.00    +0.000 A 
ATOM     32  C   UNL     1       7.110   4.174  11.851  0.00  0.00    +0.000 A 
ATOM     33  C   UNL     1       7.763   5.056  12.715  0.00  0.00    +0.000 A 
ATOM     34  C   UNL     1       7.435   5.082  14.073  0.00  0.00    +0.000 A 
ENDBRANCH  28  29
ENDBRANCH   8  28
TORSDOF 10
ENDMDL
MODEL 2
REMARK VINA RESULT:      -7.8      0.243      1.061
REMARK  Name = 
REMARK  10 active torsions:
REMARK  status: ('A' for Active; 'I' for Inactive)
REMARK    1  A    between atoms: C_2  and  C_3
REMARK    2  A    between atoms: C_5  and  C_6
REMARK    3  A    between atoms: N_8  and  C_9
REMARK    4  A    between atoms: C_9  and  C_10
REMARK    5  A    between atoms: C_10  and  C_11
REMARK    6  A    between atoms: C_10  and  C_14
REMARK    7  A    between atoms: C_11  and  O_13
REMARK    8  A    between atoms: C_17  and  O_18
REMARK    9  A    between atoms: C_22  and  O_23
REMARK   10  A    between atoms: O_23  and  C_24
REMARK                            x       y       z     vdW  Elec       q    Type
REMARK                         _______ _______ _______ _____ _____    ______ ____
ROOT
ATOM      1  C   UNL     1       2.921   5.299  19.446  0.00  0.00    +0.000 A 
ATOM      2  N   UNL     1       2.147   6.218  20.076  0.00  0.00    +0.000 NA
ATOM      3  C   UNL     1       2.097   7.456  19.517  0.00  0.00    +0.000 A 
ATOM      4  C   UNL     1       2.766   7.814  18.352  0.00  0.00    +0.000 A 
ATOM      5  C   UNL     1       3.569   6.860  17.728  0.00  0.00    +0.000 A 
ATOM      6  C   UNL     1       4.289   7.193  16.573  0.00  0.00    +0.000 A 
ATOM      7  C   UNL     1       5.121   6.272  15.958  0.00  0.00    +0.000 A 
ATOM      8  C   UNL     1       5.297   5.005  16.514  0.00  0.00    +0.000 A 
ATOM      9  C   UNL     1       4.546   4.633  17.630  0.00  0.00    +0.000 A 
ATOM     10  C   UNL     1       3.687   5.558  18.272  0.00  0.00    +0.000 A 
ENDROOT
BRANCH   3  11
ATOM     11  C   UNL     1       1.357   8.507  20.270  0.00  0.00    +0.000 C 
ATOM     12  O   UNL     1       1.505   8.615  21.486  0.00  0.00    +0.000 OA
ATOM     13  N   UNL     1       0.520   9.306  19.539  0.00  0.00    +0.000 N 
ATOM     14  H   UNL     1       0.596   9.276  18.524  0.00  0.00    +0.000 HD
BRANCH  13  15
ATOM     15  C   UNL     1      -0.321  10.302  20.164  0.00  0.00    +0.000 C 
BRANCH  15  16
ATOM     16  C   UNL     1      -1.207  11.098  19.188  0.00  0.00    +0.000 C 
BRANCH  16  17
ATOM     17  C   UNL     1      -1.540  10.229  17.990  0.00  0.00    +0.000 C 
ATOM     18  C   UNL     1      -2.960   9.787  17.700  0.00  0.00    +0.000 C 
ATOM     19  C   UNL     1      -2.293  10.785  16.802  0.00  0.00    +0.000 C 
ENDBRANCH  16  17
BRANCH  16  20
ATOM     20  C   UNL     1      -0.486  12.386  18.791  0.00  0.00    +0.000 C 
ATOM     21  O   UNL     1       0.704  12.480  18.531  0.00  0.00    +0.000 OA
BRANCH  20  22
ATOM     22  O   UNL     1      -1.294  13.476  18.772  0.00  0.00    +0.000 OA
ATOM     23  H   UNL     1      -1.920  13.509  19.523  0.00  0.00    +0.000 HD
ENDBRANCH  20  22
ENDBRANCH  16  20
ENDBRANCH  15  16
ENDBRANCH  13  15
ENDBRANCH   3  11
BRANCH   1  25
ATOM     24  N   UNL     1       3.009   2.957  20.597  0.00  0.00    +0.000 NA
ATOM     25  C   UNL     1       2.963   4.005  20.095  0.00  0.00    +0.000 C 
ENDBRANCH   1  25
BRANCH   4  26
ATOM     26  O   UNL     1       2.695   9.073  17.802  0.00  0.00    +0.000 OA
ATOM     27  H   UNL     1       2.832   9.007  16.828  0.00  0.00    +0.000 HD
ENDBRANCH   4  26
BRANCH   8  28
ATOM     28  O   UNL     1       6.190   4.074  16.017  0.00  0.00    +0.000 OA
BRANCH  28  29
ATOM     29  C   UNL     1       6.560   4.167  14.688  0.00  0.00    +0.000 A 
ATOM     30  C   UNL     1       7.601   4.988  14.241  0.00  0.00    +0.000 A 
ATOM     31  C   UNL     1       7.817   5.170  12.877  0.00  0.00    +0.000 A 
ATOM     32  C   UNL     1       7.065   4.445  11.957  0.00  0.00    +0.000 A 
ATOM     33  C   UNL     1       6.105   3.534  12.403  0.00  0.00    +0.000 A 
ATOM     34  C   UNL     1       5.845   3.398  13.769  0.00  0.00    +0.000 A 
ENDBRANCH  28  29
ENDBRANCH   8  28
TORSDOF 10
ENDMDL
MODEL 3
REMARK VINA RESULT:      -7.8      4.109      6.636
REMARK  Name = 
REMARK  10 active torsions:
REMARK  status: ('A' for Active; 'I' for Inactive)
REMARK    1  A    between atoms: C_2  and  C_3
REMARK    2  A    between atoms: C_5  and  C_6
REMARK    3  A    between atoms: N_8  and  C_9
REMARK    4  A    between atoms: C_9  and  C_10
REMARK    5  A    between atoms: C_10  and  C_11
REMARK    6  A    between atoms: C_10  and  C_14
REMARK    7  A    between atoms: C_11  and  O_13
REMARK    8  A    between atoms: C_17  and  O_18
REMARK    9  A    between atoms: C_22  and  O_23
REMARK   10  A    between atoms: O_23  and  C_24
REMARK                            x       y       z     vdW  Elec       q    Type
REMARK                         _______ _______ _______ _____ _____    ______ ____
ROOT
ATOM      1  C   UNL     1       0.006  10.282  21.536  0.00  0.00    +0.000 A 
ATOM      2  N   UNL     1      -0.753  11.406  21.504  0.00  0.00    +0.000 NA
ATOM      3  C   UNL     1      -0.999  11.940  20.279  0.00  0.00    +0.000 A 
ATOM      4  C   UNL     1      -0.538  11.396  19.085  0.00  0.00    +0.000 A 
ATOM      5  C   UNL     1       0.254  10.250  19.139  0.00  0.00    +0.000 A 
ATOM      6  C   UNL     1       0.769   9.694  17.960  0.00  0.00    +0.000 A 
ATOM      7  C   UNL     1       1.588   8.577  17.994  0.00  0.00    +0.000 A 
ATOM      8  C   UNL     1       1.960   8.017  19.216  0.00  0.00    +0.000 A 
ATOM      9  C   UNL     1       1.413   8.519  20.399  0.00  0.00    +0.000 A 
ATOM     10  C   UNL     1       0.570   9.658  20.386  0.00  0.00    +0.000 A 
ENDROOT
BRANCH   3  11
ATOM     11  C   UNL     1      -1.720  13.243  20.241  0.00  0.00    +0.000 C 
ATOM     12  O   UNL     1      -1.170  14.239  19.776  0.00  0.00    +0.000 OA
ATOM     13  N   UNL     1      -2.987  13.254  20.757  0.00  0.00    +0.000 N 
ATOM     14  H   UNL     1      -3.434  12.358  20.946  0.00  0.00    +0.000 HD
BRANCH  13  15
ATOM     15  C   UNL     1      -3.757  14.473  20.861  0.00  0.00    +0.000 C 
BRANCH  15  16
ATOM     16  C   UNL     1      -5.067  14.339  21.661  0.00  0.00    +0.000 C 
BRANCH  16  17
ATOM     17  C   UNL     1      -5.097  15.389  22.755  0.00  0.00    +0.000 C 
ATOM     18  C   UNL     1      -6.128  16.499  22.761  0.00  0.00    +0.000 C 
ATOM     19  C   UNL     1      -6.197  15.412  23.791  0.00  0.00    +0.000 C 
ENDBRANCH  16  17
BRANCH  16  20
ATOM     20  C   UNL     1      -5.174  12.918  22.214  0.00  0.00    +0.000 C 
ATOM     21  O   UNL     1      -4.547  12.478  23.167  0.00  0.00    +0.000 OA
BRANCH  20  22
ATOM     22  O   UNL     1      -6.039  12.131  21.524  0.00  0.00    +0.000 OA
ATOM     23  H   UNL     1      -5.737  11.204  21.442  0.00  0.00    +0.000 HD
ENDBRANCH  20  22
ENDBRANCH  16  20
ENDBRANCH  15  16
ENDBRANCH  13  15
ENDBRANCH   3  11
BRANCH   1  25
ATOM     24  N   UNL     1       0.446   9.368  23.942  0.00  0.00    +0.000 NA
ATOM     25  C   UNL     1       0.261   9.769  22.866  0.00  0.00    +0.000 C 
ENDBRANCH   1  25
BRANCH   4  26
ATOM     26  O   UNL     1      -0.805  11.951  17.855  0.00  0.00    +0.000 OA
ATOM     27  H   UNL     1      -1.777  11.921  17.691  0.00  0.00    +0.000 HD
ENDBRANCH   4  26
BRANCH   8  28
ATOM     28  O   UNL     1       2.857   6.971  19.333  0.00  0.00    +0.000 OA
BRANCH  28  29
ATOM     29  C   UNL     1       2.361   5.680  19.313  0.00  0.00    +0.000 A 
ATOM     30  C   UNL     1       2.129   4.969  18.131  0.00  0.00    +0.000 A 
ATOM     31  C   UNL     1       1.472   3.742  18.166  0.00  0.00    +0.000 A 
ATOM     32  C   UNL     1       1.146   3.169  19.391  0.00  0.00    +0.000 A 
ATOM     33  C   UNL     1       1.484   3.820  20.579  0.00  0.00    +0.000 A 
ATOM     34  C   UNL     1       2.085   5.081  20.542  0.00  0.00    +0.000 A 
ENDBRANCH  28  29
ENDBRANCH   8  28
TORSDOF 10
ENDMDL
MODEL 4
REMARK VINA RESULT:      -7.7      3.622      9.737
REMARK  Name = 
REMARK  10 active torsions:
REMARK  status: ('A' for Active; 'I' for Inactive)
REMARK    1  A    between atoms: C_2  and  C_3
REMARK    2  A    between atoms: C_5  and  C_6
REMARK    3  A    between atoms: N_8  and  C_9
REMARK    4  A    between atoms: C_9  and  C_10
REMARK    5  A    between atoms: C_10  and  C_11
REMARK    6  A    between atoms: C_10  and  C_14
REMARK    7  A    between atoms: C_11  and  O_13
REMARK    8  A    between atoms: C_17  and  O_18
REMARK    9  A    between atoms: C_22  and  O_23
REMARK   10  A    between atoms: O_23  and  C_24
REMARK                            x       y       z     vdW  Elec       q    Type
REMARK                         _______ _______ _______ _____ _____    ______ ____
ROOT
ATOM      1  C   UNL     1       0.596   9.552  21.280  0.00  0.00    +0.000 A 
ATOM      2  N   UNL     1       1.464   8.605  20.844  0.00  0.00    +0.000 NA
ATOM      3  C   UNL     1       1.697   8.563  19.505  0.00  0.00    +0.000 A 
ATOM      4  C   UNL     1       1.119   9.431  18.585  0.00  0.00    +0.000 A 
ATOM      5  C   UNL     1       0.216  10.386  19.050  0.00  0.00    +0.000 A 
ATOM      6  C   UNL     1      -0.417  11.254  18.150  0.00  0.00    +0.000 A 
ATOM      7  C   UNL     1      -1.343  12.186  18.586  0.00  0.00    +0.000 A 
ATOM      8  C   UNL     1      -1.705  12.240  19.932  0.00  0.00    +0.000 A 
ATOM      9  C   UNL     1      -1.045  11.425  20.855  0.00  0.00    +0.000 A 
ATOM     10  C   UNL     1      -0.091  10.468  20.430  0.00  0.00    +0.000 A 
ENDROOT
BRANCH   3  11
ATOM     11  C   UNL     1       2.546   7.447  19.002  0.00  0.00    +0.000 C 
ATOM     12  O   UNL     1       2.867   7.403  17.816  0.00  0.00    +0.000 OA
ATOM     13  N   UNL     1       2.916   6.501  19.918  0.00  0.00    +0.000 N 
ATOM     14  H   UNL     1       2.769   6.708  20.905  0.00  0.00    +0.000 HD
BRANCH  13  15
ATOM     15  C   UNL     1       3.662   5.322  19.538  0.00  0.00    +0.000 C 
BRANCH  15  16
ATOM     16  C   UNL     1       2.925   3.991  19.778  0.00  0.00    +0.000 C 
BRANCH  16  17
ATOM     17  C   UNL     1       2.315   3.513  18.475  0.00  0.00    +0.000 C 
ATOM     18  C   UNL     1       2.676   2.169  17.875  0.00  0.00    +0.000 C 
ATOM     19  C   UNL     1       1.307   2.386  18.447  0.00  0.00    +0.000 C 
ENDBRANCH  16  17
BRANCH  16  20
ATOM     20  C   UNL     1       1.879   4.187  20.875  0.00  0.00    +0.000 C 
ATOM     21  O   UNL     1       0.841   4.822  20.760  0.00  0.00    +0.000 OA
BRANCH  20  22
ATOM     22  O   UNL     1       2.210   3.598  22.052  0.00  0.00    +0.000 OA
ATOM     23  H   UNL     1       3.164   3.398  22.131  0.00  0.00    +0.000 HD
ENDBRANCH  20  22
ENDBRANCH  16  20
ENDBRANCH  15  16
ENDBRANCH  13  15
ENDBRANCH   3  11
BRANCH   1  25
ATOM     24  N   UNL     1       0.168   9.551  23.855  0.00  0.00    +0.000 NA
ATOM     25  C   UNL     1       0.361   9.538  22.708  0.00  0.00    +0.000 C 
ENDBRANCH   1  25
BRANCH   4  26
ATOM     26  O   UNL     1       1.374   9.372  17.235  0.00  0.00    +0.000 OA
ATOM     27  H   UNL     1       2.299   9.668  17.069  0.00  0.00    +0.000 HD
ENDBRANCH   4  26
BRANCH   8  28
ATOM     28  O   UNL     1      -2.697  13.069  20.422  0.00  0.00    +0.000 OA
BRANCH  28  29
ATOM     29  C   UNL     1      -4.008  12.636  20.339  0.00  0.00    +0.000 A 
ATOM     30  C   UNL     1      -4.562  12.094  19.175  0.00  0.00    +0.000 A 
ATOM     31  C   UNL     1      -5.928  11.833  19.101  0.00  0.00    +0.000 A 
ATOM     32  C   UNL     1      -6.726  12.010  20.227  0.00  0.00    +0.000 A 
ATOM     33  C   UNL     1      -6.155  12.437  21.428  0.00  0.00    +0.000 A 
ATOM     34  C   UNL     1      -4.796  12.759  21.485  0.00  0.00    +0.000 A 
ENDBRANCH  28  29
ENDBRANCH   8  28
TORSDOF 10
ENDMDL
MODEL 5
REMARK VINA RESULT:      -7.7      4.194      6.335
REMARK  Name = 
REMARK  10 active torsions:
REMARK  status: ('A' for Active; 'I' for Inactive)
REMARK    1  A    between atoms: C_2  and  C_3
REMARK    2  A    between atoms: C_5  and  C_6
REMARK    3  A    between atoms: N_8  and  C_9
REMARK    4  A    between atoms: C_9  and  C_10
REMARK    5  A    between atoms: C_10  and  C_11
REMARK    6  A    between atoms: C_10  and  C_14
REMARK    7  A    between atoms: C_11  and  O_13
REMARK    8  A    between atoms: C_17  and  O_18
REMARK    9  A    between atoms: C_22  and  O_23
REMARK   10  A    between atoms: O_23  and  C_24
REMARK                            x       y       z     vdW  Elec       q    Type
REMARK                         _______ _______ _______ _____ _____    ______ ____
ROOT
ATOM      1  C   UNL     1       0.267  10.350  21.590  0.00  0.00    +0.000 A 
ATOM      2  N   UNL     1      -0.320  11.571  21.517  0.00  0.00    +0.000 NA
ATOM      3  C   UNL     1      -0.373  12.148  20.288  0.00  0.00    +0.000 A 
ATOM      4  C   UNL     1       0.115  11.558  19.127  0.00  0.00    +0.000 A 
ATOM      5  C   UNL     1       0.730  10.310  19.225  0.00  0.00    +0.000 A 
ATOM      6  C   UNL     1       1.269   9.700  18.084  0.00  0.00    +0.000 A 
ATOM      7  C   UNL     1       1.915   8.478  18.165  0.00  0.00    +0.000 A 
ATOM      8  C   UNL     1       2.089   7.856  19.401  0.00  0.00    +0.000 A 
ATOM      9  C   UNL     1       1.510   8.418  20.541  0.00  0.00    +0.000 A 
ATOM     10  C   UNL     1       0.841   9.665  20.480  0.00  0.00    +0.000 A 
ENDROOT
BRANCH   3  11
ATOM     11  C   UNL     1      -0.897  13.541  20.217  0.00  0.00    +0.000 C 
ATOM     12  O   UNL     1      -2.052  13.748  19.850  0.00  0.00    +0.000 OA
ATOM     13  N   UNL     1      -0.027  14.538  20.563  0.00  0.00    +0.000 N 
ATOM     14  H   UNL     1       0.840  14.276  21.031  0.00  0.00    +0.000 HD
BRANCH  13  15
ATOM     15  C   UNL     1      -0.383  15.935  20.450  0.00  0.00    +0.000 C 
BRANCH  15  16
ATOM     16  C   UNL     1       0.397  16.712  19.373  0.00  0.00    +0.000 C 
BRANCH  16  17
ATOM     17  C   UNL     1      -0.515  16.982  18.191  0.00  0.00    +0.000 C 
ATOM     18  C   UNL     1      -1.245  18.302  18.037  0.00  0.00    +0.000 C 
ATOM     19  C   UNL     1      -0.122  17.957  17.105  0.00  0.00    +0.000 C 
ENDBRANCH  16  17
BRANCH  16  20
ATOM     20  C   UNL     1       1.640  15.915  18.980  0.00  0.00    +0.000 C 
ATOM     21  O   UNL     1       1.641  14.872  18.341  0.00  0.00    +0.000 OA
BRANCH  20  22
ATOM     22  O   UNL     1       2.798  16.457  19.433  0.00  0.00    +0.000 OA
ATOM     23  H   UNL     1       2.825  16.556  20.406  0.00  0.00    +0.000 HD
ENDBRANCH  20  22
ENDBRANCH  16  20
ENDBRANCH  15  16
ENDBRANCH  13  15
ENDBRANCH   3  11
BRANCH   1  25
ATOM     24  N   UNL     1       0.378   9.321  23.987  0.00  0.00    +0.000 NA
ATOM     25  C   UNL     1       0.322   9.790  22.924  0.00  0.00    +0.000 C 
ENDBRANCH   1  25
BRANCH   4  26
ATOM     26  O   UNL     1       0.045  12.160  17.892  0.00  0.00    +0.000 OA
ATOM     27  H   UNL     1       0.877  11.976  17.397  0.00  0.00    +0.000 HD
ENDBRANCH   4  26
BRANCH   8  28
ATOM     28  O   UNL     1       2.815   6.692  19.573  0.00  0.00    +0.000 OA
BRANCH  28  29
ATOM     29  C   UNL     1       2.146   5.485  19.476  0.00  0.00    +0.000 A 
ATOM     30  C   UNL     1       1.557   4.849  20.573  0.00  0.00    +0.000 A 
ATOM     31  C   UNL     1       1.046   3.559  20.448  0.00  0.00    +0.000 A 
ATOM     32  C   UNL     1       1.022   2.945  19.199  0.00  0.00    +0.000 A 
ATOM     33  C   UNL     1       1.501   3.626  18.077  0.00  0.00    +0.000 A 
ATOM     34  C   UNL     1       2.071   4.894  18.215  0.00  0.00    +0.000 A 
ENDBRANCH  28  29
ENDBRANCH   8  28
TORSDOF 10
ENDMDL
MODEL 6
REMARK VINA RESULT:      -7.6      3.625      9.923
REMARK  Name = 
REMARK  10 active torsions:
REMARK  status: ('A' for Active; 'I' for Inactive)
REMARK    1  A    between atoms: C_2  and  C_3
REMARK    2  A    between atoms: C_5  and  C_6
REMARK    3  A    between atoms: N_8  and  C_9
REMARK    4  A    between atoms: C_9  and  C_10
REMARK    5  A    between atoms: C_10  and  C_11
REMARK    6  A    between atoms: C_10  and  C_14
REMARK    7  A    between atoms: C_11  and  O_13
REMARK    8  A    between atoms: C_17  and  O_18
REMARK    9  A    between atoms: C_22  and  O_23
REMARK   10  A    between atoms: O_23  and  C_24
REMARK                            x       y       z     vdW  Elec       q    Type
REMARK                         _______ _______ _______ _____ _____    ______ ____
ROOT
ATOM      1  C   UNL     1       0.734   9.611  21.270  0.00  0.00    +0.000 A 
ATOM      2  N   UNL     1       1.501   8.651  20.695  0.00  0.00    +0.000 NA
ATOM      3  C   UNL     1       1.663   8.727  19.348  0.00  0.00    +0.000 A 
ATOM      4  C   UNL     1       1.111   9.724  18.551  0.00  0.00    +0.000 A 
ATOM      5  C   UNL     1       0.312  10.692  19.157  0.00  0.00    +0.000 A 
ATOM      6  C   UNL     1      -0.293  11.691  18.382  0.00  0.00    +0.000 A 
ATOM      7  C   UNL     1      -1.119  12.641  18.958  0.00  0.00    +0.000 A 
ATOM      8  C   UNL     1      -1.408  12.586  20.322  0.00  0.00    +0.000 A 
ATOM      9  C   UNL     1      -0.771  11.635  21.122  0.00  0.00    +0.000 A 
ATOM     10  C   UNL     1       0.081  10.657  20.553  0.00  0.00    +0.000 A 
ENDROOT
BRANCH   3  11
ATOM     11  C   UNL     1       2.394   7.607  18.691  0.00  0.00    +0.000 C 
ATOM     12  O   UNL     1       3.375   7.839  17.987  0.00  0.00    +0.000 OA
ATOM     13  N   UNL     1       1.903   6.348  18.908  0.00  0.00    +0.000 N 
ATOM     14  H   UNL     1       1.211   6.225  19.646  0.00  0.00    +0.000 HD
BRANCH  13  15
ATOM     15  C   UNL     1       2.467   5.188  18.256  0.00  0.00    +0.000 C 
BRANCH  15  16
ATOM     16  C   UNL     1       3.008   4.111  19.215  0.00  0.00    +0.000 C 
BRANCH  16  17
ATOM     17  C   UNL     1       2.254   4.185  20.529  0.00  0.00    +0.000 C 
ATOM     18  C   UNL     1       1.101   3.250  20.836  0.00  0.00    +0.000 C 
ATOM     19  C   UNL     1       2.396   3.104  21.577  0.00  0.00    +0.000 C 
ENDBRANCH  16  17
BRANCH  16  20
ATOM     20  C   UNL     1       4.513   4.310  19.395  0.00  0.00    +0.000 C 
ATOM     21  O   UNL     1       5.079   5.389  19.495  0.00  0.00    +0.000 OA
BRANCH  20  22
ATOM     22  O   UNL     1       5.215   3.149  19.412  0.00  0.00    +0.000 OA
ATOM     23  H   UNL     1       5.236   2.721  20.292  0.00  0.00    +0.000 HD
ENDBRANCH  20  22
ENDBRANCH  16  20
ENDBRANCH  15  16
ENDBRANCH  13  15
ENDBRANCH   3  11
BRANCH   1  25
ATOM     24  N   UNL     1       0.452   9.378  23.855  0.00  0.00    +0.000 NA
ATOM     25  C   UNL     1       0.570   9.471  22.701  0.00  0.00    +0.000 C 
ENDBRANCH   1  25
BRANCH   4  26
ATOM     26  O   UNL     1       1.294   9.783  17.189  0.00  0.00    +0.000 OA
ATOM     27  H   UNL     1       1.787  10.606  16.965  0.00  0.00    +0.000 HD
ENDBRANCH   4  26
BRANCH   8  28
ATOM     28  O   UNL     1      -2.306  13.433  20.945  0.00  0.00    +0.000 OA
BRANCH  28  29
ATOM     29  C   UNL     1      -3.624  13.027  21.047  0.00  0.00    +0.000 A 
ATOM     30  C   UNL     1      -4.350  12.514  19.967  0.00  0.00    +0.000 A 
ATOM     31  C   UNL     1      -5.718  12.281  20.087  0.00  0.00    +0.000 A 
ATOM     32  C   UNL     1      -6.342  12.454  21.318  0.00  0.00    +0.000 A 
ATOM     33  C   UNL     1      -5.595  12.851  22.430  0.00  0.00    +0.000 A 
ATOM     34  C   UNL     1      -4.236  13.146  22.295  0.00  0.00    +0.000 A 
ENDBRANCH  28  29
ENDBRANCH   8  28
TORSDOF 10
ENDMDL
MODEL 7
REMARK VINA RESULT:      -7.6      3.674     10.413
REMARK  Name = 
REMARK  10 active torsions:
REMARK  status: ('A' for Active; 'I' for Inactive)
REMARK    1  A    between atoms: C_2  and  C_3
REMARK    2  A    between atoms: C_5  and  C_6
REMARK    3  A    between atoms: N_8  and  C_9
REMARK    4  A    between atoms: C_9  and  C_10
REMARK    5  A    between atoms: C_10  and  C_11
REMARK    6  A    between atoms: C_10  and  C_14
REMARK    7  A    between atoms: C_11  and  O_13
REMARK    8  A    between atoms: C_17  and  O_18
REMARK    9  A    between atoms: C_22  and  O_23
REMARK   10  A    between atoms: O_23  and  C_24
REMARK                            x       y       z     vdW  Elec       q    Type
REMARK                         _______ _______ _______ _____ _____    ______ ____
ROOT
ATOM      1  C   UNL     1       0.756  10.745  19.392  0.00  0.00    +0.000 A 
ATOM      2  N   UNL     1       1.462   9.810  18.709  0.00  0.00    +0.000 NA
ATOM      3  C   UNL     1       1.664   8.621  19.337  0.00  0.00    +0.000 A 
ATOM      4  C   UNL     1       1.178   8.317  20.604  0.00  0.00    +0.000 A 
ATOM      5  C   UNL     1       0.468   9.297  21.296  0.00  0.00    +0.000 A 
ATOM      6  C   UNL     1      -0.004   9.041  22.591  0.00  0.00    +0.000 A 
ATOM      7  C   UNL     1      -0.681  10.012  23.310  0.00  0.00    +0.000 A 
ATOM      8  C   UNL     1      -0.856  11.288  22.774  0.00  0.00    +0.000 A 
ATOM      9  C   UNL     1      -0.445  11.547  21.465  0.00  0.00    +0.000 A 
ATOM     10  C   UNL     1       0.245  10.566  20.710  0.00  0.00    +0.000 A 
ENDROOT
BRANCH   3  11
ATOM     11  C   UNL     1       2.547   7.636  18.653  0.00  0.00    +0.000 C 
ATOM     12  O   UNL     1       3.346   8.014  17.798  0.00  0.00    +0.000 OA
ATOM     13  N   UNL     1       2.399   6.326  19.019  0.00  0.00    +0.000 N 
ATOM     14  H   UNL     1       1.856   6.122  19.857  0.00  0.00    +0.000 HD
BRANCH  13  15
ATOM     15  C   UNL     1       3.131   5.265  18.366  0.00  0.00    +0.000 C 
BRANCH  15  16
ATOM     16  C   UNL     1       2.967   3.877  19.015  0.00  0.00    +0.000 C 
BRANCH  16  17
ATOM     17  C   UNL     1       2.319   4.035  20.377  0.00  0.00    +0.000 C 
ATOM     18  C   UNL     1       1.087   3.243  20.767  0.00  0.00    +0.000 C 
ATOM     19  C   UNL     1       2.403   2.940  21.417  0.00  0.00    +0.000 C 
ENDBRANCH  16  17
BRANCH  16  20
ATOM     20  C   UNL     1       4.332   3.195  19.093  0.00  0.00    +0.000 C 
ATOM     21  O   UNL     1       5.384   3.745  19.384  0.00  0.00    +0.000 OA
BRANCH  20  22
ATOM     22  O   UNL     1       4.298   1.875  18.779  0.00  0.00    +0.000 OA
ATOM     23  H   UNL     1       4.510   1.291  19.534  0.00  0.00    +0.000 HD
ENDBRANCH  20  22
ENDBRANCH  16  20
ENDBRANCH  15  16
ENDBRANCH  13  15
ENDBRANCH   3  11
BRANCH   1  25
ATOM     24  N   UNL     1       0.452  12.999  18.110  0.00  0.00    +0.000 NA
ATOM     25  C   UNL     1       0.592  12.002  18.691  0.00  0.00    +0.000 C 
ENDBRANCH   1  25
BRANCH   4  26
ATOM     26  O   UNL     1       1.390   7.104  21.218  0.00  0.00    +0.000 OA
ATOM     27  H   UNL     1       2.321   6.821  21.059  0.00  0.00    +0.000 HD
ENDBRANCH   4  26
BRANCH   8  28
ATOM     28  O   UNL     1      -1.424  12.337  23.473  0.00  0.00    +0.000 OA
BRANCH  28  29
ATOM     29  C   UNL     1      -2.779  12.568  23.316  0.00  0.00    +0.000 A 
ATOM     30  C   UNL     1      -3.665  12.678  24.392  0.00  0.00    +0.000 A 
ATOM     31  C   UNL     1      -5.038  12.742  24.169  0.00  0.00    +0.000 A 
ATOM     32  C   UNL     1      -5.523  12.809  22.866  0.00  0.00    +0.000 A 
ATOM     33  C   UNL     1      -4.633  12.821  21.790  0.00  0.00    +0.000 A 
ATOM     34  C   UNL     1      -3.259  12.693  22.012  0.00  0.00    +0.000 A 
ENDBRANCH  28  29
ENDBRANCH   8  28
TORSDOF 10
ENDMDL
MODEL 8
REMARK VINA RESULT:      -7.6      4.084      6.208
REMARK  Name = 
REMARK  10 active torsions:
REMARK  status: ('A' for Active; 'I' for Inactive)
REMARK    1  A    between atoms: C_2  and  C_3
REMARK    2  A    between atoms: C_5  and  C_6
REMARK    3  A    between atoms: N_8  and  C_9
REMARK    4  A    between atoms: C_9  and  C_10
REMARK    5  A    between atoms: C_10  and  C_11
REMARK    6  A    between atoms: C_10  and  C_14
REMARK    7  A    between atoms: C_11  and  O_13
REMARK    8  A    between atoms: C_17  and  O_18
REMARK    9  A    between atoms: C_22  and  O_23
REMARK   10  A    between atoms: O_23  and  C_24
REMARK                            x       y       z     vdW  Elec       q    Type
REMARK                         _______ _______ _______ _____ _____    ______ ____
ROOT
ATOM      1  C   UNL     1       0.603   9.909  21.179  0.00  0.00    +0.000 A 
ATOM      2  N   UNL     1       0.395  11.172  20.727  0.00  0.00    +0.000 NA
ATOM      3  C   UNL     1       0.797  11.437  19.456  0.00  0.00    +0.000 A 
ATOM      4  C   UNL     1       1.380  10.499  18.611  0.00  0.00    +0.000 A 
ATOM      5  C   UNL     1       1.600   9.212  19.098  0.00  0.00    +0.000 A 
ATOM      6  C   UNL     1       2.219   8.249  18.289  0.00  0.00    +0.000 A 
ATOM      7  C   UNL     1       2.481   6.975  18.766  0.00  0.00    +0.000 A 
ATOM      8  C   UNL     1       2.178   6.644  20.087  0.00  0.00    +0.000 A 
ATOM      9  C   UNL     1       1.509   7.569  20.892  0.00  0.00    +0.000 A 
ATOM     10  C   UNL     1       1.228   8.875  20.422  0.00  0.00    +0.000 A 
ENDROOT
BRANCH   3  11
ATOM     11  C   UNL     1       0.693  12.850  18.995  0.00  0.00    +0.000 C 
ATOM     12  O   UNL     1      -0.117  13.156  18.123  0.00  0.00    +0.000 OA
ATOM     13  N   UNL     1       1.545  13.747  19.581  0.00  0.00    +0.000 N 
ATOM     14  H   UNL     1       2.047  13.453  20.418  0.00  0.00    +0.000 HD
BRANCH  13  15
ATOM     15  C   UNL     1       1.606  15.128  19.159  0.00  0.00    +0.000 C 
BRANCH  15  16
ATOM     16  C   UNL     1       2.749  15.449  18.178  0.00  0.00    +0.000 C 
BRANCH  16  17
ATOM     17  C   UNL     1       4.076  15.086  18.818  0.00  0.00    +0.000 C 
ATOM     18  C   UNL     1       5.227  14.536  18.000  0.00  0.00    +0.000 C 
ATOM     19  C   UNL     1       5.316  15.917  18.578  0.00  0.00    +0.000 C 
ENDBRANCH  16  17
BRANCH  16  20
ATOM     20  C   UNL     1       2.675  16.925  17.787  0.00  0.00    +0.000 C 
ATOM     21  O   UNL     1       2.820  17.368  16.657  0.00  0.00    +0.000 OA
BRANCH  20  22
ATOM     22  O   UNL     1       2.450  17.754  18.838  0.00  0.00    +0.000 OA
ATOM     23  H   UNL     1       1.664  17.506  19.366  0.00  0.00    +0.000 HD
ENDBRANCH  20  22
ENDBRANCH  16  20
ENDBRANCH  15  16
ENDBRANCH  13  15
ENDBRANCH   3  11
BRANCH   1  25
ATOM     24  N   UNL     1      -0.132   9.505  23.651  0.00  0.00    +0.000 NA
ATOM     25  C   UNL     1       0.182   9.685  22.546  0.00  0.00    +0.000 C 
ENDBRANCH   1  25
BRANCH   4  26
ATOM     26  O   UNL     1       1.774  10.790  17.325  0.00  0.00    +0.000 OA
ATOM     27  H   UNL     1       1.085  10.470  16.697  0.00  0.00    +0.000 HD
ENDBRANCH   4  26
BRANCH   8  28
ATOM     28  O   UNL     1       2.506   5.431  20.662  0.00  0.00    +0.000 OA
BRANCH  28  29
ATOM     29  C   UNL     1       2.389   4.289  19.891  0.00  0.00    +0.000 A 
ATOM     30  C   UNL     1       3.478   3.678  19.261  0.00  0.00    +0.000 A 
ATOM     31  C   UNL     1       3.276   2.633  18.363  0.00  0.00    +0.000 A 
ATOM     32  C   UNL     1       1.995   2.123  18.176  0.00  0.00    +0.000 A 
ATOM     33  C   UNL     1       0.921   2.652  18.894  0.00  0.00    +0.000 A 
ATOM     34  C   UNL     1       1.114   3.742  19.747  0.00  0.00    +0.000 A 
ENDBRANCH  28  29
ENDBRANCH   8  28
TORSDOF 10
ENDMDL
MODEL 9
REMARK VINA RESULT:      -7.6      4.080      6.702
REMARK  Name = 
REMARK  10 active torsions:
REMARK  status: ('A' for Active; 'I' for Inactive)
REMARK    1  A    between atoms: C_2  and  C_3
REMARK    2  A    between atoms: C_5  and  C_6
REMARK    3  A    between atoms: N_8  and  C_9
REMARK    4  A    between atoms: C_9  and  C_10
REMARK    5  A    between atoms: C_10  and  C_11
REMARK    6  A    between atoms: C_10  and  C_14
REMARK    7  A    between atoms: C_11  and  O_13
REMARK    8  A    between atoms: C_17  and  O_18
REMARK    9  A    between atoms: C_22  and  O_23
REMARK   10  A    between atoms: O_23  and  C_24
REMARK                            x       y       z     vdW  Elec       q    Type
REMARK                         _______ _______ _______ _____ _____    ______ ____
ROOT
ATOM      1  C   UNL     1      -0.164  10.352  21.553  0.00  0.00    +0.000 A 
ATOM      2  N   UNL     1      -0.948  11.459  21.534  0.00  0.00    +0.000 NA
ATOM      3  C   UNL     1      -1.203  12.003  20.315  0.00  0.00    +0.000 A 
ATOM      4  C   UNL     1      -0.729  11.485  19.115  0.00  0.00    +0.000 A 
ATOM      5  C   UNL     1       0.089  10.356  19.156  0.00  0.00    +0.000 A 
ATOM      6  C   UNL     1       0.617   9.827  17.971  0.00  0.00    +0.000 A 
ATOM      7  C   UNL     1       1.460   8.728  17.992  0.00  0.00    +0.000 A 
ATOM      8  C   UNL     1       1.842   8.160  19.207  0.00  0.00    +0.000 A 
ATOM      9  C   UNL     1       1.282   8.635  20.396  0.00  0.00    +0.000 A 
ATOM     10  C   UNL     1       0.415   9.755  20.396  0.00  0.00    +0.000 A 
ENDROOT
BRANCH   3  11
ATOM     11  C   UNL     1      -1.952  13.291  20.293  0.00  0.00    +0.000 C 
ATOM     12  O   UNL     1      -1.388  14.327  19.949  0.00  0.00    +0.000 OA
ATOM     13  N   UNL     1      -3.263  13.241  20.683  0.00  0.00    +0.000 N 
ATOM     14  H   UNL     1      -3.701  12.325  20.770  0.00  0.00    +0.000 HD
BRANCH  13  15
ATOM     15  C   UNL     1      -4.072  14.434  20.793  0.00  0.00    +0.000 C 
BRANCH  15  16
ATOM     16  C   UNL     1      -5.277  14.308  21.743  0.00  0.00    +0.000 C 
BRANCH  16  17
ATOM     17  C   UNL     1      -5.062  15.205  22.948  0.00  0.00    +0.000 C 
ATOM     18  C   UNL     1      -5.514  16.651  22.951  0.00  0.00    +0.000 C 
ATOM     19  C   UNL     1      -6.220  15.648  23.813  0.00  0.00    +0.000 C 
ENDBRANCH  16  17
BRANCH  16  20
ATOM     20  C   UNL     1      -5.458  12.841  22.134  0.00  0.00    +0.000 C 
ATOM     21  O   UNL     1      -6.091  12.011  21.498  0.00  0.00    +0.000 OA
BRANCH  20  22
ATOM     22  O   UNL     1      -4.856  12.513  23.305  0.00  0.00    +0.000 OA
ATOM     23  H   UNL     1      -5.484  12.422  24.051  0.00  0.00    +0.000 HD
ENDBRANCH  20  22
ENDBRANCH  16  20
ENDBRANCH  15  16
ENDBRANCH  13  15
ENDBRANCH   3  11
BRANCH   1  25
ATOM     24  N   UNL     1       0.326   9.424  23.944  0.00  0.00    +0.000 NA
ATOM     25  C   UNL     1       0.099   9.827  22.876  0.00  0.00    +0.000 C 
ENDBRANCH   1  25
BRANCH   4  26
ATOM     26  O   UNL     1      -1.005  12.051  17.892  0.00  0.00    +0.000 OA
ATOM     27  H   UNL     1      -1.538  12.869  18.028  0.00  0.00    +0.000 HD
ENDBRANCH   4  26
BRANCH   8  28
ATOM     28  O   UNL     1       2.761   7.133  19.313  0.00  0.00    +0.000 OA
BRANCH  28  29
ATOM     29  C   UNL     1       2.291   5.832  19.302  0.00  0.00    +0.000 A 
ATOM     30  C   UNL     1       1.920   5.145  20.462  0.00  0.00    +0.000 A 
ATOM     31  C   UNL     1       1.615   3.787  20.408  0.00  0.00    +0.000 A 
ATOM     32  C   UNL     1       1.573   3.138  19.178  0.00  0.00    +0.000 A 
ATOM     33  C   UNL     1       1.826   3.850  18.004  0.00  0.00    +0.000 A 
ATOM     34  C   UNL     1       2.193   5.197  18.064  0.00  0.00    +0.000 A 
ENDBRANCH  28  29
ENDBRANCH   8  28
TORSDOF 10
ENDMDL
