MODEL 1
REMARK VINA RESULT:      -8.4      0.000      0.000
REMARK  Name = 
REMARK  12 active torsions:
REMARK  status: ('A' for Active; 'I' for Inactive)
REMARK    1  A    between atoms: S_2  and  C_4
REMARK    2  A    between atoms: S_2  and  N_14
REMARK    3  A    between atoms: N_14  and  C_15
REMARK    4  A    between atoms: N_14  and  C_25
REMARK    5  A    between atoms: C_15  and  C_16
REMARK    6  A    between atoms: C_16  and  N_17
REMARK    7  A    between atoms: N_17  and  C_18
REMARK    8  A    between atoms: C_18  and  C_19
REMARK    9  A    between atoms: C_25  and  C_26
REMARK   10  A    between atoms: C_26  and  N_27
REMARK   11  A    between atoms: N_27  and  C_28
REMARK   12  A    between atoms: C_28  and  C_29
REMARK                            x       y       z     vdW  Elec       q    Type
REMARK                         _______ _______ _______ _____ _____    ______ ____
ROOT
ATOM      1  N   UNL     1       4.251   6.426  18.518  0.00  0.00    +0.000 NA
ENDROOT
BRANCH   1   3
ATOM      2  O   UNL     1       2.598   6.001  20.413  0.00  0.00    +0.000 OA
ATOM      3  S   UNL     1       2.578   6.399  19.017  0.00  0.00    +0.000 S 
ATOM      4  O   UNL     1       1.812   5.633  18.061  0.00  0.00    +0.000 OA
BRANCH   3   5
ATOM      5  C   UNL     1       1.979   8.076  18.933  0.00  0.00    +0.000 A 
ATOM      6  C   UNL     1       2.352   8.820  17.799  0.00  0.00    +0.000 A 
ATOM      7  C   UNL     1       2.053  10.175  17.722  0.00  0.00    +0.000 A 
ATOM      8  C   UNL     1       1.395  10.794  18.780  0.00  0.00    +0.000 A 
ATOM      9  C   UNL     1       1.020  10.072  19.924  0.00  0.00    +0.000 A 
ATOM     10  C   UNL     1       0.385  10.741  20.984  0.00  0.00    +0.000 A 
ATOM     11  C   UNL     1       0.008  10.062  22.141  0.00  0.00    +0.000 A 
ATOM     12  C   UNL     1       0.253   8.702  22.246  0.00  0.00    +0.000 A 
ATOM     13  C   UNL     1       0.882   8.022  21.201  0.00  0.00    +0.000 A 
ATOM     14  C   UNL     1       1.299   8.683  20.021  0.00  0.00    +0.000 A 
ENDBRANCH   3   5
ENDBRANCH   1   3
BRANCH   1  15
ATOM     15  C   UNL     1       5.089   5.434  19.302  0.00  0.00    +0.000 C 
BRANCH  15  16
ATOM     16  C   UNL     1       5.012   3.984  18.763  0.00  0.00    +0.000 C 
BRANCH  16  17
ATOM     17  N   UNL     1       5.385   2.920  19.699  0.00  0.00    +0.000 NA
ATOM     18  H   UNL     1       5.376   3.284  20.656  0.00  0.00    +0.000 HD
BRANCH  17  19
ATOM     19  C   UNL     1       4.426   1.807  19.660  0.00  0.00    +0.000 C 
BRANCH  19  20
ATOM     20  C   UNL     1       2.987   2.252  19.791  0.00  0.00    +0.000 A 
ATOM     21  C   UNL     1       2.485   2.692  21.013  0.00  0.00    +0.000 A 
ATOM     22  C   UNL     1       1.138   3.028  21.102  0.00  0.00    +0.000 A 
ATOM     23  C   UNL     1       0.334   2.927  19.973  0.00  0.00    +0.000 A 
ATOM     24  C   UNL     1       0.914   2.494  18.795  0.00  0.00    +0.000 A 
ATOM     25  N   UNL     1       2.211   2.149  18.683  0.00  0.00    +0.000 NA
ENDBRANCH  19  20
ENDBRANCH  17  19
ENDBRANCH  16  17
ENDBRANCH  15  16
ENDBRANCH   1  15
BRANCH   1  26
ATOM     26  C   UNL     1       4.369   6.130  17.030  0.00  0.00    +0.000 C 
BRANCH  26  27
ATOM     27  C   UNL     1       5.448   6.939  16.284  0.00  0.00    +0.000 C 
BRANCH  27  28
ATOM     28  N   UNL     1       6.824   6.455  16.451  0.00  0.00    +0.000 NA
ATOM     29  H   UNL     1       7.095   6.589  17.427  0.00  0.00    +0.000 HD
BRANCH  28  30
ATOM     30  C   UNL     1       6.950   5.034  16.115  0.00  0.00    +0.000 C 
BRANCH  30  31
ATOM     31  C   UNL     1       6.963   4.777  14.625  0.00  0.00    +0.000 A 
ATOM     32  C   UNL     1       6.143   3.800  14.068  0.00  0.00    +0.000 A 
ATOM     33  C   UNL     1       6.215   3.564  12.701  0.00  0.00    +0.000 A 
ATOM     34  C   UNL     1       7.096   4.310  11.924  0.00  0.00    +0.000 A 
ATOM     35  C   UNL     1       7.870   5.269  12.557  0.00  0.00    +0.000 A 
ATOM     36  N   UNL     1       7.827   5.516  13.881  0.00  0.00    +0.000 NA
ENDBRANCH  30  31
ENDBRANCH  28  30
ENDBRANCH  27  28
ENDBRANCH  26  27
ENDBRANCH   1  26
TORSDOF 12
ENDMDL
MODEL 2
REMARK VINA RESULT:      -7.7      3.181      6.178
REMARK  Name = 
REMARK  12 active torsions:
REMARK  status: ('A' for Active; 'I' for Inactive)
REMARK    1  A    between atoms: S_2  and  C_4
REMARK    2  A    between atoms: S_2  and  N_14
REMARK    3  A    between atoms: N_14  and  C_15
REMARK    4  A    between atoms: N_14  and  C_25
REMARK    5  A    between atoms: C_15  and  C_16
REMARK    6  A    between atoms: C_16  and  N_17
REMARK    7  A    between atoms: N_17  and  C_18
REMARK    8  A    between atoms: C_18  and  C_19
REMARK    9  A    between atoms: C_25  and  C_26
REMARK   10  A    between atoms: C_26  and  N_27
REMARK   11  A    between atoms: N_27  and  C_28
REMARK   12  A    between atoms: C_28  and  C_29
REMARK                            x       y       z     vdW  Elec       q    Type
REMARK                         _______ _______ _______ _____ _____    ______ ____
ROOT
ATOM      1  N   UNL     1       0.715   9.468  19.480  0.00  0.00    +0.000 NA
ENDROOT
BRANCH   1   3
ATOM      2  O   UNL     1       1.421  11.724  18.521  0.00  0.00    +0.000 OA
ATOM      3  S   UNL     1       0.758  11.200  19.702  0.00  0.00    +0.000 S 
ATOM      4  O   UNL     1       1.285  11.496  21.015  0.00  0.00    +0.000 OA
BRANCH   3   5
ATOM      5  C   UNL     1      -0.930  11.772  19.682  0.00  0.00    +0.000 A 
ATOM      6  C   UNL     1      -1.365  12.488  20.811  0.00  0.00    +0.000 A 
ATOM      7  C   UNL     1      -2.701  12.844  20.943  0.00  0.00    +0.000 A 
ATOM      8  C   UNL     1      -3.610  12.474  19.956  0.00  0.00    +0.000 A 
ATOM      9  C   UNL     1      -3.200  11.754  18.824  0.00  0.00    +0.000 A 
ATOM     10  C   UNL     1      -4.154  11.374  17.865  0.00  0.00    +0.000 A 
ATOM     11  C   UNL     1      -3.788  10.647  16.735  0.00  0.00    +0.000 A 
ATOM     12  C   UNL     1      -2.459  10.303  16.543  0.00  0.00    +0.000 A 
ATOM     13  C   UNL     1      -1.498  10.674  17.486  0.00  0.00    +0.000 A 
ATOM     14  C   UNL     1      -1.836  11.392  18.657  0.00  0.00    +0.000 A 
ENDBRANCH   3   5
ENDBRANCH   1   3
BRANCH   1  15
ATOM     15  C   UNL     1       1.196   9.065  18.100  0.00  0.00    +0.000 C 
BRANCH  15  16
ATOM     16  C   UNL     1       2.675   8.606  18.060  0.00  0.00    +0.000 C 
BRANCH  16  17
ATOM     17  N   UNL     1       2.908   7.173  17.861  0.00  0.00    +0.000 NA
ATOM     18  H   UNL     1       2.087   6.748  17.423  0.00  0.00    +0.000 HD
BRANCH  17  19
ATOM     19  C   UNL     1       4.044   6.932  16.960  0.00  0.00    +0.000 C 
BRANCH  19  20
ATOM     20  C   UNL     1       5.318   6.566  17.687  0.00  0.00    +0.000 A 
ATOM     21  C   UNL     1       6.533   7.147  17.333  0.00  0.00    +0.000 A 
ATOM     22  C   UNL     1       7.689   6.731  17.984  0.00  0.00    +0.000 A 
ATOM     23  C   UNL     1       7.603   5.759  18.974  0.00  0.00    +0.000 A 
ATOM     24  C   UNL     1       6.355   5.242  19.274  0.00  0.00    +0.000 A 
ATOM     25  N   UNL     1       5.222   5.616  18.651  0.00  0.00    +0.000 NA
ENDBRANCH  19  20
ENDBRANCH  17  19
ENDBRANCH  16  17
ENDBRANCH  15  16
ENDBRANCH   1  15
BRANCH   1  26
ATOM     26  C   UNL     1       1.560   8.774  20.539  0.00  0.00    +0.000 C 
BRANCH  26  27
ATOM     27  C   UNL     1       1.142   7.327  20.866  0.00  0.00    +0.000 C 
BRANCH  27  28
ATOM     28  N   UNL     1       2.199   6.319  20.720  0.00  0.00    +0.000 NA
ATOM     29  H   UNL     1       2.887   6.465  21.461  0.00  0.00    +0.000 HD
BRANCH  28  30
ATOM     30  C   UNL     1       1.672   4.955  20.825  0.00  0.00    +0.000 C 
BRANCH  30  31
ATOM     31  C   UNL     1       2.201   4.031  19.751  0.00  0.00    +0.000 A 
ATOM     32  C   UNL     1       3.002   2.944  20.084  0.00  0.00    +0.000 A 
ATOM     33  C   UNL     1       3.504   2.143  19.066  0.00  0.00    +0.000 A 
ATOM     34  C   UNL     1       3.190   2.443  17.743  0.00  0.00    +0.000 A 
ATOM     35  C   UNL     1       2.379   3.538  17.500  0.00  0.00    +0.000 A 
ATOM     36  N   UNL     1       1.883   4.337  18.466  0.00  0.00    +0.000 NA
ENDBRANCH  30  31
ENDBRANCH  28  30
ENDBRANCH  27  28
ENDBRANCH  26  27
ENDBRANCH   1  26
TORSDOF 12
ENDMDL
MODEL 3
REMARK VINA RESULT:      -7.4      0.965      5.550
REMARK  Name = 
REMARK  12 active torsions:
REMARK  status: ('A' for Active; 'I' for Inactive)
REMARK    1  A    between atoms: S_2  and  C_4
REMARK    2  A    between atoms: S_2  and  N_14
REMARK    3  A    between atoms: N_14  and  C_15
REMARK    4  A    between atoms: N_14  and  C_25
REMARK    5  A    between atoms: C_15  and  C_16
REMARK    6  A    between atoms: C_16  and  N_17
REMARK    7  A    between atoms: N_17  and  C_18
REMARK    8  A    between atoms: C_18  and  C_19
REMARK    9  A    between atoms: C_25  and  C_26
REMARK   10  A    between atoms: C_26  and  N_27
REMARK   11  A    between atoms: N_27  and  C_28
REMARK   12  A    between atoms: C_28  and  C_29
REMARK                            x       y       z     vdW  Elec       q    Type
REMARK                         _______ _______ _______ _____ _____    ______ ____
ROOT
ATOM      1  N   UNL     1       4.034   6.054  18.383  0.00  0.00    +0.000 NA
ENDROOT
BRANCH   1   3
ATOM      2  O   UNL     1       2.831   6.010  20.631  0.00  0.00    +0.000 OA
ATOM      3  S   UNL     1       2.515   6.216  19.229  0.00  0.00    +0.000 S 
ATOM      4  O   UNL     1       1.524   5.385  18.584  0.00  0.00    +0.000 OA
BRANCH   3   5
ATOM      5  C   UNL     1       1.982   7.905  19.029  0.00  0.00    +0.000 A 
ATOM      6  C   UNL     1       2.417   8.568  17.868  0.00  0.00    +0.000 A 
ATOM      7  C   UNL     1       2.171   9.925  17.703  0.00  0.00    +0.000 A 
ATOM      8  C   UNL     1       1.504  10.628  18.701  0.00  0.00    +0.000 A 
ATOM      9  C   UNL     1       1.066   9.988  19.871  0.00  0.00    +0.000 A 
ATOM     10  C   UNL     1       0.423  10.739  20.868  0.00  0.00    +0.000 A 
ATOM     11  C   UNL     1      -0.015  10.143  22.049  0.00  0.00    +0.000 A 
ATOM     12  C   UNL     1       0.176   8.783  22.240  0.00  0.00    +0.000 A 
ATOM     13  C   UNL     1       0.813   8.022  21.258  0.00  0.00    +0.000 A 
ATOM     14  C   UNL     1       1.290   8.598  20.057  0.00  0.00    +0.000 A 
ENDBRANCH   3   5
ENDBRANCH   1   3
BRANCH   1  15
ATOM     15  C   UNL     1       5.073   5.333  19.221  0.00  0.00    +0.000 C 
BRANCH  15  16
ATOM     16  C   UNL     1       6.511   5.426  18.654  0.00  0.00    +0.000 C 
BRANCH  16  17
ATOM     17  N   UNL     1       6.778   4.670  17.427  0.00  0.00    +0.000 NA
ATOM     18  H   UNL     1       5.900   4.302  17.052  0.00  0.00    +0.000 HD
BRANCH  17  19
ATOM     19  C   UNL     1       7.361   5.525  16.384  0.00  0.00    +0.000 C 
BRANCH  19  20
ATOM     20  C   UNL     1       7.108   5.016  14.982  0.00  0.00    +0.000 A 
ATOM     21  C   UNL     1       6.145   4.040  14.742  0.00  0.00    +0.000 A 
ATOM     22  C   UNL     1       5.992   3.555  13.447  0.00  0.00    +0.000 A 
ATOM     23  C   UNL     1       6.794   4.061  12.430  0.00  0.00    +0.000 A 
ATOM     24  C   UNL     1       7.717   5.039  12.752  0.00  0.00    +0.000 A 
ATOM     25  N   UNL     1       7.896   5.517  13.998  0.00  0.00    +0.000 NA
ENDBRANCH  19  20
ENDBRANCH  17  19
ENDBRANCH  16  17
ENDBRANCH  15  16
ENDBRANCH   1  15
BRANCH   1  26
ATOM     26  C   UNL     1       3.836   5.313  17.068  0.00  0.00    +0.000 C 
BRANCH  26  27
ATOM     27  C   UNL     1       3.266   3.887  17.199  0.00  0.00    +0.000 C 
BRANCH  27  28
ATOM     28  N   UNL     1       4.260   2.830  17.417  0.00  0.00    +0.000 NA
ATOM     29  H   UNL     1       5.027   3.219  17.969  0.00  0.00    +0.000 HD
BRANCH  28  30
ATOM     30  C   UNL     1       3.693   1.685  18.136  0.00  0.00    +0.000 C 
BRANCH  30  31
ATOM     31  C   UNL     1       2.832   2.092  19.311  0.00  0.00    +0.000 A 
ATOM     32  C   UNL     1       1.449   2.176  19.180  0.00  0.00    +0.000 A 
ATOM     33  C   UNL     1       0.697   2.594  20.271  0.00  0.00    +0.000 A 
ATOM     34  C   UNL     1       1.340   2.912  21.463  0.00  0.00    +0.000 A 
ATOM     35  C   UNL     1       2.719   2.793  21.510  0.00  0.00    +0.000 A 
ATOM     36  N   UNL     1       3.476   2.396  20.468  0.00  0.00    +0.000 NA
ENDBRANCH  30  31
ENDBRANCH  28  30
ENDBRANCH  27  28
ENDBRANCH  26  27
ENDBRANCH   1  26
TORSDOF 12
ENDMDL
MODEL 4
REMARK VINA RESULT:      -7.3      3.963      8.530
REMARK  Name = 
REMARK  12 active torsions:
REMARK  status: ('A' for Active; 'I' for Inactive)
REMARK    1  A    between atoms: S_2  and  C_4
REMARK    2  A    between atoms: S_2  and  N_14
REMARK    3  A    between atoms: N_14  and  C_15
REMARK    4  A    between atoms: N_14  and  C_25
REMARK    5  A    between atoms: C_15  and  C_16
REMARK    6  A    between atoms: C_16  and  N_17
REMARK    7  A    between atoms: N_17  and  C_18
REMARK    8  A    between atoms: C_18  and  C_19
REMARK    9  A    between atoms: C_25  and  C_26
REMARK   10  A    between atoms: C_26  and  N_27
REMARK   11  A    between atoms: N_27  and  C_28
REMARK   12  A    between atoms: C_28  and  C_29
REMARK                            x       y       z     vdW  Elec       q    Type
REMARK                         _______ _______ _______ _____ _____    ______ ____
ROOT
ATOM      1  N   UNL     1       5.770   6.679  17.956  0.00  0.00    +0.000 NA
ENDROOT
BRANCH   1   3
ATOM      2  O   UNL     1       6.253   5.047  19.856  0.00  0.00    +0.000 OA
ATOM      3  S   UNL     1       6.050   5.018  18.419  0.00  0.00    +0.000 S 
ATOM      4  O   UNL     1       7.064   4.452  17.559  0.00  0.00    +0.000 OA
BRANCH   3   5
ATOM      5  C   UNL     1       4.541   4.125  18.096  0.00  0.00    +0.000 A 
ATOM      6  C   UNL     1       4.437   3.498  16.842  0.00  0.00    +0.000 A 
ATOM      7  C   UNL     1       3.243   2.906  16.452  0.00  0.00    +0.000 A 
ATOM      8  C   UNL     1       2.145   2.949  17.306  0.00  0.00    +0.000 A 
ATOM      9  C   UNL     1       2.224   3.574  18.560  0.00  0.00    +0.000 A 
ATOM     10  C   UNL     1       1.084   3.622  19.379  0.00  0.00    +0.000 A 
ATOM     11  C   UNL     1       1.119   4.245  20.625  0.00  0.00    +0.000 A 
ATOM     12  C   UNL     1       2.300   4.818  21.071  0.00  0.00    +0.000 A 
ATOM     13  C   UNL     1       3.443   4.777  20.269  0.00  0.00    +0.000 A 
ATOM     14  C   UNL     1       3.438   4.173  18.989  0.00  0.00    +0.000 A 
ENDBRANCH   3   5
ENDBRANCH   1   3
BRANCH   1  15
ATOM     15  C   UNL     1       6.921   7.239  17.142  0.00  0.00    +0.000 C 
BRANCH  15  16
ATOM     16  C   UNL     1       7.990   7.972  17.989  0.00  0.00    +0.000 C 
BRANCH  16  17
ATOM     17  N   UNL     1       7.995   9.436  17.908  0.00  0.00    +0.000 NA
ATOM     18  H   UNL     1       7.096   9.801  18.233  0.00  0.00    +0.000 HD
BRANCH  17  19
ATOM     19  C   UNL     1       9.030  10.020  18.773  0.00  0.00    +0.000 C 
BRANCH  19  20
ATOM     20  C   UNL     1       9.580  11.327  18.250  0.00  0.00    +0.000 A 
ATOM     21  C   UNL     1      10.904  11.427  17.832  0.00  0.00    +0.000 A 
ATOM     22  C   UNL     1      11.385  12.666  17.421  0.00  0.00    +0.000 A 
ATOM     23  C   UNL     1      10.533  13.765  17.427  0.00  0.00    +0.000 A 
ATOM     24  C   UNL     1       9.228  13.577  17.845  0.00  0.00    +0.000 A 
ATOM     25  N   UNL     1       8.740  12.393  18.261  0.00  0.00    +0.000 NA
ENDBRANCH  19  20
ENDBRANCH  17  19
ENDBRANCH  16  17
ENDBRANCH  15  16
ENDBRANCH   1  15
BRANCH   1  26
ATOM     26  C   UNL     1       4.477   6.801  17.162  0.00  0.00    +0.000 C 
BRANCH  26  27
ATOM     27  C   UNL     1       3.296   7.432  17.926  0.00  0.00    +0.000 C 
BRANCH  27  28
ATOM     28  N   UNL     1       2.849   8.737  17.425  0.00  0.00    +0.000 NA
ATOM     29  H   UNL     1       2.944   8.740  16.408  0.00  0.00    +0.000 HD
BRANCH  28  30
ATOM     30  C   UNL     1       1.450   9.005  17.772  0.00  0.00    +0.000 C 
BRANCH  30  31
ATOM     31  C   UNL     1       1.254   9.331  19.235  0.00  0.00    +0.000 A 
ATOM     32  C   UNL     1       1.286   8.325  20.195  0.00  0.00    +0.000 A 
ATOM     33  C   UNL     1       1.059   8.659  21.525  0.00  0.00    +0.000 A 
ATOM     34  C   UNL     1       0.812   9.986  21.863  0.00  0.00    +0.000 A 
ATOM     35  C   UNL     1       0.807  10.926  20.847  0.00  0.00    +0.000 A 
ATOM     36  N   UNL     1       1.018  10.632  19.548  0.00  0.00    +0.000 NA
ENDBRANCH  30  31
ENDBRANCH  28  30
ENDBRANCH  27  28
ENDBRANCH  26  27
ENDBRANCH   1  26
TORSDOF 12
ENDMDL
MODEL 5
REMARK VINA RESULT:      -7.3      3.839      6.944
REMARK  Name = 
REMARK  12 active torsions:
REMARK  status: ('A' for Active; 'I' for Inactive)
REMARK    1  A    between atoms: S_2  and  C_4
REMARK    2  A    between atoms: S_2  and  N_14
REMARK    3  A    between atoms: N_14  and  C_15
REMARK    4  A    between atoms: N_14  and  C_25
REMARK    5  A    between atoms: C_15  and  C_16
REMARK    6  A    between atoms: C_16  and  N_17
REMARK    7  A    between atoms: N_17  and  C_18
REMARK    8  A    between atoms: C_18  and  C_19
REMARK    9  A    between atoms: C_25  and  C_26
REMARK   10  A    between atoms: C_26  and  N_27
REMARK   11  A    between atoms: N_27  and  C_28
REMARK   12  A    between atoms: C_28  and  C_29
REMARK                            x       y       z     vdW  Elec       q    Type
REMARK                         _______ _______ _______ _____ _____    ______ ____
ROOT
ATOM      1  N   UNL     1       5.585   6.219  17.279  0.00  0.00    +0.000 NA
ENDROOT
BRANCH   1   3
ATOM      2  O   UNL     1       5.732   5.670  19.765  0.00  0.00    +0.000 OA
ATOM      3  S   UNL     1       5.820   4.982  18.489  0.00  0.00    +0.000 S 
ATOM      4  O   UNL     1       7.002   4.219  18.162  0.00  0.00    +0.000 OA
BRANCH   3   5
ATOM      5  C   UNL     1       4.435   3.866  18.372  0.00  0.00    +0.000 A 
ATOM      6  C   UNL     1       4.491   2.900  17.352  0.00  0.00    +0.000 A 
ATOM      7  C   UNL     1       3.394   2.087  17.097  0.00  0.00    +0.000 A 
ATOM      8  C   UNL     1       2.233   2.245  17.848  0.00  0.00    +0.000 A 
ATOM      9  C   UNL     1       2.153   3.207  18.866  0.00  0.00    +0.000 A 
ATOM     10  C   UNL     1       0.952   3.356  19.581  0.00  0.00    +0.000 A 
ATOM     11  C   UNL     1       0.828   4.309  20.590  0.00  0.00    +0.000 A 
ATOM     12  C   UNL     1       1.910   5.117  20.904  0.00  0.00    +0.000 A 
ATOM     13  C   UNL     1       3.111   4.981  20.204  0.00  0.00    +0.000 A 
ATOM     14  C   UNL     1       3.265   4.040  19.158  0.00  0.00    +0.000 A 
ENDBRANCH   3   5
ENDBRANCH   1   3
BRANCH   1  15
ATOM     15  C   UNL     1       4.114   6.507  17.045  0.00  0.00    +0.000 C 
BRANCH  15  16
ATOM     16  C   UNL     1       3.577   7.717  17.847  0.00  0.00    +0.000 C 
BRANCH  16  17
ATOM     17  N   UNL     1       2.124   7.788  18.027  0.00  0.00    +0.000 NA
ATOM     18  H   UNL     1       1.892   7.642  19.013  0.00  0.00    +0.000 HD
BRANCH  17  19
ATOM     19  C   UNL     1       1.599   9.110  17.657  0.00  0.00    +0.000 C 
BRANCH  19  20
ATOM     20  C   UNL     1       0.715   9.722  18.721  0.00  0.00    +0.000 A 
ATOM     21  C   UNL     1      -0.483  10.344  18.380  0.00  0.00    +0.000 A 
ATOM     22  C   UNL     1      -1.231  10.951  19.384  0.00  0.00    +0.000 A 
ATOM     23  C   UNL     1      -0.770  10.913  20.696  0.00  0.00    +0.000 A 
ATOM     24  C   UNL     1       0.424  10.263  20.950  0.00  0.00    +0.000 A 
ATOM     25  N   UNL     1       1.174   9.679  19.997  0.00  0.00    +0.000 NA
ENDBRANCH  19  20
ENDBRANCH  17  19
ENDBRANCH  16  17
ENDBRANCH  15  16
ENDBRANCH   1  15
BRANCH   1  26
ATOM     26  C   UNL     1       6.298   7.502  17.682  0.00  0.00    +0.000 C 
BRANCH  26  27
ATOM     27  C   UNL     1       7.837   7.448  17.604  0.00  0.00    +0.000 C 
BRANCH  27  28
ATOM     28  N   UNL     1       8.545   8.329  18.541  0.00  0.00    +0.000 NA
ATOM     29  H   UNL     1       9.529   8.053  18.558  0.00  0.00    +0.000 HD
BRANCH  28  30
ATOM     30  C   UNL     1       8.455   9.736  18.143  0.00  0.00    +0.000 C 
BRANCH  30  31
ATOM     31  C   UNL     1       9.493  10.609  18.811  0.00  0.00    +0.000 A 
ATOM     32  C   UNL     1       9.422  10.877  20.174  0.00  0.00    +0.000 A 
ATOM     33  C   UNL     1      10.371  11.718  20.743  0.00  0.00    +0.000 A 
ATOM     34  C   UNL     1      11.368  12.265  19.940  0.00  0.00    +0.000 A 
ATOM     35  C   UNL     1      11.371  11.939  18.594  0.00  0.00    +0.000 A 
ATOM     36  N   UNL     1      10.461  11.132  18.013  0.00  0.00    +0.000 NA
ENDBRANCH  30  31
ENDBRANCH  28  30
ENDBRANCH  27  28
ENDBRANCH  26  27
ENDBRANCH   1  26
TORSDOF 12
ENDMDL
MODEL 6
REMARK VINA RESULT:      -7.2      5.408      9.856
REMARK  Name = 
REMARK  12 active torsions:
REMARK  status: ('A' for Active; 'I' for Inactive)
REMARK    1  A    between atoms: S_2  and  C_4
REMARK    2  A    between atoms: S_2  and  N_14
REMARK    3  A    between atoms: N_14  and  C_15
REMARK    4  A    between atoms: N_14  and  C_25
REMARK    5  A    between atoms: C_15  and  C_16
REMARK    6  A    between atoms: C_16  and  N_17
REMARK    7  A    between atoms: N_17  and  C_18
REMARK    8  A    between atoms: C_18  and  C_19
REMARK    9  A    between atoms: C_25  and  C_26
REMARK   10  A    between atoms: C_26  and  N_27
REMARK   11  A    between atoms: N_27  and  C_28
REMARK   12  A    between atoms: C_28  and  C_29
REMARK                            x       y       z     vdW  Elec       q    Type
REMARK                         _______ _______ _______ _____ _____    ______ ____
ROOT
ATOM      1  N   UNL     1      -0.349  10.294  20.544  0.00  0.00    +0.000 NA
ENDROOT
BRANCH   1   3
ATOM      2  O   UNL     1       0.603  11.650  18.605  0.00  0.00    +0.000 OA
ATOM      3  S   UNL     1      -0.611  11.587  19.399  0.00  0.00    +0.000 S 
ATOM      4  O   UNL     1      -1.071  12.759  20.107  0.00  0.00    +0.000 OA
BRANCH   3   5
ATOM      5  C   UNL     1      -1.941  11.075  18.328  0.00  0.00    +0.000 A 
ATOM      6  C   UNL     1      -1.585  10.301  17.210  0.00  0.00    +0.000 A 
ATOM      7  C   UNL     1      -2.535   9.983  16.247  0.00  0.00    +0.000 A 
ATOM      8  C   UNL     1      -3.838  10.448  16.390  0.00  0.00    +0.000 A 
ATOM      9  C   UNL     1      -4.215  11.227  17.495  0.00  0.00    +0.000 A 
ATOM     10  C   UNL     1      -5.534  11.702  17.587  0.00  0.00    +0.000 A 
ATOM     11  C   UNL     1      -5.942  12.489  18.661  0.00  0.00    +0.000 A 
ATOM     12  C   UNL     1      -5.037  12.800  19.664  0.00  0.00    +0.000 A 
ATOM     13  C   UNL     1      -3.723  12.335  19.589  0.00  0.00    +0.000 A 
ATOM     14  C   UNL     1      -3.267  11.553  18.501  0.00  0.00    +0.000 A 
ENDBRANCH   3   5
ENDBRANCH   1   3
BRANCH   1  15
ATOM     15  C   UNL     1       0.733   9.339  20.077  0.00  0.00    +0.000 C 
BRANCH  15  16
ATOM     16  C   UNL     1       1.092   8.244  21.112  0.00  0.00    +0.000 C 
BRANCH  16  17
ATOM     17  N   UNL     1       2.174   7.327  20.742  0.00  0.00    +0.000 NA
ATOM     18  H   UNL     1       2.838   7.248  21.517  0.00  0.00    +0.000 HD
BRANCH  17  19
ATOM     19  C   UNL     1       1.666   5.973  20.479  0.00  0.00    +0.000 C 
BRANCH  19  20
ATOM     20  C   UNL     1       2.403   5.263  19.365  0.00  0.00    +0.000 A 
ATOM     21  C   UNL     1       1.725   4.429  18.481  0.00  0.00    +0.000 A 
ATOM     22  C   UNL     1       2.454   3.745  17.513  0.00  0.00    +0.000 A 
ATOM     23  C   UNL     1       3.831   3.920  17.447  0.00  0.00    +0.000 A 
ATOM     24  C   UNL     1       4.425   4.777  18.355  0.00  0.00    +0.000 A 
ATOM     25  N   UNL     1       3.747   5.441  19.310  0.00  0.00    +0.000 NA
ENDBRANCH  19  20
ENDBRANCH  17  19
ENDBRANCH  16  17
ENDBRANCH  15  16
ENDBRANCH   1  15
BRANCH   1  26
ATOM     26  C   UNL     1       0.022  10.857  21.908  0.00  0.00    +0.000 C 
BRANCH  26  27
ATOM     27  C   UNL     1      -1.136  10.932  22.923  0.00  0.00    +0.000 C 
BRANCH  27  28
ATOM     28  N   UNL     1      -1.950  12.152  22.861  0.00  0.00    +0.000 NA
ATOM     29  H   UNL     1      -2.256  12.285  21.895  0.00  0.00    +0.000 HD
BRANCH  28  30
ATOM     30  C   UNL     1      -3.131  12.065  23.724  0.00  0.00    +0.000 C 
BRANCH  30  31
ATOM     31  C   UNL     1      -4.237  13.010  23.311  0.00  0.00    +0.000 A 
ATOM     32  C   UNL     1      -3.946  14.312  22.916  0.00  0.00    +0.000 A 
ATOM     33  C   UNL     1      -4.993  15.163  22.584  0.00  0.00    +0.000 A 
ATOM     34  C   UNL     1      -6.302  14.693  22.650  0.00  0.00    +0.000 A 
ATOM     35  C   UNL     1      -6.503  13.381  23.045  0.00  0.00    +0.000 A 
ATOM     36  N   UNL     1      -5.508  12.535  23.378  0.00  0.00    +0.000 NA
ENDBRANCH  30  31
ENDBRANCH  28  30
ENDBRANCH  27  28
ENDBRANCH  26  27
ENDBRANCH   1  26
TORSDOF 12
ENDMDL
MODEL 7
REMARK VINA RESULT:      -7.2      3.165      6.069
REMARK  Name = 
REMARK  12 active torsions:
REMARK  status: ('A' for Active; 'I' for Inactive)
REMARK    1  A    between atoms: S_2  and  C_4
REMARK    2  A    between atoms: S_2  and  N_14
REMARK    3  A    between atoms: N_14  and  C_15
REMARK    4  A    between atoms: N_14  and  C_25
REMARK    5  A    between atoms: C_15  and  C_16
REMARK    6  A    between atoms: C_16  and  N_17
REMARK    7  A    between atoms: N_17  and  C_18
REMARK    8  A    between atoms: C_18  and  C_19
REMARK    9  A    between atoms: C_25  and  C_26
REMARK   10  A    between atoms: C_26  and  N_27
REMARK   11  A    between atoms: N_27  and  C_28
REMARK   12  A    between atoms: C_28  and  C_29
REMARK                            x       y       z     vdW  Elec       q    Type
REMARK                         _______ _______ _______ _____ _____    ______ ____
ROOT
ATOM      1  N   UNL     1       0.764   9.395  19.620  0.00  0.00    +0.000 NA
ENDROOT
BRANCH   1   3
ATOM      2  O   UNL     1       1.353  11.733  18.789  0.00  0.00    +0.000 OA
ATOM      3  S   UNL     1       0.760  11.109  19.957  0.00  0.00    +0.000 S 
ATOM      4  O   UNL     1       1.333  11.334  21.264  0.00  0.00    +0.000 OA
BRANCH   3   5
ATOM      5  C   UNL     1      -0.946  11.620  20.045  0.00  0.00    +0.000 A 
ATOM      6  C   UNL     1      -1.736  11.371  18.909  0.00  0.00    +0.000 A 
ATOM      7  C   UNL     1      -3.032  11.866  18.836  0.00  0.00    +0.000 A 
ATOM      8  C   UNL     1      -3.538  12.622  19.888  0.00  0.00    +0.000 A 
ATOM      9  C   UNL     1      -2.766  12.888  21.029  0.00  0.00    +0.000 A 
ATOM     10  C   UNL     1      -3.303  13.680  22.057  0.00  0.00    +0.000 A 
ATOM     11  C   UNL     1      -2.563  13.978  23.199  0.00  0.00    +0.000 A 
ATOM     12  C   UNL     1      -1.278  13.474  23.331  0.00  0.00    +0.000 A 
ATOM     13  C   UNL     1      -0.730  12.683  22.320  0.00  0.00    +0.000 A 
ATOM     14  C   UNL     1      -1.444  12.380  21.137  0.00  0.00    +0.000 A 
ENDBRANCH   3   5
ENDBRANCH   1   3
BRANCH   1  15
ATOM     15  C   UNL     1       1.185   9.102  18.192  0.00  0.00    +0.000 C 
BRANCH  15  16
ATOM     16  C   UNL     1       2.665   8.670  18.052  0.00  0.00    +0.000 C 
BRANCH  16  17
ATOM     17  N   UNL     1       2.916   7.231  17.931  0.00  0.00    +0.000 NA
ATOM     18  H   UNL     1       2.080   6.766  17.566  0.00  0.00    +0.000 HD
BRANCH  17  19
ATOM     19  C   UNL     1       4.006   6.951  16.987  0.00  0.00    +0.000 C 
BRANCH  19  20
ATOM     20  C   UNL     1       5.316   6.621  17.665  0.00  0.00    +0.000 A 
ATOM     21  C   UNL     1       6.479   7.319  17.349  0.00  0.00    +0.000 A 
ATOM     22  C   UNL     1       7.674   6.937  17.950  0.00  0.00    +0.000 A 
ATOM     23  C   UNL     1       7.676   5.880  18.853  0.00  0.00    +0.000 A 
ATOM     24  C   UNL     1       6.475   5.248  19.122  0.00  0.00    +0.000 A 
ATOM     25  N   UNL     1       5.307   5.588  18.545  0.00  0.00    +0.000 NA
ENDBRANCH  19  20
ENDBRANCH  17  19
ENDBRANCH  16  17
ENDBRANCH  15  16
ENDBRANCH   1  15
BRANCH   1  26
ATOM     26  C   UNL     1       1.687   8.664  20.584  0.00  0.00    +0.000 C 
BRANCH  26  27
ATOM     27  C   UNL     1       1.189   7.280  21.046  0.00  0.00    +0.000 C 
BRANCH  27  28
ATOM     28  N   UNL     1       2.059   6.150  20.699  0.00  0.00    +0.000 NA
ATOM     29  H   UNL     1       2.779   6.067  21.420  0.00  0.00    +0.000 HD
BRANCH  28  30
ATOM     30  C   UNL     1       1.315   4.890  20.624  0.00  0.00    +0.000 C 
BRANCH  30  31
ATOM     31  C   UNL     1       1.874   3.933  19.595  0.00  0.00    +0.000 A 
ATOM     32  C   UNL     1       2.395   2.702  19.982  0.00  0.00    +0.000 A 
ATOM     33  C   UNL     1       2.938   1.869  19.012  0.00  0.00    +0.000 A 
ATOM     34  C   UNL     1       2.943   2.280  17.683  0.00  0.00    +0.000 A 
ATOM     35  C   UNL     1       2.396   3.516  17.383  0.00  0.00    +0.000 A 
ATOM     36  N   UNL     1       1.868   4.349  18.302  0.00  0.00    +0.000 NA
ENDBRANCH  30  31
ENDBRANCH  28  30
ENDBRANCH  27  28
ENDBRANCH  26  27
ENDBRANCH   1  26
TORSDOF 12
ENDMDL
MODEL 8
REMARK VINA RESULT:      -7.2      2.952      5.835
REMARK  Name = 
REMARK  12 active torsions:
REMARK  status: ('A' for Active; 'I' for Inactive)
REMARK    1  A    between atoms: S_2  and  C_4
REMARK    2  A    between atoms: S_2  and  N_14
REMARK    3  A    between atoms: N_14  and  C_15
REMARK    4  A    between atoms: N_14  and  C_25
REMARK    5  A    between atoms: C_15  and  C_16
REMARK    6  A    between atoms: C_16  and  N_17
REMARK    7  A    between atoms: N_17  and  C_18
REMARK    8  A    between atoms: C_18  and  C_19
REMARK    9  A    between atoms: C_25  and  C_26
REMARK   10  A    between atoms: C_26  and  N_27
REMARK   11  A    between atoms: N_27  and  C_28
REMARK   12  A    between atoms: C_28  and  C_29
REMARK                            x       y       z     vdW  Elec       q    Type
REMARK                         _______ _______ _______ _____ _____    ______ ____
ROOT
ATOM      1  N   UNL     1       1.391   8.694  19.013  0.00  0.00    +0.000 NA
ENDROOT
BRANCH   1   3
ATOM      2  O   UNL     1       1.692  11.156  18.418  0.00  0.00    +0.000 OA
ATOM      3  S   UNL     1       0.869  10.338  19.290  0.00  0.00    +0.000 S 
ATOM      4  O   UNL     1       0.849  10.595  20.711  0.00  0.00    +0.000 OA
BRANCH   3   5
ATOM      5  C   UNL     1      -0.817  10.454  18.720  0.00  0.00    +0.000 A 
ATOM      6  C   UNL     1      -1.123   9.783  17.523  0.00  0.00    +0.000 A 
ATOM      7  C   UNL     1      -2.370   9.940  16.932  0.00  0.00    +0.000 A 
ATOM      8  C   UNL     1      -3.309  10.778  17.524  0.00  0.00    +0.000 A 
ATOM      9  C   UNL     1      -3.023  11.462  18.715  0.00  0.00    +0.000 A 
ATOM     10  C   UNL     1      -3.988  12.323  19.265  0.00  0.00    +0.000 A 
ATOM     11  C   UNL     1      -3.737  13.030  20.439  0.00  0.00    +0.000 A 
ATOM     12  C   UNL     1      -2.519  12.875  21.083  0.00  0.00    +0.000 A 
ATOM     13  C   UNL     1      -1.550  12.023  20.551  0.00  0.00    +0.000 A 
ATOM     14  C   UNL     1      -1.762  11.307  19.349  0.00  0.00    +0.000 A 
ENDBRANCH   3   5
ENDBRANCH   1   3
BRANCH   1  15
ATOM     15  C   UNL     1       2.314   8.591  17.814  0.00  0.00    +0.000 C 
BRANCH  15  16
ATOM     16  C   UNL     1       3.437   7.537  17.976  0.00  0.00    +0.000 C 
BRANCH  16  17
ATOM     17  N   UNL     1       3.064   6.142  17.728  0.00  0.00    +0.000 NA
ATOM     18  H   UNL     1       2.331   6.104  17.014  0.00  0.00    +0.000 HD
BRANCH  17  19
ATOM     19  C   UNL     1       4.199   5.363  17.214  0.00  0.00    +0.000 C 
BRANCH  19  20
ATOM     20  C   UNL     1       5.535   5.829  17.747  0.00  0.00    +0.000 A 
ATOM     21  C   UNL     1       6.300   6.755  17.043  0.00  0.00    +0.000 A 
ATOM     22  C   UNL     1       7.552   7.105  17.539  0.00  0.00    +0.000 A 
ATOM     23  C   UNL     1       8.001   6.532  18.723  0.00  0.00    +0.000 A 
ATOM     24  C   UNL     1       7.173   5.631  19.368  0.00  0.00    +0.000 A 
ATOM     25  N   UNL     1       5.963   5.264  18.904  0.00  0.00    +0.000 NA
ENDBRANCH  19  20
ENDBRANCH  17  19
ENDBRANCH  16  17
ENDBRANCH  15  16
ENDBRANCH   1  15
BRANCH   1  26
ATOM     26  C   UNL     1       2.092   8.143  20.246  0.00  0.00    +0.000 C 
BRANCH  26  27
ATOM     27  C   UNL     1       1.355   6.993  20.960  0.00  0.00    +0.000 C 
BRANCH  27  28
ATOM     28  N   UNL     1       1.270   5.736  20.207  0.00  0.00    +0.000 NA
ATOM     29  H   UNL     1       1.712   5.877  19.296  0.00  0.00    +0.000 HD
BRANCH  28  30
ATOM     30  C   UNL     1       1.951   4.638  20.898  0.00  0.00    +0.000 C 
BRANCH  30  31
ATOM     31  C   UNL     1       2.455   3.567  19.957  0.00  0.00    +0.000 A 
ATOM     32  C   UNL     1       3.632   2.878  20.234  0.00  0.00    +0.000 A 
ATOM     33  C   UNL     1       4.085   1.932  19.323  0.00  0.00    +0.000 A 
ATOM     34  C   UNL     1       3.352   1.693  18.164  0.00  0.00    +0.000 A 
ATOM     35  C   UNL     1       2.188   2.417  17.971  0.00  0.00    +0.000 A 
ATOM     36  N   UNL     1       1.727   3.345  18.832  0.00  0.00    +0.000 NA
ENDBRANCH  30  31
ENDBRANCH  28  30
ENDBRANCH  27  28
ENDBRANCH  26  27
ENDBRANCH   1  26
TORSDOF 12
ENDMDL
MODEL 9
REMARK VINA RESULT:      -7.1      3.593      6.798
REMARK  Name = 
REMARK  12 active torsions:
REMARK  status: ('A' for Active; 'I' for Inactive)
REMARK    1  A    between atoms: S_2  and  C_4
REMARK    2  A    between atoms: S_2  and  N_14
REMARK    3  A    between atoms: N_14  and  C_15
REMARK    4  A    between atoms: N_14  and  C_25
REMARK    5  A    between atoms: C_15  and  C_16
REMARK    6  A    between atoms: C_16  and  N_17
REMARK    7  A    between atoms: N_17  and  C_18
REMARK    8  A    between atoms: C_18  and  C_19
REMARK    9  A    between atoms: C_25  and  C_26
REMARK   10  A    between atoms: C_26  and  N_27
REMARK   11  A    between atoms: N_27  and  C_28
REMARK   12  A    between atoms: C_28  and  C_29
REMARK                            x       y       z     vdW  Elec       q    Type
REMARK                         _______ _______ _______ _____ _____    ______ ____
ROOT
ATOM      1  N   UNL     1       5.905   5.481  17.239  0.00  0.00    +0.000 NA
ENDROOT
BRANCH   1   3
ATOM      2  O   UNL     1       6.379   5.735  19.732  0.00  0.00    +0.000 OA
ATOM      3  S   UNL     1       5.640   4.853  18.847  0.00  0.00    +0.000 S 
ATOM      4  O   UNL     1       5.914   3.434  18.852  0.00  0.00    +0.000 OA
BRANCH   3   5
ATOM      5  C   UNL     1       3.904   5.046  19.205  0.00  0.00    +0.000 A 
ATOM      6  C   UNL     1       3.521   6.248  19.825  0.00  0.00    +0.000 A 
ATOM      7  C   UNL     1       2.216   6.420  20.270  0.00  0.00    +0.000 A 
ATOM      8  C   UNL     1       1.295   5.390  20.110  0.00  0.00    +0.000 A 
ATOM      9  C   UNL     1       1.657   4.180  19.499  0.00  0.00    +0.000 A 
ATOM     10  C   UNL     1       0.706   3.153  19.384  0.00  0.00    +0.000 A 
ATOM     11  C   UNL     1       1.031   1.933  18.796  0.00  0.00    +0.000 A 
ATOM     12  C   UNL     1       2.311   1.730  18.305  0.00  0.00    +0.000 A 
ATOM     13  C   UNL     1       3.268   2.741  18.410  0.00  0.00    +0.000 A 
ATOM     14  C   UNL     1       2.980   3.984  19.021  0.00  0.00    +0.000 A 
ENDBRANCH   3   5
ENDBRANCH   1   3
BRANCH   1  15
ATOM     15  C   UNL     1       6.191   6.971  17.255  0.00  0.00    +0.000 C 
BRANCH  15  16
ATOM     16  C   UNL     1       7.699   7.320  17.266  0.00  0.00    +0.000 C 
BRANCH  16  17
ATOM     17  N   UNL     1       8.128   8.329  18.239  0.00  0.00    +0.000 NA
ATOM     18  H   UNL     1       9.072   8.110  18.567  0.00  0.00    +0.000 HD
BRANCH  17  19
ATOM     19  C   UNL     1       8.187   9.668  17.636  0.00  0.00    +0.000 C 
BRANCH  19  20
ATOM     20  C   UNL     1       9.011  10.650  18.438  0.00  0.00    +0.000 A 
ATOM     21  C   UNL     1       9.430  10.341  19.730  0.00  0.00    +0.000 A 
ATOM     22  C   UNL     1      10.129  11.301  20.454  0.00  0.00    +0.000 A 
ATOM     23  C   UNL     1      10.400  12.533  19.870  0.00  0.00    +0.000 A 
ATOM     24  C   UNL     1       9.961  12.754  18.578  0.00  0.00    +0.000 A 
ATOM     25  N   UNL     1       9.270  11.849  17.859  0.00  0.00    +0.000 NA
ENDBRANCH  19  20
ENDBRANCH  17  19
ENDBRANCH  16  17
ENDBRANCH  15  16
ENDBRANCH   1  15
BRANCH   1  26
ATOM     26  C   UNL     1       7.056   4.749  16.564  0.00  0.00    +0.000 C 
BRANCH  26  27
ATOM     27  C   UNL     1       6.783   4.290  15.118  0.00  0.00    +0.000 C 
BRANCH  27  28
ATOM     28  N   UNL     1       6.839   5.347  14.101  0.00  0.00    +0.000 NA
ATOM     29  H   UNL     1       7.367   6.133  14.485  0.00  0.00    +0.000 HD
BRANCH  28  30
ATOM     30  C   UNL     1       7.495   4.890  12.873  0.00  0.00    +0.000 C 
BRANCH  30  31
ATOM     31  C   UNL     1       6.781   3.730  12.216  0.00  0.00    +0.000 A 
ATOM     32  C   UNL     1       5.391   3.693  12.162  0.00  0.00    +0.000 A 
ATOM     33  C   UNL     1       4.772   2.590  11.588  0.00  0.00    +0.000 A 
ATOM     34  C   UNL     1       5.552   1.555  11.080  0.00  0.00    +0.000 A 
ATOM     35  C   UNL     1       6.929   1.676  11.167  0.00  0.00    +0.000 A 
ATOM     36  N   UNL     1       7.558   2.731  11.723  0.00  0.00    +0.000 NA
ENDBRANCH  30  31
ENDBRANCH  28  30
ENDBRANCH  27  28
ENDBRANCH  26  27
ENDBRANCH   1  26
TORSDOF 12
ENDMDL
