MODEL 1
REMARK VINA RESULT:      -8.3      0.000      0.000
REMARK  Name = 
REMARK  5 active torsions:
REMARK  status: ('A' for Active; 'I' for Inactive)
REMARK    1  A    between atoms: C_1  and  N_2
REMARK    2  A    between atoms: C_6  and  C_7
REMARK    3  A    between atoms: C_7  and  O_8
REMARK    4  A    between atoms: O_8  and  C_9
REMARK    5  A    between atoms: N_16  and  O_17
REMARK                            x       y       z     vdW  Elec       q    Type
REMARK                         _______ _______ _______ _____ _____    ______ ____
ROOT
ATOM      1  C   UNL     1       2.148   8.040  18.810  0.00  0.00    +0.000 A 
ATOM      2  C   UNL     1       1.569   8.836  17.798  0.00  0.00    +0.000 A 
ATOM      3  C   UNL     1       0.646   9.841  18.099  0.00  0.00    +0.000 A 
ATOM      4  C   UNL     1       0.309  10.047  19.421  0.00  0.00    +0.000 A 
ATOM      5  C   UNL     1       0.889   9.261  20.425  0.00  0.00    +0.000 A 
ATOM      6  C   UNL     1       1.806   8.258  20.150  0.00  0.00    +0.000 A 
ATOM      7  C   UNL     1       0.330   9.720  21.723  0.00  0.00    +0.000 C 
ATOM      8  N   UNL     1       0.680   9.182  22.849  0.00  0.00    +0.000 NA
ATOM      9  C   UNL     1      -0.621  10.825  21.409  0.00  0.00    +0.000 A 
ATOM     10  C   UNL     1      -1.424  11.614  22.215  0.00  0.00    +0.000 A 
ATOM     11  C   UNL     1      -2.223  12.585  21.601  0.00  0.00    +0.000 A 
ATOM     12  C   UNL     1      -2.211  12.753  20.206  0.00  0.00    +0.000 A 
ATOM     13  C   UNL     1      -1.397  11.955  19.402  0.00  0.00    +0.000 A 
ATOM     14  C   UNL     1      -0.605  10.993  20.012  0.00  0.00    +0.000 A 
ENDROOT
BRANCH   8  15
ATOM     15  O   UNL     1       0.037   9.762  23.943  0.00  0.00    +0.000 OA
ATOM     16  H   UNL     1       0.681   9.620  24.661  0.00  0.00    +0.000 HD
ENDBRANCH   8  15
BRANCH   1  17
ATOM     17  O   UNL     1       3.053   7.030  18.582  0.00  0.00    +0.000 OA
BRANCH  17  18
ATOM     18  C   UNL     1       2.519   5.700  18.649  0.00  0.00    +0.000 C 
BRANCH  18  24
ATOM     19  C   UNL     1       3.507   1.484  18.386  0.00  0.00    +0.000 C 
ATOM     20  N   UNL     1       2.812   2.681  18.862  0.00  0.00    +0.000 NA
ATOM     21  C   UNL     1       1.795   2.315  19.860  0.00  0.00    +0.000 C 
ATOM     22  C   UNL     1       1.035   3.538  20.381  0.00  0.00    +0.000 C 
ATOM     23  C   UNL     1       1.987   4.613  20.900  0.00  0.00    +0.000 C 
ATOM     24  C   UNL     1       3.073   4.947  19.868  0.00  0.00    +0.000 C 
ATOM     25  C   UNL     1       3.771   3.651  19.416  0.00  0.00    +0.000 C 
ENDBRANCH  18  24
ENDBRANCH  17  18
ENDBRANCH   1  17
TORSDOF 4
ENDMDL
MODEL 2
REMARK VINA RESULT:      -8.2      1.050      1.681
REMARK  Name = 
REMARK  5 active torsions:
REMARK  status: ('A' for Active; 'I' for Inactive)
REMARK    1  A    between atoms: C_1  and  N_2
REMARK    2  A    between atoms: C_6  and  C_7
REMARK    3  A    between atoms: C_7  and  O_8
REMARK    4  A    between atoms: O_8  and  C_9
REMARK    5  A    between atoms: N_16  and  O_17
REMARK                            x       y       z     vdW  Elec       q    Type
REMARK                         _______ _______ _______ _____ _____    ______ ____
ROOT
ATOM      1  C   UNL     1       2.332   7.433  19.238  0.00  0.00    +0.000 A 
ATOM      2  C   UNL     1       2.138   8.166  18.047  0.00  0.00    +0.000 A 
ATOM      3  C   UNL     1       1.368   9.332  18.023  0.00  0.00    +0.000 A 
ATOM      4  C   UNL     1       0.796   9.763  19.203  0.00  0.00    +0.000 A 
ATOM      5  C   UNL     1       0.994   9.039  20.386  0.00  0.00    +0.000 A 
ATOM      6  C   UNL     1       1.753   7.879  20.432  0.00  0.00    +0.000 A 
ATOM      7  C   UNL     1       0.260   9.747  21.466  0.00  0.00    +0.000 C 
ATOM      8  N   UNL     1       0.256   9.318  22.689  0.00  0.00    +0.000 NA
ATOM      9  C   UNL     1      -0.385  10.934  20.833  0.00  0.00    +0.000 A 
ATOM     10  C   UNL     1      -1.188  11.938  21.348  0.00  0.00    +0.000 A 
ATOM     11  C   UNL     1      -1.647  12.929  20.472  0.00  0.00    +0.000 A 
ATOM     12  C   UNL     1      -1.303  12.905  19.110  0.00  0.00    +0.000 A 
ATOM     13  C   UNL     1      -0.493  11.890  18.600  0.00  0.00    +0.000 A 
ATOM     14  C   UNL     1      -0.038  10.909  19.469  0.00  0.00    +0.000 A 
ENDROOT
BRANCH   8  15
ATOM     15  O   UNL     1      -0.493  10.131  23.540  0.00  0.00    +0.000 OA
ATOM     16  H   UNL     1      -0.764  10.857  22.948  0.00  0.00    +0.000 HD
ENDBRANCH   8  15
BRANCH   1  17
ATOM     17  O   UNL     1       3.067   6.275  19.327  0.00  0.00    +0.000 OA
BRANCH  17  18
ATOM     18  C   UNL     1       3.154   5.508  18.118  0.00  0.00    +0.000 C 
BRANCH  18  24
ATOM     19  C   UNL     1       2.418   2.838  21.457  0.00  0.00    +0.000 C 
ATOM     20  N   UNL     1       2.767   3.225  20.090  0.00  0.00    +0.000 NA
ATOM     21  C   UNL     1       3.100   2.033  19.293  0.00  0.00    +0.000 C 
ATOM     22  C   UNL     1       3.480   2.393  17.855  0.00  0.00    +0.000 C 
ATOM     23  C   UNL     1       2.408   3.248  17.185  0.00  0.00    +0.000 C 
ATOM     24  C   UNL     1       2.033   4.459  18.052  0.00  0.00    +0.000 C 
ATOM     25  C   UNL     1       1.668   3.984  19.470  0.00  0.00    +0.000 C 
ENDBRANCH  18  24
ENDBRANCH  17  18
ENDBRANCH   1  17
TORSDOF 4
ENDMDL
MODEL 3
REMARK VINA RESULT:      -8.1      0.811      1.498
REMARK  Name = 
REMARK  5 active torsions:
REMARK  status: ('A' for Active; 'I' for Inactive)
REMARK    1  A    between atoms: C_1  and  N_2
REMARK    2  A    between atoms: C_6  and  C_7
REMARK    3  A    between atoms: C_7  and  O_8
REMARK    4  A    between atoms: O_8  and  C_9
REMARK    5  A    between atoms: N_16  and  O_17
REMARK                            x       y       z     vdW  Elec       q    Type
REMARK                         _______ _______ _______ _____ _____    ______ ____
ROOT
ATOM      1  C   UNL     1       2.047   8.219  18.658  0.00  0.00    +0.000 A 
ATOM      2  C   UNL     1       1.347   9.008  17.720  0.00  0.00    +0.000 A 
ATOM      3  C   UNL     1       0.416   9.969  18.125  0.00  0.00    +0.000 A 
ATOM      4  C   UNL     1       0.193  10.138  19.477  0.00  0.00    +0.000 A 
ATOM      5  C   UNL     1       0.894   9.359  20.406  0.00  0.00    +0.000 A 
ATOM      6  C   UNL     1       1.821   8.400  20.028  0.00  0.00    +0.000 A 
ATOM      7  C   UNL     1       0.439   9.770  21.760  0.00  0.00    +0.000 C 
ATOM      8  N   UNL     1       0.911   9.228  22.837  0.00  0.00    +0.000 NA
ATOM      9  C   UNL     1      -0.580  10.841  21.557  0.00  0.00    +0.000 A 
ATOM     10  C   UNL     1      -1.337  11.582  22.449  0.00  0.00    +0.000 A 
ATOM     11  C   UNL     1      -2.227  12.530  21.931  0.00  0.00    +0.000 A 
ATOM     12  C   UNL     1      -2.349  12.723  20.545  0.00  0.00    +0.000 A 
ATOM     13  C   UNL     1      -1.581  11.974  19.653  0.00  0.00    +0.000 A 
ATOM     14  C   UNL     1      -0.699  11.035  20.168  0.00  0.00    +0.000 A 
ENDROOT
BRANCH   8  15
ATOM     15  O   UNL     1       0.348   9.761  23.997  0.00  0.00    +0.000 OA
ATOM     16  H   UNL     1      -0.416   9.175  24.146  0.00  0.00    +0.000 HD
ENDBRANCH   8  15
BRANCH   1  17
ATOM     17  O   UNL     1       2.966   7.252  18.328  0.00  0.00    +0.000 OA
BRANCH  17  18
ATOM     18  C   UNL     1       2.962   6.088  19.166  0.00  0.00    +0.000 C 
BRANCH  18  24
ATOM     19  C   UNL     1       1.669   2.673  21.509  0.00  0.00    +0.000 C 
ATOM     20  N   UNL     1       2.383   3.395  20.455  0.00  0.00    +0.000 NA
ATOM     21  C   UNL     1       3.202   2.462  19.664  0.00  0.00    +0.000 C 
ATOM     22  C   UNL     1       3.975   3.177  18.553  0.00  0.00    +0.000 C 
ATOM     23  C   UNL     1       3.051   4.016  17.673  0.00  0.00    +0.000 C 
ATOM     24  C   UNL     1       2.166   4.946  18.515  0.00  0.00    +0.000 C 
ATOM     25  C   UNL     1       1.437   4.126  19.595  0.00  0.00    +0.000 C 
ENDBRANCH  18  24
ENDBRANCH  17  18
ENDBRANCH   1  17
TORSDOF 4
ENDMDL
MODEL 4
REMARK VINA RESULT:      -8.0      2.056      2.813
REMARK  Name = 
REMARK  5 active torsions:
REMARK  status: ('A' for Active; 'I' for Inactive)
REMARK    1  A    between atoms: C_1  and  N_2
REMARK    2  A    between atoms: C_6  and  C_7
REMARK    3  A    between atoms: C_7  and  O_8
REMARK    4  A    between atoms: O_8  and  C_9
REMARK    5  A    between atoms: N_16  and  O_17
REMARK                            x       y       z     vdW  Elec       q    Type
REMARK                         _______ _______ _______ _____ _____    ______ ____
ROOT
ATOM      1  C   UNL     1       2.385   7.427  19.164  0.00  0.00    +0.000 A 
ATOM      2  C   UNL     1       2.142   8.193  18.004  0.00  0.00    +0.000 A 
ATOM      3  C   UNL     1       1.333   9.332  18.037  0.00  0.00    +0.000 A 
ATOM      4  C   UNL     1       0.772   9.702  19.243  0.00  0.00    +0.000 A 
ATOM      5  C   UNL     1       1.019   8.944  20.394  0.00  0.00    +0.000 A 
ATOM      6  C   UNL     1       1.817   7.811  20.384  0.00  0.00    +0.000 A 
ATOM      7  C   UNL     1       0.285   9.590  21.514  0.00  0.00    +0.000 C 
ATOM      8  N   UNL     1       0.320   9.118  22.720  0.00  0.00    +0.000 NA
ATOM      9  C   UNL     1      -0.414  10.775  20.936  0.00  0.00    +0.000 A 
ATOM     10  C   UNL     1      -1.238  11.732  21.502  0.00  0.00    +0.000 A 
ATOM     11  C   UNL     1      -1.749  12.737  20.671  0.00  0.00    +0.000 A 
ATOM     12  C   UNL     1      -1.433  12.771  19.303  0.00  0.00    +0.000 A 
ATOM     13  C   UNL     1      -0.600  11.804  18.741  0.00  0.00    +0.000 A 
ATOM     14  C   UNL     1      -0.094  10.809  19.565  0.00  0.00    +0.000 A 
ENDROOT
BRANCH   8  15
ATOM     15  O   UNL     1      -0.437   9.876  23.614  0.00  0.00    +0.000 OA
ATOM     16  H   UNL     1      -0.731  10.620  23.058  0.00  0.00    +0.000 HD
ENDBRANCH   8  15
BRANCH   1  17
ATOM     17  O   UNL     1       3.160   6.291  19.198  0.00  0.00    +0.000 OA
BRANCH  17  18
ATOM     18  C   UNL     1       3.548   5.774  17.917  0.00  0.00    +0.000 C 
BRANCH  18  24
ATOM     19  C   UNL     1       7.716   5.759  19.119  0.00  0.00    +0.000 C 
ATOM     20  N   UNL     1       6.560   5.522  18.254  0.00  0.00    +0.000 NA
ATOM     21  C   UNL     1       6.991   4.923  16.981  0.00  0.00    +0.000 C 
ATOM     22  C   UNL     1       5.811   4.665  16.040  0.00  0.00    +0.000 C 
ATOM     23  C   UNL     1       4.718   3.843  16.719  0.00  0.00    +0.000 C 
ATOM     24  C   UNL     1       4.316   4.452  18.070  0.00  0.00    +0.000 C 
ATOM     25  C   UNL     1       5.572   4.666  18.933  0.00  0.00    +0.000 C 
ENDBRANCH  18  24
ENDBRANCH  17  18
ENDBRANCH   1  17
TORSDOF 4
ENDMDL
MODEL 5
REMARK VINA RESULT:      -7.9      2.836      4.444
REMARK  Name = 
REMARK  5 active torsions:
REMARK  status: ('A' for Active; 'I' for Inactive)
REMARK    1  A    between atoms: C_1  and  N_2
REMARK    2  A    between atoms: C_6  and  C_7
REMARK    3  A    between atoms: C_7  and  O_8
REMARK    4  A    between atoms: O_8  and  C_9
REMARK    5  A    between atoms: N_16  and  O_17
REMARK                            x       y       z     vdW  Elec       q    Type
REMARK                         _______ _______ _______ _____ _____    ______ ____
ROOT
ATOM      1  C   UNL     1       2.748   5.176  19.194  0.00  0.00    +0.000 A 
ATOM      2  C   UNL     1       2.159   5.034  20.469  0.00  0.00    +0.000 A 
ATOM      3  C   UNL     1       1.531   6.108  21.107  0.00  0.00    +0.000 A 
ATOM      4  C   UNL     1       1.494   7.325  20.457  0.00  0.00    +0.000 A 
ATOM      5  C   UNL     1       2.074   7.463  19.190  0.00  0.00    +0.000 A 
ATOM      6  C   UNL     1       2.701   6.412  18.539  0.00  0.00    +0.000 A 
ATOM      7  C   UNL     1       1.872   8.872  18.763  0.00  0.00    +0.000 C 
ATOM      8  N   UNL     1       2.299   9.311  17.621  0.00  0.00    +0.000 NA
ATOM      9  C   UNL     1       1.139   9.550  19.871  0.00  0.00    +0.000 A 
ATOM     10  C   UNL     1       0.692  10.851  20.026  0.00  0.00    +0.000 A 
ATOM     11  C   UNL     1       0.024  11.182  21.212  0.00  0.00    +0.000 A 
ATOM     12  C   UNL     1      -0.184  10.220  22.214  0.00  0.00    +0.000 A 
ATOM     13  C   UNL     1       0.268   8.911  22.049  0.00  0.00    +0.000 A 
ATOM     14  C   UNL     1       0.929   8.584  20.873  0.00  0.00    +0.000 A 
ENDROOT
BRANCH   8  15
ATOM     15  O   UNL     1       2.004  10.660  17.420  0.00  0.00    +0.000 OA
ATOM     16  H   UNL     1       2.761  11.103  17.847  0.00  0.00    +0.000 HD
ENDBRANCH   8  15
BRANCH   1  17
ATOM     17  O   UNL     1       3.389   4.165  18.517  0.00  0.00    +0.000 OA
BRANCH  17  18
ATOM     18  C   UNL     1       3.644   4.421  17.129  0.00  0.00    +0.000 C 
BRANCH  18  24
ATOM     19  C   UNL     1       7.354   5.876  18.842  0.00  0.00    +0.000 C 
ATOM     20  N   UNL     1       6.371   5.588  17.797  0.00  0.00    +0.000 NA
ATOM     21  C   UNL     1       6.859   6.069  16.494  0.00  0.00    +0.000 C 
ATOM     22  C   UNL     1       5.856   5.796  15.370  0.00  0.00    +0.000 C 
ATOM     23  C   UNL     1       5.450   4.325  15.323  0.00  0.00    +0.000 C 
ATOM     24  C   UNL     1       4.994   3.824  16.700  0.00  0.00    +0.000 C 
ATOM     25  C   UNL     1       6.072   4.147  17.750  0.00  0.00    +0.000 C 
ENDBRANCH  18  24
ENDBRANCH  17  18
ENDBRANCH   1  17
TORSDOF 4
ENDMDL
MODEL 6
REMARK VINA RESULT:      -7.9      3.029      4.059
REMARK  Name = 
REMARK  5 active torsions:
REMARK  status: ('A' for Active; 'I' for Inactive)
REMARK    1  A    between atoms: C_1  and  N_2
REMARK    2  A    between atoms: C_6  and  C_7
REMARK    3  A    between atoms: C_7  and  O_8
REMARK    4  A    between atoms: O_8  and  C_9
REMARK    5  A    between atoms: N_16  and  O_17
REMARK                            x       y       z     vdW  Elec       q    Type
REMARK                         _______ _______ _______ _____ _____    ______ ____
ROOT
ATOM      1  C   UNL     1       2.535   6.554  18.788  0.00  0.00    +0.000 A 
ATOM      2  C   UNL     1       2.132   6.065  20.049  0.00  0.00    +0.000 A 
ATOM      3  C   UNL     1       1.438   6.870  20.957  0.00  0.00    +0.000 A 
ATOM      4  C   UNL     1       1.146   8.168  20.591  0.00  0.00    +0.000 A 
ATOM      5  C   UNL     1       1.541   8.650  19.337  0.00  0.00    +0.000 A 
ATOM      6  C   UNL     1       2.230   7.870  18.421  0.00  0.00    +0.000 A 
ATOM      7  C   UNL     1       1.087  10.062  19.243  0.00  0.00    +0.000 C 
ATOM      8  N   UNL     1       1.303  10.785  18.190  0.00  0.00    +0.000 NA
ATOM      9  C   UNL     1       0.403  10.374  20.532  0.00  0.00    +0.000 A 
ATOM     10  C   UNL     1      -0.205  11.525  21.004  0.00  0.00    +0.000 A 
ATOM     11  C   UNL     1      -0.764  11.497  22.287  0.00  0.00    +0.000 A 
ATOM     12  C   UNL     1      -0.708  10.333  23.073  0.00  0.00    +0.000 A 
ATOM     13  C   UNL     1      -0.094   9.178  22.589  0.00  0.00    +0.000 A 
ATOM     14  C   UNL     1       0.459   9.207  21.317  0.00  0.00    +0.000 A 
ENDROOT
BRANCH   8  15
ATOM     15  O   UNL     1       0.794  12.078  18.312  0.00  0.00    +0.000 OA
ATOM     16  H   UNL     1       0.072  12.079  17.658  0.00  0.00    +0.000 HD
ENDBRANCH   8  15
BRANCH   1  17
ATOM     17  O   UNL     1       3.228   5.820  17.854  0.00  0.00    +0.000 OA
BRANCH  17  18
ATOM     18  C   UNL     1       4.568   5.466  18.223  0.00  0.00    +0.000 C 
BRANCH  18  24
ATOM     19  C   UNL     1       5.978   4.165  14.332  0.00  0.00    +0.000 C 
ATOM     20  N   UNL     1       6.065   4.537  15.745  0.00  0.00    +0.000 NA
ATOM     21  C   UNL     1       7.451   4.398  16.222  0.00  0.00    +0.000 C 
ATOM     22  C   UNL     1       7.588   4.768  17.701  0.00  0.00    +0.000 C 
ATOM     23  C   UNL     1       7.018   6.155  17.990  0.00  0.00    +0.000 C 
ATOM     24  C   UNL     1       5.592   6.302  17.440  0.00  0.00    +0.000 C 
ATOM     25  C   UNL     1       5.570   5.908  15.952  0.00  0.00    +0.000 C 
ENDBRANCH  18  24
ENDBRANCH  17  18
ENDBRANCH   1  17
TORSDOF 4
ENDMDL
MODEL 7
REMARK VINA RESULT:      -7.9      1.158      1.450
REMARK  Name = 
REMARK  5 active torsions:
REMARK  status: ('A' for Active; 'I' for Inactive)
REMARK    1  A    between atoms: C_1  and  N_2
REMARK    2  A    between atoms: C_6  and  C_7
REMARK    3  A    between atoms: C_7  and  O_8
REMARK    4  A    between atoms: O_8  and  C_9
REMARK    5  A    between atoms: N_16  and  O_17
REMARK                            x       y       z     vdW  Elec       q    Type
REMARK                         _______ _______ _______ _____ _____    ______ ____
ROOT
ATOM      1  C   UNL     1       2.145   7.388  19.687  0.00  0.00    +0.000 A 
ATOM      2  C   UNL     1       2.213   8.072  18.454  0.00  0.00    +0.000 A 
ATOM      3  C   UNL     1       1.618   9.325  18.281  0.00  0.00    +0.000 A 
ATOM      4  C   UNL     1       0.957   9.890  19.352  0.00  0.00    +0.000 A 
ATOM      5  C   UNL     1       0.896   9.213  20.577  0.00  0.00    +0.000 A 
ATOM      6  C   UNL     1       1.478   7.970  20.771  0.00  0.00    +0.000 A 
ATOM      7  C   UNL     1       0.127  10.070  21.517  0.00  0.00    +0.000 C 
ATOM      8  N   UNL     1      -0.098   9.713  22.742  0.00  0.00    +0.000 NA
ATOM      9  C   UNL     1      -0.262  11.292  20.756  0.00  0.00    +0.000 A 
ATOM     10  C   UNL     1      -0.982  12.418  21.117  0.00  0.00    +0.000 A 
ATOM     11  C   UNL     1      -1.183  13.411  20.150  0.00  0.00    +0.000 A 
ATOM     12  C   UNL     1      -0.667  13.267  18.851  0.00  0.00    +0.000 A 
ATOM     13  C   UNL     1       0.060  12.130  18.496  0.00  0.00    +0.000 A 
ATOM     14  C   UNL     1       0.258  11.147  19.456  0.00  0.00    +0.000 A 
ENDROOT
BRANCH   8  15
ATOM     15  O   UNL     1      -0.837  10.662  23.450  0.00  0.00    +0.000 OA
ATOM     16  H   UNL     1      -0.242  10.878  24.191  0.00  0.00    +0.000 HD
ENDBRANCH   8  15
BRANCH   1  17
ATOM     17  O   UNL     1       2.698   6.151  19.921  0.00  0.00    +0.000 OA
BRANCH  17  18
ATOM     18  C   UNL     1       1.807   5.175  20.479  0.00  0.00    +0.000 C 
BRANCH  18  24
ATOM     19  C   UNL     1       4.099   3.565  17.165  0.00  0.00    +0.000 C 
ATOM     20  N   UNL     1       3.031   3.627  18.165  0.00  0.00    +0.000 NA
ATOM     21  C   UNL     1       2.123   2.480  18.011  0.00  0.00    +0.000 C 
ATOM     22  C   UNL     1       0.984   2.509  19.032  0.00  0.00    +0.000 C 
ATOM     23  C   UNL     1       1.510   2.637  20.460  0.00  0.00    +0.000 C 
ATOM     24  C   UNL     1       2.496   3.806  20.592  0.00  0.00    +0.000 C 
ATOM     25  C   UNL     1       3.596   3.676  19.524  0.00  0.00    +0.000 C 
ENDBRANCH  18  24
ENDBRANCH  17  18
ENDBRANCH   1  17
TORSDOF 4
ENDMDL
MODEL 8
REMARK VINA RESULT:      -7.9      2.071      2.895
REMARK  Name = 
REMARK  5 active torsions:
REMARK  status: ('A' for Active; 'I' for Inactive)
REMARK    1  A    between atoms: C_1  and  N_2
REMARK    2  A    between atoms: C_6  and  C_7
REMARK    3  A    between atoms: C_7  and  O_8
REMARK    4  A    between atoms: O_8  and  C_9
REMARK    5  A    between atoms: N_16  and  O_17
REMARK                            x       y       z     vdW  Elec       q    Type
REMARK                         _______ _______ _______ _____ _____    ______ ____
ROOT
ATOM      1  C   UNL     1       1.883   8.082  19.073  0.00  0.00    +0.000 A 
ATOM      2  C   UNL     1       1.845   7.818  20.459  0.00  0.00    +0.000 A 
ATOM      3  C   UNL     1       1.072   8.592  21.329  0.00  0.00    +0.000 A 
ATOM      4  C   UNL     1       0.332   9.631  20.800  0.00  0.00    +0.000 A 
ATOM      5  C   UNL     1       0.366   9.887  19.424  0.00  0.00    +0.000 A 
ATOM      6  C   UNL     1       1.126   9.133  18.543  0.00  0.00    +0.000 A 
ATOM      7  C   UNL     1      -0.522  11.052  19.170  0.00  0.00    +0.000 C 
ATOM      8  N   UNL     1      -0.703  11.530  17.979  0.00  0.00    +0.000 NA
ATOM      9  C   UNL     1      -1.073  11.462  20.494  0.00  0.00    +0.000 A 
ATOM     10  C   UNL     1      -1.940  12.476  20.864  0.00  0.00    +0.000 A 
ATOM     11  C   UNL     1      -2.267  12.603  22.219  0.00  0.00    +0.000 A 
ATOM     12  C   UNL     1      -1.730  11.726  23.176  0.00  0.00    +0.000 A 
ATOM     13  C   UNL     1      -0.859  10.705  22.795  0.00  0.00    +0.000 A 
ATOM     14  C   UNL     1      -0.535  10.580  21.451  0.00  0.00    +0.000 A 
ENDROOT
BRANCH   8  15
ATOM     15  O   UNL     1      -1.573  12.621  17.966  0.00  0.00    +0.000 OA
ATOM     16  H   UNL     1      -1.610  12.868  18.908  0.00  0.00    +0.000 HD
ENDBRANCH   8  15
BRANCH   1  17
ATOM     17  O   UNL     1       2.629   7.368  18.166  0.00  0.00    +0.000 OA
BRANCH  17  18
ATOM     18  C   UNL     1       3.139   6.114  18.641  0.00  0.00    +0.000 C 
BRANCH  18  24
ATOM     19  C   UNL     1       2.088   3.041  21.517  0.00  0.00    +0.000 C 
ATOM     20  N   UNL     1       2.658   3.607  20.294  0.00  0.00    +0.000 NA
ATOM     21  C   UNL     1       3.305   2.551  19.499  0.00  0.00    +0.000 C 
ATOM     22  C   UNL     1       3.924   3.101  18.211  0.00  0.00    +0.000 C 
ATOM     23  C   UNL     1       2.909   3.896  17.392  0.00  0.00    +0.000 C 
ATOM     24  C   UNL     1       2.206   4.958  18.249  0.00  0.00    +0.000 C 
ATOM     25  C   UNL     1       1.621   4.299  19.511  0.00  0.00    +0.000 C 
ENDBRANCH  18  24
ENDBRANCH  17  18
ENDBRANCH   1  17
TORSDOF 4
ENDMDL
MODEL 9
REMARK VINA RESULT:      -7.8      2.608      8.098
REMARK  Name = 
REMARK  5 active torsions:
REMARK  status: ('A' for Active; 'I' for Inactive)
REMARK    1  A    between atoms: C_1  and  N_2
REMARK    2  A    between atoms: C_6  and  C_7
REMARK    3  A    between atoms: C_7  and  O_8
REMARK    4  A    between atoms: O_8  and  C_9
REMARK    5  A    between atoms: N_16  and  O_17
REMARK                            x       y       z     vdW  Elec       q    Type
REMARK                         _______ _______ _______ _____ _____    ______ ____
ROOT
ATOM      1  C   UNL     1       2.044   7.597  19.751  0.00  0.00    +0.000 A 
ATOM      2  C   UNL     1       2.272   8.351  18.580  0.00  0.00    +0.000 A 
ATOM      3  C   UNL     1       3.099   7.878  17.556  0.00  0.00    +0.000 A 
ATOM      4  C   UNL     1       3.694   6.642  17.714  0.00  0.00    +0.000 A 
ATOM      5  C   UNL     1       3.461   5.893  18.874  0.00  0.00    +0.000 A 
ATOM      6  C   UNL     1       2.646   6.342  19.901  0.00  0.00    +0.000 A 
ATOM      7  C   UNL     1       4.232   4.629  18.745  0.00  0.00    +0.000 C 
ATOM      8  N   UNL     1       4.217   3.719  19.667  0.00  0.00    +0.000 NA
ATOM      9  C   UNL     1       4.934   4.692  17.430  0.00  0.00    +0.000 A 
ATOM     10  C   UNL     1       5.787   3.808  16.791  0.00  0.00    +0.000 A 
ATOM     11  C   UNL     1       6.294   4.170  15.537  0.00  0.00    +0.000 A 
ATOM     12  C   UNL     1       5.947   5.397  14.946  0.00  0.00    +0.000 A 
ATOM     13  C   UNL     1       5.086   6.281  15.596  0.00  0.00    +0.000 A 
ATOM     14  C   UNL     1       4.584   5.921  16.839  0.00  0.00    +0.000 A 
ENDROOT
BRANCH   8  15
ATOM     15  O   UNL     1       5.007   2.615  19.344  0.00  0.00    +0.000 OA
ATOM     16  H   UNL     1       5.453   2.425  20.189  0.00  0.00    +0.000 HD
ENDBRANCH   8  15
BRANCH   1  17
ATOM     17  O   UNL     1       1.252   8.008  20.798  0.00  0.00    +0.000 OA
BRANCH  17  18
ATOM     18  C   UNL     1       1.033   9.423  20.884  0.00  0.00    +0.000 C 
BRANCH  18  24
ATOM     19  C   UNL     1      -0.694  12.512  18.375  0.00  0.00    +0.000 C 
ATOM     20  N   UNL     1      -0.309  11.839  19.617  0.00  0.00    +0.000 NA
ATOM     21  C   UNL     1      -0.701  12.654  20.778  0.00  0.00    +0.000 C 
ATOM     22  C   UNL     1      -0.308  11.991  22.101  0.00  0.00    +0.000 C 
ATOM     23  C   UNL     1      -0.840  10.563  22.197  0.00  0.00    +0.000 C 
ATOM     24  C   UNL     1      -0.469   9.742  20.954  0.00  0.00    +0.000 C 
ATOM     25  C   UNL     1      -0.909  10.496  19.686  0.00  0.00    +0.000 C 
ENDBRANCH  18  24
ENDBRANCH  17  18
ENDBRANCH   1  17
TORSDOF 4
ENDMDL
