MODEL 1
REMARK VINA RESULT:      -8.4      0.000      0.000
REMARK  Name = 
REMARK  6 active torsions:
REMARK  status: ('A' for Active; 'I' for Inactive)
REMARK    1  A    between atoms: C_1  and  C_2
REMARK    2  A    between atoms: C_5  and  C_6
REMARK    3  A    between atoms: C_6  and  N_7
REMARK    4  A    between atoms: C_8  and  C_10
REMARK    5  A    between atoms: C_10  and  C_11
REMARK    6  A    between atoms: C_14  and  N_15
REMARK                            x       y       z     vdW  Elec       q    Type
REMARK                         _______ _______ _______ _____ _____    ______ ____
ROOT
ATOM      1  C   UNL     1       0.897  10.294  20.658  0.00  0.00    +0.000 A 
ATOM      2  C   UNL     1       1.150   9.246  21.553  0.00  0.00    +0.000 A 
ATOM      3  C   UNL     1       1.602   8.000  21.085  0.00  0.00    +0.000 A 
ATOM      4  C   UNL     1       1.813   7.771  19.719  0.00  0.00    +0.000 A 
ATOM      5  C   UNL     1       1.664   8.867  18.858  0.00  0.00    +0.000 A 
ATOM      6  C   UNL     1       1.203  10.106  19.311  0.00  0.00    +0.000 A 
ENDROOT
BRANCH   4   7
ATOM      7  N   UNL     1       2.074   6.473  19.249  0.00  0.00    +0.000 N 
ATOM      8  C   UNL     1       3.107   6.150  18.411  0.00  0.00    +0.000 C 
ATOM      9  N   UNL     1       4.160   6.853  18.116  0.00  0.00    +0.000 NA
ATOM     10  C   UNL     1       4.886   6.162  17.055  0.00  0.00    +0.000 C 
ATOM     11  C   UNL     1       6.361   6.494  16.952  0.00  0.00    +0.000 C 
ATOM     12  S   UNL     1       7.048   5.011  16.193  0.00  0.00    +0.000 S 
ATOM     13  O   UNL     1       7.460   5.313  14.837  0.00  0.00    +0.000 OA
ATOM     14  O   UNL     1       7.942   4.387  17.147  0.00  0.00    +0.000 OA
ATOM     15  C   UNL     1       5.517   4.055  16.148  0.00  0.00    +0.000 C 
ATOM     16  C   UNL     1       4.790   4.668  17.320  0.00  0.00    +0.000 C 
ATOM     17  S   UNL     1       3.017   4.551  17.628  0.00  0.00    +0.000 S 
ATOM     18  H   UNL     1       1.280   5.846  19.233  0.00  0.00    +0.000 HD
ENDBRANCH   4   7
BRANCH   1  19
ATOM     19  C   UNL     1       0.274  11.596  21.108  0.00  0.00    +0.000 C 
BRANCH  19  21
ATOM     20  N   UNL     1      -1.925  11.506  20.092  0.00  0.00    +0.000 N 
ATOM     21  C   UNL     1      -0.732  12.207  20.147  0.00  0.00    +0.000 C 
ATOM     22  O   UNL     1      -0.530  13.226  19.496  0.00  0.00    +0.000 OA
ATOM     23  H   UNL     1      -2.066  10.704  20.692  0.00  0.00    +0.000 HD
BRANCH  20  24
ATOM     24  C   UNL     1      -3.066  11.992  19.345  0.00  0.00    +0.000 C 
BRANCH  24  29
ATOM     25  C   UNL     1      -3.314   9.774  13.956  0.00  0.00    +0.000 C 
ATOM     26  C   UNL     1      -3.287  10.314  15.355  0.00  0.00    +0.000 A 
ATOM     27  C   UNL     1      -4.290  11.171  15.819  0.00  0.00    +0.000 A 
ATOM     28  C   UNL     1      -4.236  11.691  17.118  0.00  0.00    +0.000 A 
ATOM     29  C   UNL     1      -3.176  11.364  17.978  0.00  0.00    +0.000 A 
ATOM     30  C   UNL     1      -2.175  10.504  17.508  0.00  0.00    +0.000 A 
ATOM     31  C   UNL     1      -2.229   9.985  16.211  0.00  0.00    +0.000 A 
ENDBRANCH  24  29
ENDBRANCH  20  24
ENDBRANCH  19  21
ENDBRANCH   1  19
TORSDOF 5
ENDMDL
MODEL 2
REMARK VINA RESULT:      -8.0      0.619      1.090
REMARK  Name = 
REMARK  6 active torsions:
REMARK  status: ('A' for Active; 'I' for Inactive)
REMARK    1  A    between atoms: C_1  and  C_2
REMARK    2  A    between atoms: C_5  and  C_6
REMARK    3  A    between atoms: C_6  and  N_7
REMARK    4  A    between atoms: C_8  and  C_10
REMARK    5  A    between atoms: C_10  and  C_11
REMARK    6  A    between atoms: C_14  and  N_15
REMARK                            x       y       z     vdW  Elec       q    Type
REMARK                         _______ _______ _______ _____ _____    ______ ____
ROOT
ATOM      1  C   UNL     1       0.994   9.511  21.050  0.00  0.00    +0.000 A 
ATOM      2  C   UNL     1       1.282   8.371  21.813  0.00  0.00    +0.000 A 
ATOM      3  C   UNL     1       1.749   7.197  21.196  0.00  0.00    +0.000 A 
ATOM      4  C   UNL     1       1.941   7.133  19.809  0.00  0.00    +0.000 A 
ATOM      5  C   UNL     1       1.757   8.319  19.084  0.00  0.00    +0.000 A 
ATOM      6  C   UNL     1       1.280   9.486  19.685  0.00  0.00    +0.000 A 
ENDROOT
BRANCH   4   7
ATOM      7  N   UNL     1       2.218   5.904  19.188  0.00  0.00    +0.000 N 
ATOM      8  C   UNL     1       3.255   5.697  18.319  0.00  0.00    +0.000 C 
ATOM      9  N   UNL     1       4.301   6.443  18.114  0.00  0.00    +0.000 NA
ATOM     10  C   UNL     1       5.036   5.894  16.978  0.00  0.00    +0.000 C 
ATOM     11  C   UNL     1       6.506   6.254  16.919  0.00  0.00    +0.000 C 
ATOM     12  S   UNL     1       7.213   4.881  15.990  0.00  0.00    +0.000 S 
ATOM     13  O   UNL     1       7.622   5.348  14.681  0.00  0.00    +0.000 OA
ATOM     14  O   UNL     1       8.114   4.157  16.864  0.00  0.00    +0.000 OA
ATOM     15  C   UNL     1       5.694   3.918  15.826  0.00  0.00    +0.000 C 
ATOM     16  C   UNL     1       4.958   4.377  17.063  0.00  0.00    +0.000 C 
ATOM     17  S   UNL     1       3.187   4.203  17.350  0.00  0.00    +0.000 S 
ATOM     18  H   UNL     1       1.432   5.274  19.095  0.00  0.00    +0.000 HD
ENDBRANCH   4   7
BRANCH   1  19
ATOM     19  C   UNL     1       0.354  10.738  21.658  0.00  0.00    +0.000 C 
BRANCH  19  21
ATOM     20  N   UNL     1      -1.628  11.407  20.434  0.00  0.00    +0.000 N 
ATOM     21  C   UNL     1      -0.295  11.695  20.671  0.00  0.00    +0.000 C 
ATOM     22  O   UNL     1       0.285  12.640  20.146  0.00  0.00    +0.000 OA
ATOM     23  H   UNL     1      -2.078  10.652  20.935  0.00  0.00    +0.000 HD
BRANCH  20  24
ATOM     24  C   UNL     1      -2.469  12.274  19.634  0.00  0.00    +0.000 C 
BRANCH  24  29
ATOM     25  C   UNL     1      -3.819   9.788  14.533  0.00  0.00    +0.000 C 
ATOM     26  C   UNL     1      -3.443  10.459  15.821  0.00  0.00    +0.000 A 
ATOM     27  C   UNL     1      -2.178  10.278  16.389  0.00  0.00    +0.000 A 
ATOM     28  C   UNL     1      -1.851  10.887  17.606  0.00  0.00    +0.000 A 
ATOM     29  C   UNL     1      -2.784  11.690  18.280  0.00  0.00    +0.000 A 
ATOM     30  C   UNL     1      -4.049  11.870  17.705  0.00  0.00    +0.000 A 
ATOM     31  C   UNL     1      -4.375  11.261  16.490  0.00  0.00    +0.000 A 
ENDBRANCH  24  29
ENDBRANCH  20  24
ENDBRANCH  19  21
ENDBRANCH   1  19
TORSDOF 5
ENDMDL
MODEL 3
REMARK VINA RESULT:      -7.8      1.041      1.460
REMARK  Name = 
REMARK  6 active torsions:
REMARK  status: ('A' for Active; 'I' for Inactive)
REMARK    1  A    between atoms: C_1  and  C_2
REMARK    2  A    between atoms: C_5  and  C_6
REMARK    3  A    between atoms: C_6  and  N_7
REMARK    4  A    between atoms: C_8  and  C_10
REMARK    5  A    between atoms: C_10  and  C_11
REMARK    6  A    between atoms: C_14  and  N_15
REMARK                            x       y       z     vdW  Elec       q    Type
REMARK                         _______ _______ _______ _____ _____    ______ ____
ROOT
ATOM      1  C   UNL     1       1.155   9.082  20.778  0.00  0.00    +0.000 A 
ATOM      2  C   UNL     1       1.542   9.003  19.433  0.00  0.00    +0.000 A 
ATOM      3  C   UNL     1       1.801   7.756  18.837  0.00  0.00    +0.000 A 
ATOM      4  C   UNL     1       1.680   6.564  19.565  0.00  0.00    +0.000 A 
ATOM      5  C   UNL     1       1.182   6.662  20.872  0.00  0.00    +0.000 A 
ATOM      6  C   UNL     1       0.934   7.897  21.477  0.00  0.00    +0.000 A 
ENDROOT
BRANCH   4   7
ATOM      7  N   UNL     1       2.128   5.350  19.017  0.00  0.00    +0.000 N 
ATOM      8  C   UNL     1       3.197   5.237  18.170  0.00  0.00    +0.000 C 
ATOM      9  N   UNL     1       4.136   6.103  17.931  0.00  0.00    +0.000 NA
ATOM     10  C   UNL     1       4.956   5.595  16.835  0.00  0.00    +0.000 C 
ATOM     11  C   UNL     1       6.366   6.145  16.767  0.00  0.00    +0.000 C 
ATOM     12  S   UNL     1       7.264   4.829  15.924  0.00  0.00    +0.000 S 
ATOM     13  O   UNL     1       7.628   5.273  14.594  0.00  0.00    +0.000 OA
ATOM     14  O   UNL     1       8.240   4.283  16.845  0.00  0.00    +0.000 OA
ATOM     15  C   UNL     1       5.890   3.664  15.803  0.00  0.00    +0.000 C 
ATOM     16  C   UNL     1       5.080   4.088  17.005  0.00  0.00    +0.000 C 
ATOM     17  S   UNL     1       3.344   3.695  17.287  0.00  0.00    +0.000 S 
ATOM     18  H   UNL     1       1.434   4.617  18.954  0.00  0.00    +0.000 HD
ENDBRANCH   4   7
BRANCH   1  19
ATOM     19  C   UNL     1       1.011  10.408  21.490  0.00  0.00    +0.000 C 
BRANCH  19  21
ATOM     20  N   UNL     1      -0.658  11.475  20.093  0.00  0.00    +0.000 N 
ATOM     21  C   UNL     1      -0.355  11.065  21.380  0.00  0.00    +0.000 C 
ATOM     22  O   UNL     1      -1.128  11.207  22.322  0.00  0.00    +0.000 OA
ATOM     23  H   UNL     1      -0.012  11.284  19.337  0.00  0.00    +0.000 HD
BRANCH  20  24
ATOM     24  C   UNL     1      -1.961  12.000  19.742  0.00  0.00    +0.000 C 
BRANCH  24  29
ATOM     25  C   UNL     1      -3.868   9.969  14.618  0.00  0.00    +0.000 C 
ATOM     26  C   UNL     1      -3.411  10.463  15.958  0.00  0.00    +0.000 A 
ATOM     27  C   UNL     1      -4.184  11.361  16.701  0.00  0.00    +0.000 A 
ATOM     28  C   UNL     1      -3.731  11.836  17.937  0.00  0.00    +0.000 A 
ATOM     29  C   UNL     1      -2.495  11.422  18.456  0.00  0.00    +0.000 A 
ATOM     30  C   UNL     1      -1.725  10.521  17.708  0.00  0.00    +0.000 A 
ATOM     31  C   UNL     1      -2.178  10.047  16.474  0.00  0.00    +0.000 A 
ENDBRANCH  24  29
ENDBRANCH  20  24
ENDBRANCH  19  21
ENDBRANCH   1  19
TORSDOF 5
ENDMDL
MODEL 4
REMARK VINA RESULT:      -7.8      4.582      9.479
REMARK  Name = 
REMARK  6 active torsions:
REMARK  status: ('A' for Active; 'I' for Inactive)
REMARK    1  A    between atoms: C_1  and  C_2
REMARK    2  A    between atoms: C_5  and  C_6
REMARK    3  A    between atoms: C_6  and  N_7
REMARK    4  A    between atoms: C_8  and  C_10
REMARK    5  A    between atoms: C_10  and  C_11
REMARK    6  A    between atoms: C_14  and  N_15
REMARK                            x       y       z     vdW  Elec       q    Type
REMARK                         _______ _______ _______ _____ _____    ______ ____
ROOT
ATOM      1  C   UNL     1       2.245   7.391  19.390  0.00  0.00    +0.000 A 
ATOM      2  C   UNL     1       2.507   8.024  18.168  0.00  0.00    +0.000 A 
ATOM      3  C   UNL     1       1.995   9.307  17.903  0.00  0.00    +0.000 A 
ATOM      4  C   UNL     1       1.214   9.985  18.848  0.00  0.00    +0.000 A 
ATOM      5  C   UNL     1       1.063   9.380  20.104  0.00  0.00    +0.000 A 
ATOM      6  C   UNL     1       1.556   8.101  20.372  0.00  0.00    +0.000 A 
ENDROOT
BRANCH   4   7
ATOM      7  N   UNL     1       0.550  11.173  18.498  0.00  0.00    +0.000 N 
ATOM      8  C   UNL     1       0.997  12.427  18.817  0.00  0.00    +0.000 C 
ATOM      9  N   UNL     1       2.178  12.787  19.225  0.00  0.00    +0.000 NA
ATOM     10  C   UNL     1       2.123  14.198  19.594  0.00  0.00    +0.000 C 
ATOM     11  C   UNL     1       3.448  14.932  19.565  0.00  0.00    +0.000 C 
ATOM     12  S   UNL     1       2.949  16.638  19.272  0.00  0.00    +0.000 S 
ATOM     13  O   UNL     1       3.183  17.419  20.470  0.00  0.00    +0.000 OA
ATOM     14  O   UNL     1       3.461  17.044  17.978  0.00  0.00    +0.000 OA
ATOM     15  C   UNL     1       1.179  16.327  19.104  0.00  0.00    +0.000 C 
ATOM     16  C   UNL     1       1.209  14.903  18.603  0.00  0.00    +0.000 C 
ATOM     17  S   UNL     1      -0.180  13.754  18.636  0.00  0.00    +0.000 S 
ATOM     18  H   UNL     1      -0.444  11.087  18.336  0.00  0.00    +0.000 HD
ENDBRANCH   4   7
BRANCH   1  19
ATOM     19  C   UNL     1       2.655   5.960  19.651  0.00  0.00    +0.000 C 
BRANCH  19  21
ATOM     20  N   UNL     1       3.932   4.578  18.123  0.00  0.00    +0.000 N 
ATOM     21  C   UNL     1       2.667   5.049  18.434  0.00  0.00    +0.000 C 
ATOM     22  O   UNL     1       1.667   4.740  17.796  0.00  0.00    +0.000 OA
ATOM     23  H   UNL     1       4.718   4.815  18.714  0.00  0.00    +0.000 HD
BRANCH  20  24
ATOM     24  C   UNL     1       4.147   3.591  17.085  0.00  0.00    +0.000 C 
BRANCH  24  29
ATOM     25  C   UNL     1       8.064   5.469  13.191  0.00  0.00    +0.000 C 
ATOM     26  C   UNL     1       7.079   4.942  14.193  0.00  0.00    +0.000 A 
ATOM     27  C   UNL     1       6.073   4.046  13.816  0.00  0.00    +0.000 A 
ATOM     28  C   UNL     1       5.143   3.585  14.755  0.00  0.00    +0.000 A 
ATOM     29  C   UNL     1       5.200   4.013  16.091  0.00  0.00    +0.000 A 
ATOM     30  C   UNL     1       6.211   4.909  16.463  0.00  0.00    +0.000 A 
ATOM     31  C   UNL     1       7.139   5.369  15.524  0.00  0.00    +0.000 A 
ENDBRANCH  24  29
ENDBRANCH  20  24
ENDBRANCH  19  21
ENDBRANCH   1  19
TORSDOF 5
ENDMDL
MODEL 5
REMARK VINA RESULT:      -7.8      2.651      4.133
REMARK  Name = 
REMARK  6 active torsions:
REMARK  status: ('A' for Active; 'I' for Inactive)
REMARK    1  A    between atoms: C_1  and  C_2
REMARK    2  A    between atoms: C_5  and  C_6
REMARK    3  A    between atoms: C_6  and  N_7
REMARK    4  A    between atoms: C_8  and  C_10
REMARK    5  A    between atoms: C_10  and  C_11
REMARK    6  A    between atoms: C_14  and  N_15
REMARK                            x       y       z     vdW  Elec       q    Type
REMARK                         _______ _______ _______ _____ _____    ______ ____
ROOT
ATOM      1  C   UNL     1       0.478  10.017  19.672  0.00  0.00    +0.000 A 
ATOM      2  C   UNL     1       0.638   9.323  20.879  0.00  0.00    +0.000 A 
ATOM      3  C   UNL     1       1.429   8.162  20.937  0.00  0.00    +0.000 A 
ATOM      4  C   UNL     1       2.078   7.669  19.797  0.00  0.00    +0.000 A 
ATOM      5  C   UNL     1       1.996   8.442  18.631  0.00  0.00    +0.000 A 
ATOM      6  C   UNL     1       1.203   9.590  18.559  0.00  0.00    +0.000 A 
ENDROOT
BRANCH   4   7
ATOM      7  N   UNL     1       2.700   6.409  19.825  0.00  0.00    +0.000 N 
ATOM      8  C   UNL     1       3.420   5.883  18.787  0.00  0.00    +0.000 C 
ATOM      9  N   UNL     1       3.898   6.492  17.742  0.00  0.00    +0.000 NA
ATOM     10  C   UNL     1       4.446   5.485  16.839  0.00  0.00    +0.000 C 
ATOM     11  C   UNL     1       5.500   5.983  15.871  0.00  0.00    +0.000 C 
ATOM     12  S   UNL     1       6.462   4.496  15.534  0.00  0.00    +0.000 S 
ATOM     13  O   UNL     1       6.218   4.067  14.172  0.00  0.00    +0.000 OA
ATOM     14  O   UNL     1       7.801   4.696  16.049  0.00  0.00    +0.000 OA
ATOM     15  C   UNL     1       5.581   3.400  16.667  0.00  0.00    +0.000 C 
ATOM     16  C   UNL     1       5.102   4.407  17.686  0.00  0.00    +0.000 C 
ATOM     17  S   UNL     1       3.775   4.139  18.876  0.00  0.00    +0.000 S 
ATOM     18  H   UNL     1       2.302   5.739  20.470  0.00  0.00    +0.000 HD
ENDBRANCH   4   7
BRANCH   1  19
ATOM     19  C   UNL     1      -0.478  11.180  19.540  0.00  0.00    +0.000 C 
BRANCH  19  21
ATOM     20  N   UNL     1      -1.667  11.712  21.584  0.00  0.00    +0.000 N 
ATOM     21  C   UNL     1      -0.605  12.066  20.768  0.00  0.00    +0.000 C 
ATOM     22  O   UNL     1       0.157  12.989  21.032  0.00  0.00    +0.000 OA
ATOM     23  H   UNL     1      -2.233  10.906  21.354  0.00  0.00    +0.000 HD
BRANCH  20  24
ATOM     24  C   UNL     1      -1.885  12.338  22.871  0.00  0.00    +0.000 C 
BRANCH  24  29
ATOM     25  C   UNL     1      -7.581  13.067  23.899  0.00  0.00    +0.000 C 
ATOM     26  C   UNL     1      -6.111  12.929  23.635  0.00  0.00    +0.000 A 
ATOM     27  C   UNL     1      -5.570  13.222  22.379  0.00  0.00    +0.000 A 
ATOM     28  C   UNL     1      -4.200  13.060  22.139  0.00  0.00    +0.000 A 
ATOM     29  C   UNL     1      -3.344  12.601  23.151  0.00  0.00    +0.000 A 
ATOM     30  C   UNL     1      -3.891  12.310  24.408  0.00  0.00    +0.000 A 
ATOM     31  C   UNL     1      -5.258  12.472  24.647  0.00  0.00    +0.000 A 
ENDBRANCH  24  29
ENDBRANCH  20  24
ENDBRANCH  19  21
ENDBRANCH   1  19
TORSDOF 5
ENDMDL
MODEL 6
REMARK VINA RESULT:      -7.7      3.579      9.652
REMARK  Name = 
REMARK  6 active torsions:
REMARK  status: ('A' for Active; 'I' for Inactive)
REMARK    1  A    between atoms: C_1  and  C_2
REMARK    2  A    between atoms: C_5  and  C_6
REMARK    3  A    between atoms: C_6  and  N_7
REMARK    4  A    between atoms: C_8  and  C_10
REMARK    5  A    between atoms: C_10  and  C_11
REMARK    6  A    between atoms: C_14  and  N_15
REMARK                            x       y       z     vdW  Elec       q    Type
REMARK                         _______ _______ _______ _____ _____    ______ ____
ROOT
ATOM      1  C   UNL     1       2.684   4.401  18.623  0.00  0.00    +0.000 A 
ATOM      2  C   UNL     1       1.750   4.022  19.597  0.00  0.00    +0.000 A 
ATOM      3  C   UNL     1       1.234   4.970  20.498  0.00  0.00    +0.000 A 
ATOM      4  C   UNL     1       1.635   6.312  20.449  0.00  0.00    +0.000 A 
ATOM      5  C   UNL     1       2.481   6.687  19.395  0.00  0.00    +0.000 A 
ATOM      6  C   UNL     1       3.009   5.751  18.502  0.00  0.00    +0.000 A 
ENDROOT
BRANCH   4   7
ATOM      7  N   UNL     1       1.265   7.201  21.472  0.00  0.00    +0.000 N 
ATOM      8  C   UNL     1       0.832   8.482  21.259  0.00  0.00    +0.000 C 
ATOM      9  N   UNL     1       0.422   9.025  20.151  0.00  0.00    +0.000 NA
ATOM     10  C   UNL     1       0.224  10.452  20.388  0.00  0.00    +0.000 C 
ATOM     11  C   UNL     1      -0.736  11.142  19.441  0.00  0.00    +0.000 C 
ATOM     12  S   UNL     1      -1.335  12.528  20.426  0.00  0.00    +0.000 S 
ATOM     13  O   UNL     1      -0.800  13.763  19.890  0.00  0.00    +0.000 OA
ATOM     14  O   UNL     1      -2.752  12.341  20.658  0.00  0.00    +0.000 OA
ATOM     15  C   UNL     1      -0.456  12.114  21.949  0.00  0.00    +0.000 C 
ATOM     16  C   UNL     1      -0.345  10.617  21.788  0.00  0.00    +0.000 C 
ATOM     17  S   UNL     1       0.802   9.552  22.684  0.00  0.00    +0.000 S 
ATOM     18  H   UNL     1       1.673   7.018  22.379  0.00  0.00    +0.000 HD
ENDBRANCH   4   7
BRANCH   1  19
ATOM     19  C   UNL     1       3.367   3.385  17.735  0.00  0.00    +0.000 C 
BRANCH  19  21
ATOM     20  N   UNL     1       5.690   4.006  18.042  0.00  0.00    +0.000 N 
ATOM     21  C   UNL     1       4.678   3.836  17.112  0.00  0.00    +0.000 C 
ATOM     22  O   UNL     1       4.842   4.017  15.910  0.00  0.00    +0.000 OA
ATOM     23  H   UNL     1       5.522   3.789  19.016  0.00  0.00    +0.000 HD
BRANCH  20  24
ATOM     24  C   UNL     1       7.052   4.300  17.647  0.00  0.00    +0.000 C 
BRANCH  24  29
ATOM     25  C   UNL     1       8.733   9.842  18.343  0.00  0.00    +0.000 C 
ATOM     26  C   UNL     1       8.266   8.424  18.197  0.00  0.00    +0.000 A 
ATOM     27  C   UNL     1       8.526   7.471  19.187  0.00  0.00    +0.000 A 
ATOM     28  C   UNL     1       8.108   6.144  19.025  0.00  0.00    +0.000 A 
ATOM     29  C   UNL     1       7.423   5.745  17.867  0.00  0.00    +0.000 A 
ATOM     30  C   UNL     1       7.164   6.704  16.880  0.00  0.00    +0.000 A 
ATOM     31  C   UNL     1       7.581   8.028  17.042  0.00  0.00    +0.000 A 
ENDBRANCH  24  29
ENDBRANCH  20  24
ENDBRANCH  19  21
ENDBRANCH   1  19
TORSDOF 5
ENDMDL
MODEL 7
REMARK VINA RESULT:      -7.7      0.561      1.370
REMARK  Name = 
REMARK  6 active torsions:
REMARK  status: ('A' for Active; 'I' for Inactive)
REMARK    1  A    between atoms: C_1  and  C_2
REMARK    2  A    between atoms: C_5  and  C_6
REMARK    3  A    between atoms: C_6  and  N_7
REMARK    4  A    between atoms: C_8  and  C_10
REMARK    5  A    between atoms: C_10  and  C_11
REMARK    6  A    between atoms: C_14  and  N_15
REMARK                            x       y       z     vdW  Elec       q    Type
REMARK                         _______ _______ _______ _____ _____    ______ ____
ROOT
ATOM      1  C   UNL     1       1.220   9.904  20.424  0.00  0.00    +0.000 A 
ATOM      2  C   UNL     1       1.485   9.601  19.082  0.00  0.00    +0.000 A 
ATOM      3  C   UNL     1       1.723   8.274  18.682  0.00  0.00    +0.000 A 
ATOM      4  C   UNL     1       1.700   7.222  19.608  0.00  0.00    +0.000 A 
ATOM      5  C   UNL     1       1.319   7.535  20.920  0.00  0.00    +0.000 A 
ATOM      6  C   UNL     1       1.094   8.851  21.330  0.00  0.00    +0.000 A 
ENDROOT
BRANCH   4   7
ATOM      7  N   UNL     1       2.129   5.938  19.232  0.00  0.00    +0.000 N 
ATOM      8  C   UNL     1       3.150   5.694  18.354  0.00  0.00    +0.000 C 
ATOM      9  N   UNL     1       4.066   6.514  17.928  0.00  0.00    +0.000 NA
ATOM     10  C   UNL     1       4.828   5.841  16.881  0.00  0.00    +0.000 C 
ATOM     11  C   UNL     1       6.226   6.376  16.647  0.00  0.00    +0.000 C 
ATOM     12  S   UNL     1       7.089   4.946  15.970  0.00  0.00    +0.000 S 
ATOM     13  O   UNL     1       7.373   5.176  14.569  0.00  0.00    +0.000 OA
ATOM     14  O   UNL     1       8.120   4.553  16.909  0.00  0.00    +0.000 OA
ATOM     15  C   UNL     1       5.722   3.774  16.113  0.00  0.00    +0.000 C 
ATOM     16  C   UNL     1       4.977   4.381  17.277  0.00  0.00    +0.000 C 
ATOM     17  S   UNL     1       3.263   4.033  17.716  0.00  0.00    +0.000 S 
ATOM     18  H   UNL     1       1.441   5.202  19.324  0.00  0.00    +0.000 HD
ENDBRANCH   4   7
BRANCH   1  19
ATOM     19  C   UNL     1       1.104  11.329  20.913  0.00  0.00    +0.000 C 
BRANCH  19  21
ATOM     20  N   UNL     1      -1.051  11.271  19.806  0.00  0.00    +0.000 N 
ATOM     21  C   UNL     1      -0.135  12.081  20.456  0.00  0.00    +0.000 C 
ATOM     22  O   UNL     1      -0.326  13.276  20.652  0.00  0.00    +0.000 OA
ATOM     23  H   UNL     1      -0.875  10.279  19.719  0.00  0.00    +0.000 HD
BRANCH  20  24
ATOM     24  C   UNL     1      -2.357  11.756  19.410  0.00  0.00    +0.000 C 
BRANCH  24  29
ATOM     25  C   UNL     1      -3.997   9.880  14.136  0.00  0.00    +0.000 C 
ATOM     26  C   UNL     1      -3.542  10.392  15.471  0.00  0.00    +0.000 A 
ATOM     27  C   UNL     1      -2.318   9.995  16.019  0.00  0.00    +0.000 A 
ATOM     28  C   UNL     1      -1.920  10.459  17.279  0.00  0.00    +0.000 A 
ATOM     29  C   UNL     1      -2.739  11.327  18.016  0.00  0.00    +0.000 A 
ATOM     30  C   UNL     1      -3.964  11.722  17.461  0.00  0.00    +0.000 A 
ATOM     31  C   UNL     1      -4.361  11.259  16.203  0.00  0.00    +0.000 A 
ENDBRANCH  24  29
ENDBRANCH  20  24
ENDBRANCH  19  21
ENDBRANCH   1  19
TORSDOF 5
ENDMDL
MODEL 8
REMARK VINA RESULT:      -7.7      4.600      9.386
REMARK  Name = 
REMARK  6 active torsions:
REMARK  status: ('A' for Active; 'I' for Inactive)
REMARK    1  A    between atoms: C_1  and  C_2
REMARK    2  A    between atoms: C_5  and  C_6
REMARK    3  A    between atoms: C_6  and  N_7
REMARK    4  A    between atoms: C_8  and  C_10
REMARK    5  A    between atoms: C_10  and  C_11
REMARK    6  A    between atoms: C_14  and  N_15
REMARK                            x       y       z     vdW  Elec       q    Type
REMARK                         _______ _______ _______ _____ _____    ______ ____
ROOT
ATOM      1  C   UNL     1       1.907   7.480  20.024  0.00  0.00    +0.000 A 
ATOM      2  C   UNL     1       2.247   7.903  18.731  0.00  0.00    +0.000 A 
ATOM      3  C   UNL     1       1.863   9.176  18.273  0.00  0.00    +0.000 A 
ATOM      4  C   UNL     1       1.137  10.053  19.090  0.00  0.00    +0.000 A 
ATOM      5  C   UNL     1       0.910   9.652  20.414  0.00  0.00    +0.000 A 
ATOM      6  C   UNL     1       1.275   8.385  20.875  0.00  0.00    +0.000 A 
ENDROOT
BRANCH   4   7
ATOM      7  N   UNL     1       0.594  11.234  18.556  0.00  0.00    +0.000 N 
ATOM      8  C   UNL     1       1.013  12.494  18.891  0.00  0.00    +0.000 C 
ATOM      9  N   UNL     1       2.104  12.848  19.502  0.00  0.00    +0.000 NA
ATOM     10  C   UNL     1       2.027  14.279  19.780  0.00  0.00    +0.000 C 
ATOM     11  C   UNL     1       3.357  14.979  19.973  0.00  0.00    +0.000 C 
ATOM     12  S   UNL     1       2.983  16.677  19.500  0.00  0.00    +0.000 S 
ATOM     13  O   UNL     1       3.007  17.519  20.679  0.00  0.00    +0.000 OA
ATOM     14  O   UNL     1       3.749  16.996  18.313  0.00  0.00    +0.000 OA
ATOM     15  C   UNL     1       1.269  16.398  19.006  0.00  0.00    +0.000 C 
ATOM     16  C   UNL     1       1.347  14.947  18.594  0.00  0.00    +0.000 C 
ATOM     17  S   UNL     1      -0.060  13.835  18.414  0.00  0.00    +0.000 S 
ATOM     18  H   UNL     1      -0.352  11.162  18.207  0.00  0.00    +0.000 HD
ENDBRANCH   4   7
BRANCH   1  19
ATOM     19  C   UNL     1       2.174   6.070  20.497  0.00  0.00    +0.000 C 
BRANCH  19  21
ATOM     20  N   UNL     1       3.841   4.558  19.596  0.00  0.00    +0.000 N 
ATOM     21  C   UNL     1       2.571   5.079  19.415  0.00  0.00    +0.000 C 
ATOM     22  O   UNL     1       1.845   4.752  18.482  0.00  0.00    +0.000 OA
ATOM     23  H   UNL     1       4.380   4.815  20.412  0.00  0.00    +0.000 HD
BRANCH  20  24
ATOM     24  C   UNL     1       4.361   3.498  18.756  0.00  0.00    +0.000 C 
BRANCH  24  29
ATOM     25  C   UNL     1       7.404   5.242  14.095  0.00  0.00    +0.000 C 
ATOM     26  C   UNL     1       6.616   4.841  15.307  0.00  0.00    +0.000 A 
ATOM     27  C   UNL     1       7.175   4.904  16.588  0.00  0.00    +0.000 A 
ATOM     28  C   UNL     1       6.438   4.499  17.707  0.00  0.00    +0.000 A 
ATOM     29  C   UNL     1       5.126   4.021  17.567  0.00  0.00    +0.000 A 
ATOM     30  C   UNL     1       4.571   3.961  16.282  0.00  0.00    +0.000 A 
ATOM     31  C   UNL     1       5.307   4.366  15.165  0.00  0.00    +0.000 A 
ENDBRANCH  24  29
ENDBRANCH  20  24
ENDBRANCH  19  21
ENDBRANCH   1  19
TORSDOF 5
ENDMDL
MODEL 9
REMARK VINA RESULT:      -7.6      6.562     10.387
REMARK  Name = 
REMARK  6 active torsions:
REMARK  status: ('A' for Active; 'I' for Inactive)
REMARK    1  A    between atoms: C_1  and  C_2
REMARK    2  A    between atoms: C_5  and  C_6
REMARK    3  A    between atoms: C_6  and  N_7
REMARK    4  A    between atoms: C_8  and  C_10
REMARK    5  A    between atoms: C_10  and  C_11
REMARK    6  A    between atoms: C_14  and  N_15
REMARK                            x       y       z     vdW  Elec       q    Type
REMARK                         _______ _______ _______ _____ _____    ______ ____
ROOT
ATOM      1  C   UNL     1       8.470   8.956  18.483  0.00  0.00    +0.000 A 
ATOM      2  C   UNL     1       9.287   9.550  19.455  0.00  0.00    +0.000 A 
ATOM      3  C   UNL     1       9.632  10.910  19.364  0.00  0.00    +0.000 A 
ATOM      4  C   UNL     1       9.170  11.707  18.308  0.00  0.00    +0.000 A 
ATOM      5  C   UNL     1       8.263  11.119  17.414  0.00  0.00    +0.000 A 
ATOM      6  C   UNL     1       7.925   9.766  17.488  0.00  0.00    +0.000 A 
ENDROOT
BRANCH   4   7
ATOM      7  N   UNL     1       9.678  13.004  18.123  0.00  0.00    +0.000 N 
ATOM      8  C   UNL     1       9.022  14.147  18.495  0.00  0.00    +0.000 C 
ATOM      9  N   UNL     1       8.005  14.273  19.295  0.00  0.00    +0.000 NA
ATOM     10  C   UNL     1       7.560  15.663  19.249  0.00  0.00    +0.000 C 
ATOM     11  C   UNL     1       6.785  16.139  20.461  0.00  0.00    +0.000 C 
ATOM     12  S   UNL     1       7.095  17.914  20.456  0.00  0.00    +0.000 S 
ATOM     13  O   UNL     1       5.876  18.612  20.102  0.00  0.00    +0.000 OA
ATOM     14  O   UNL     1       7.853  18.246  21.645  0.00  0.00    +0.000 OA
ATOM     15  C   UNL     1       8.222  17.939  19.046  0.00  0.00    +0.000 C 
ATOM     16  C   UNL     1       8.794  16.545  19.142  0.00  0.00    +0.000 C 
ATOM     17  S   UNL     1       9.648  15.671  17.816  0.00  0.00    +0.000 S 
ATOM     18  H   UNL     1      10.357  13.106  17.381  0.00  0.00    +0.000 HD
ENDBRANCH   4   7
BRANCH   1  19
ATOM     19  C   UNL     1       8.199   7.469  18.469  0.00  0.00    +0.000 C 
BRANCH  19  21
ATOM     20  N   UNL     1       5.944   7.007  17.711  0.00  0.00    +0.000 N 
ATOM     21  C   UNL     1       7.282   6.981  17.359  0.00  0.00    +0.000 C 
ATOM     22  O   UNL     1       7.672   6.616  16.255  0.00  0.00    +0.000 OA
ATOM     23  H   UNL     1       5.666   7.371  18.613  0.00  0.00    +0.000 HD
BRANCH  20  24
ATOM     24  C   UNL     1       4.895   6.713  16.757  0.00  0.00    +0.000 C 
BRANCH  24  29
ATOM     25  C   UNL     1       1.615   2.305  18.715  0.00  0.00    +0.000 C 
ATOM     26  C   UNL     1       2.443   3.429  18.166  0.00  0.00    +0.000 A 
ATOM     27  C   UNL     1       3.621   3.179  17.455  0.00  0.00    +0.000 A 
ATOM     28  C   UNL     1       4.399   4.238  16.973  0.00  0.00    +0.000 A 
ATOM     29  C   UNL     1       4.014   5.569  17.194  0.00  0.00    +0.000 A 
ATOM     30  C   UNL     1       2.832   5.814  17.905  0.00  0.00    +0.000 A 
ATOM     31  C   UNL     1       2.056   4.755  18.386  0.00  0.00    +0.000 A 
ENDBRANCH  24  29
ENDBRANCH  20  24
ENDBRANCH  19  21
ENDBRANCH   1  19
TORSDOF 5
ENDMDL
