MODEL 1
REMARK VINA RESULT:      -8.6      0.000      0.000
REMARK  Name = 
REMARK  4 active torsions:
REMARK  status: ('A' for Active; 'I' for Inactive)
REMARK    1  A    between atoms: N_3  and  N_4
REMARK    2  A    between atoms: C_5  and  C_7
REMARK    3  A    between atoms: N_12  and  C_13
REMARK    4  A    between atoms: C_17  and  C_18
REMARK                            x       y       z     vdW  Elec       q    Type
REMARK                         _______ _______ _______ _____ _____    ______ ____
ROOT
ATOM      1  O   UNL     1       5.512   5.983  19.354  0.00  0.00    +0.000 OA
ATOM      2  C   UNL     1       6.193   5.081  18.871  0.00  0.00    +0.000 C 
ATOM      3  N   UNL     1       7.547   5.264  18.624  0.00  0.00    +0.000 N 
ATOM      4  N   UNL     1       5.781   3.798  18.574  0.00  0.00    +0.000 N 
ATOM      5  H   UNL     1       7.967   4.794  17.825  0.00  0.00    +0.000 HD
ATOM      6  H   UNL     1       6.517   3.118  18.450  0.00  0.00    +0.000 HD
ENDROOT
BRANCH   4   7
ATOM      7  C   UNL     1       4.456   3.311  18.648  0.00  0.00    +0.000 A 
ATOM      8  C   UNL     1       3.904   2.485  17.668  0.00  0.00    +0.000 A 
ATOM      9  C   UNL     1       2.606   1.988  17.800  0.00  0.00    +0.000 A 
ATOM     10  C   UNL     1       1.840   2.317  18.914  0.00  0.00    +0.000 A 
ATOM     11  C   UNL     1       2.363   3.158  19.906  0.00  0.00    +0.000 A 
ATOM     12  C   UNL     1       3.679   3.645  19.766  0.00  0.00    +0.000 A 
BRANCH  11  13
ATOM     13  C   UNL     1       1.526   3.538  21.106  0.00  0.00    +0.000 C 
ATOM     14  F   UNL     1       2.259   3.983  22.164  0.00  0.00    +0.000 F 
ATOM     15  F   UNL     1       0.638   4.528  20.825  0.00  0.00    +0.000 F 
ATOM     16  F   UNL     1       0.788   2.494  21.577  0.00  0.00    +0.000 F 
ENDBRANCH  11  13
ENDBRANCH   4   7
BRANCH   3  17
ATOM     17  N   UNL     1       8.050   6.563  18.858  0.00  0.00    +0.000 N 
ATOM     18  C   UNL     1       7.932   7.519  17.873  0.00  0.00    +0.000 C 
ATOM     19  O   UNL     1       7.454   7.253  16.770  0.00  0.00    +0.000 OA
ATOM     20  H   UNL     1       8.245   6.796  19.829  0.00  0.00    +0.000 HD
BRANCH  18  21
ATOM     21  C   UNL     1       8.406   8.841  18.227  0.00  0.00    +0.000 A 
ATOM     22  C   UNL     1       8.335  10.060  17.569  0.00  0.00    +0.000 A 
ATOM     23  C   UNL     1       8.964  11.038  18.380  0.00  0.00    +0.000 A 
ATOM     24  C   UNL     1       9.399  10.404  19.519  0.00  0.00    +0.000 A 
ATOM     25  N   UNL     1       9.053   9.084  19.423  0.00  0.00    +0.000 N 
ATOM     26  H   UNL     1       9.232   8.370  20.120  0.00  0.00    +0.000 HD
ENDBRANCH  18  21
ENDBRANCH   3  17
TORSDOF 4
ENDMDL
MODEL 2
REMARK VINA RESULT:      -8.6      0.453      1.010
REMARK  Name = 
REMARK  4 active torsions:
REMARK  status: ('A' for Active; 'I' for Inactive)
REMARK    1  A    between atoms: N_3  and  N_4
REMARK    2  A    between atoms: C_5  and  C_7
REMARK    3  A    between atoms: N_12  and  C_13
REMARK    4  A    between atoms: C_17  and  C_18
REMARK                            x       y       z     vdW  Elec       q    Type
REMARK                         _______ _______ _______ _____ _____    ______ ____
ROOT
ATOM      1  O   UNL     1       5.523   5.974  19.359  0.00  0.00    +0.000 OA
ATOM      2  C   UNL     1       6.220   5.067  18.910  0.00  0.00    +0.000 C 
ATOM      3  N   UNL     1       7.577   5.254  18.683  0.00  0.00    +0.000 N 
ATOM      4  N   UNL     1       5.824   3.774  18.636  0.00  0.00    +0.000 N 
ATOM      5  H   UNL     1       8.015   4.769  17.902  0.00  0.00    +0.000 HD
ATOM      6  H   UNL     1       6.567   3.096  18.541  0.00  0.00    +0.000 HD
ENDROOT
BRANCH   4   7
ATOM      7  C   UNL     1       4.502   3.277  18.698  0.00  0.00    +0.000 A 
ATOM      8  C   UNL     1       3.842   2.756  17.584  0.00  0.00    +0.000 A 
ATOM      9  C   UNL     1       2.551   2.235  17.697  0.00  0.00    +0.000 A 
ATOM     10  C   UNL     1       1.902   2.234  18.926  0.00  0.00    +0.000 A 
ATOM     11  C   UNL     1       2.533   2.765  20.059  0.00  0.00    +0.000 A 
ATOM     12  C   UNL     1       3.841   3.280  19.935  0.00  0.00    +0.000 A 
BRANCH  11  13
ATOM     13  C   UNL     1       1.822   2.789  21.392  0.00  0.00    +0.000 C 
ATOM     14  F   UNL     1       0.472   2.938  21.288  0.00  0.00    +0.000 F 
ATOM     15  F   UNL     1       2.017   1.646  22.103  0.00  0.00    +0.000 F 
ATOM     16  F   UNL     1       2.248   3.806  22.192  0.00  0.00    +0.000 F 
ENDBRANCH  11  13
ENDBRANCH   4   7
BRANCH   3  17
ATOM     17  N   UNL     1       8.066   6.562  18.895  0.00  0.00    +0.000 N 
ATOM     18  C   UNL     1       7.931   7.502  17.896  0.00  0.00    +0.000 C 
ATOM     19  O   UNL     1       7.450   7.215  16.799  0.00  0.00    +0.000 OA
ATOM     20  H   UNL     1       8.263   6.812  19.861  0.00  0.00    +0.000 HD
BRANCH  18  21
ATOM     21  C   UNL     1       8.391   8.835  18.227  0.00  0.00    +0.000 A 
ATOM     22  C   UNL     1       8.298  10.044  17.554  0.00  0.00    +0.000 A 
ATOM     23  C   UNL     1       8.921  11.041  18.345  0.00  0.00    +0.000 A 
ATOM     24  C   UNL     1       9.375  10.429  19.489  0.00  0.00    +0.000 A 
ATOM     25  N   UNL     1       9.045   9.103  19.414  0.00  0.00    +0.000 N 
ATOM     26  H   UNL     1       9.240   8.401  20.119  0.00  0.00    +0.000 HD
ENDBRANCH  18  21
ENDBRANCH   3  17
TORSDOF 4
ENDMDL
MODEL 3
REMARK VINA RESULT:      -8.0      0.597      1.138
REMARK  Name = 
REMARK  4 active torsions:
REMARK  status: ('A' for Active; 'I' for Inactive)
REMARK    1  A    between atoms: N_3  and  N_4
REMARK    2  A    between atoms: C_5  and  C_7
REMARK    3  A    between atoms: N_12  and  C_13
REMARK    4  A    between atoms: C_17  and  C_18
REMARK                            x       y       z     vdW  Elec       q    Type
REMARK                         _______ _______ _______ _____ _____    ______ ____
ROOT
ATOM      1  O   UNL     1       5.513   6.065  19.311  0.00  0.00    +0.000 OA
ATOM      2  C   UNL     1       6.208   5.157  18.858  0.00  0.00    +0.000 C 
ATOM      3  N   UNL     1       7.567   5.339  18.643  0.00  0.00    +0.000 N 
ATOM      4  N   UNL     1       5.805   3.870  18.567  0.00  0.00    +0.000 N 
ATOM      5  H   UNL     1       8.008   4.858  17.862  0.00  0.00    +0.000 HD
ATOM      6  H   UNL     1       6.545   3.189  18.472  0.00  0.00    +0.000 HD
ENDROOT
BRANCH   4   7
ATOM      7  C   UNL     1       4.480   3.381  18.614  0.00  0.00    +0.000 A 
ATOM      8  C   UNL     1       3.935   2.588  17.603  0.00  0.00    +0.000 A 
ATOM      9  C   UNL     1       2.636   2.088  17.708  0.00  0.00    +0.000 A 
ATOM     10  C   UNL     1       1.861   2.382  18.825  0.00  0.00    +0.000 A 
ATOM     11  C   UNL     1       2.375   3.190  19.848  0.00  0.00    +0.000 A 
ATOM     12  C   UNL     1       3.693   3.680  19.736  0.00  0.00    +0.000 A 
BRANCH  11  13
ATOM     13  C   UNL     1       1.528   3.532  21.052  0.00  0.00    +0.000 C 
ATOM     14  F   UNL     1       0.770   2.492  21.499  0.00  0.00    +0.000 F 
ATOM     15  F   UNL     1       2.276   3.931  22.115  0.00  0.00    +0.000 F 
ATOM     16  F   UNL     1       0.656   4.548  20.803  0.00  0.00    +0.000 F 
ENDBRANCH  11  13
ENDBRANCH   4   7
BRANCH   3  17
ATOM     17  N   UNL     1       8.063   6.641  18.873  0.00  0.00    +0.000 N 
ATOM     18  C   UNL     1       7.925   7.597  17.890  0.00  0.00    +0.000 C 
ATOM     19  O   UNL     1       7.434   7.329  16.793  0.00  0.00    +0.000 OA
ATOM     20  H   UNL     1       8.268   6.875  19.841  0.00  0.00    +0.000 HD
BRANCH  18  21
ATOM     21  C   UNL     1       8.392   8.923  18.239  0.00  0.00    +0.000 A 
ATOM     22  C   UNL     1       9.190   9.384  19.275  0.00  0.00    +0.000 A 
ATOM     23  C   UNL     1       9.335  10.787  19.132  0.00  0.00    +0.000 A 
ATOM     24  C   UNL     1       8.633  11.157  18.010  0.00  0.00    +0.000 A 
ATOM     25  N   UNL     1       8.074  10.029  17.474  0.00  0.00    +0.000 N 
ATOM     26  H   UNL     1       7.509   9.987  16.633  0.00  0.00    +0.000 HD
ENDBRANCH  18  21
ENDBRANCH   3  17
TORSDOF 4
ENDMDL
MODEL 4
REMARK VINA RESULT:      -8.0      5.994      7.297
REMARK  Name = 
REMARK  4 active torsions:
REMARK  status: ('A' for Active; 'I' for Inactive)
REMARK    1  A    between atoms: N_3  and  N_4
REMARK    2  A    between atoms: C_5  and  C_7
REMARK    3  A    between atoms: N_12  and  C_13
REMARK    4  A    between atoms: C_17  and  C_18
REMARK                            x       y       z     vdW  Elec       q    Type
REMARK                         _______ _______ _______ _____ _____    ______ ____
ROOT
ATOM      1  O   UNL     1       2.321   7.962  18.930  0.00  0.00    +0.000 OA
ATOM      2  C   UNL     1       2.329   7.216  19.908  0.00  0.00    +0.000 C 
ATOM      3  N   UNL     1       1.691   7.578  21.086  0.00  0.00    +0.000 N 
ATOM      4  N   UNL     1       2.876   5.952  19.982  0.00  0.00    +0.000 N 
ATOM      5  H   UNL     1       2.089   7.273  21.973  0.00  0.00    +0.000 HD
ATOM      6  H   UNL     1       2.557   5.379  20.750  0.00  0.00    +0.000 HD
ENDROOT
BRANCH   4   7
ATOM      7  C   UNL     1       3.648   5.318  18.982  0.00  0.00    +0.000 A 
ATOM      8  C   UNL     1       3.081   4.504  17.999  0.00  0.00    +0.000 A 
ATOM      9  C   UNL     1       3.873   3.932  17.001  0.00  0.00    +0.000 A 
ATOM     10  C   UNL     1       5.244   4.161  16.978  0.00  0.00    +0.000 A 
ATOM     11  C   UNL     1       5.843   4.960  17.962  0.00  0.00    +0.000 A 
ATOM     12  C   UNL     1       5.031   5.542  18.958  0.00  0.00    +0.000 A 
BRANCH  11  13
ATOM     13  C   UNL     1       7.336   5.192  17.955  0.00  0.00    +0.000 C 
ATOM     14  F   UNL     1       8.045   4.168  17.404  0.00  0.00    +0.000 F 
ATOM     15  F   UNL     1       7.684   6.305  17.255  0.00  0.00    +0.000 F 
ATOM     16  F   UNL     1       7.842   5.363  19.208  0.00  0.00    +0.000 F 
ENDBRANCH  11  13
ENDBRANCH   4   7
BRANCH   3  17
ATOM     17  N   UNL     1       1.138   8.877  21.119  0.00  0.00    +0.000 N 
ATOM     18  C   UNL     1      -0.100   9.068  21.692  0.00  0.00    +0.000 C 
ATOM     19  O   UNL     1      -0.765   8.125  22.122  0.00  0.00    +0.000 OA
ATOM     20  H   UNL     1       1.788   9.641  20.947  0.00  0.00    +0.000 HD
BRANCH  18  21
ATOM     21  C   UNL     1      -0.556  10.442  21.751  0.00  0.00    +0.000 A 
ATOM     22  C   UNL     1      -1.105  11.196  22.777  0.00  0.00    +0.000 A 
ATOM     23  C   UNL     1      -1.365  12.498  22.281  0.00  0.00    +0.000 A 
ATOM     24  C   UNL     1      -0.963  12.520  20.967  0.00  0.00    +0.000 A 
ATOM     25  N   UNL     1      -0.469  11.282  20.657  0.00  0.00    +0.000 N 
ATOM     26  H   UNL     1      -0.087  11.001  19.762  0.00  0.00    +0.000 HD
ENDBRANCH  18  21
ENDBRANCH   3  17
TORSDOF 4
ENDMDL
MODEL 5
REMARK VINA RESULT:      -7.9      2.466      3.454
REMARK  Name = 
REMARK  4 active torsions:
REMARK  status: ('A' for Active; 'I' for Inactive)
REMARK    1  A    between atoms: N_3  and  N_4
REMARK    2  A    between atoms: C_5  and  C_7
REMARK    3  A    between atoms: N_12  and  C_13
REMARK    4  A    between atoms: C_17  and  C_18
REMARK                            x       y       z     vdW  Elec       q    Type
REMARK                         _______ _______ _______ _____ _____    ______ ____
ROOT
ATOM      1  O   UNL     1       7.857   7.025  18.372  0.00  0.00    +0.000 OA
ATOM      2  C   UNL     1       7.277   7.700  17.524  0.00  0.00    +0.000 C 
ATOM      3  N   UNL     1       7.653   9.013  17.278  0.00  0.00    +0.000 N 
ATOM      4  N   UNL     1       6.268   7.284  16.680  0.00  0.00    +0.000 N 
ATOM      5  H   UNL     1       6.937   9.686  17.010  0.00  0.00    +0.000 HD
ATOM      6  H   UNL     1       6.101   7.867  15.872  0.00  0.00    +0.000 HD
ENDROOT
BRANCH   4   7
ATOM      7  C   UNL     1       5.616   6.030  16.715  0.00  0.00    +0.000 A 
ATOM      8  C   UNL     1       6.161   4.883  16.135  0.00  0.00    +0.000 A 
ATOM      9  C   UNL     1       5.507   3.653  16.231  0.00  0.00    +0.000 A 
ATOM     10  C   UNL     1       4.293   3.557  16.904  0.00  0.00    +0.000 A 
ATOM     11  C   UNL     1       3.714   4.695  17.482  0.00  0.00    +0.000 A 
ATOM     12  C   UNL     1       4.390   5.929  17.388  0.00  0.00    +0.000 A 
BRANCH  11  13
ATOM     13  C   UNL     1       2.384   4.599  18.193  0.00  0.00    +0.000 C 
ATOM     14  F   UNL     1       2.324   3.590  19.105  0.00  0.00    +0.000 F 
ATOM     15  F   UNL     1       2.077   5.735  18.873  0.00  0.00    +0.000 F 
ATOM     16  F   UNL     1       1.349   4.385  17.333  0.00  0.00    +0.000 F 
ENDBRANCH  11  13
ENDBRANCH   4   7
BRANCH   3  17
ATOM     17  N   UNL     1       8.651   9.542  18.125  0.00  0.00    +0.000 N 
ATOM     18  C   UNL     1       8.845  10.905  18.171  0.00  0.00    +0.000 C 
ATOM     19  O   UNL     1       8.210  11.672  17.445  0.00  0.00    +0.000 OA
ATOM     20  H   UNL     1       9.003   8.913  18.844  0.00  0.00    +0.000 HD
BRANCH  18  21
ATOM     21  C   UNL     1       9.835  11.364  19.122  0.00  0.00    +0.000 A 
ATOM     22  C   UNL     1      11.209  11.526  19.028  0.00  0.00    +0.000 A 
ATOM     23  C   UNL     1      11.684  12.015  20.270  0.00  0.00    +0.000 A 
ATOM     24  C   UNL     1      10.595  12.151  21.097  0.00  0.00    +0.000 A 
ATOM     25  N   UNL     1       9.485  11.765  20.397  0.00  0.00    +0.000 N 
ATOM     26  H   UNL     1       8.532  11.769  20.743  0.00  0.00    +0.000 HD
ENDBRANCH  18  21
ENDBRANCH   3  17
TORSDOF 4
ENDMDL
MODEL 6
REMARK VINA RESULT:      -7.9      2.479      3.568
REMARK  Name = 
REMARK  4 active torsions:
REMARK  status: ('A' for Active; 'I' for Inactive)
REMARK    1  A    between atoms: N_3  and  N_4
REMARK    2  A    between atoms: C_5  and  C_7
REMARK    3  A    between atoms: N_12  and  C_13
REMARK    4  A    between atoms: C_17  and  C_18
REMARK                            x       y       z     vdW  Elec       q    Type
REMARK                         _______ _______ _______ _____ _____    ______ ____
ROOT
ATOM      1  O   UNL     1       7.858   7.044  18.402  0.00  0.00    +0.000 OA
ATOM      2  C   UNL     1       7.270   7.731  17.569  0.00  0.00    +0.000 C 
ATOM      3  N   UNL     1       7.653   9.043  17.328  0.00  0.00    +0.000 N 
ATOM      4  N   UNL     1       6.245   7.330  16.737  0.00  0.00    +0.000 N 
ATOM      5  H   UNL     1       6.938   9.724  17.077  0.00  0.00    +0.000 HD
ATOM      6  H   UNL     1       6.070   7.922  15.937  0.00  0.00    +0.000 HD
ENDROOT
BRANCH   4   7
ATOM      7  C   UNL     1       5.584   6.081  16.772  0.00  0.00    +0.000 A 
ATOM      8  C   UNL     1       6.132   4.925  16.212  0.00  0.00    +0.000 A 
ATOM      9  C   UNL     1       5.467   3.701  16.307  0.00  0.00    +0.000 A 
ATOM     10  C   UNL     1       4.241   3.618  16.959  0.00  0.00    +0.000 A 
ATOM     11  C   UNL     1       3.660   4.765  17.516  0.00  0.00    +0.000 A 
ATOM     12  C   UNL     1       4.346   5.994  17.424  0.00  0.00    +0.000 A 
BRANCH  11  13
ATOM     13  C   UNL     1       2.317   4.685  18.204  0.00  0.00    +0.000 C 
ATOM     14  F   UNL     1       1.269   4.554  17.344  0.00  0.00    +0.000 F 
ATOM     15  F   UNL     1       2.234   3.628  19.056  0.00  0.00    +0.000 F 
ATOM     16  F   UNL     1       2.048   5.792  18.952  0.00  0.00    +0.000 F 
ENDBRANCH  11  13
ENDBRANCH   4   7
BRANCH   3  17
ATOM     17  N   UNL     1       8.668   9.557  18.165  0.00  0.00    +0.000 N 
ATOM     18  C   UNL     1       8.909  10.914  18.178  0.00  0.00    +0.000 C 
ATOM     19  O   UNL     1       8.301  11.684  17.434  0.00  0.00    +0.000 OA
ATOM     20  H   UNL     1       8.997   8.934  18.898  0.00  0.00    +0.000 HD
BRANCH  18  21
ATOM     21  C   UNL     1       9.914  11.360  19.120  0.00  0.00    +0.000 A 
ATOM     22  C   UNL     1       9.846  11.691  20.465  0.00  0.00    +0.000 A 
ATOM     23  C   UNL     1      11.144  12.062  20.897  0.00  0.00    +0.000 A 
ATOM     24  C   UNL     1      11.982  11.943  19.815  0.00  0.00    +0.000 A 
ATOM     25  N   UNL     1      11.237  11.513  18.751  0.00  0.00    +0.000 N 
ATOM     26  H   UNL     1      11.585  11.323  17.818  0.00  0.00    +0.000 HD
ENDBRANCH  18  21
ENDBRANCH   3  17
TORSDOF 4
ENDMDL
MODEL 7
REMARK VINA RESULT:      -7.9      5.956      7.102
REMARK  Name = 
REMARK  4 active torsions:
REMARK  status: ('A' for Active; 'I' for Inactive)
REMARK    1  A    between atoms: N_3  and  N_4
REMARK    2  A    between atoms: C_5  and  C_7
REMARK    3  A    between atoms: N_12  and  C_13
REMARK    4  A    between atoms: C_17  and  C_18
REMARK                            x       y       z     vdW  Elec       q    Type
REMARK                         _______ _______ _______ _____ _____    ______ ____
ROOT
ATOM      1  O   UNL     1       2.035   7.710  18.761  0.00  0.00    +0.000 OA
ATOM      2  C   UNL     1       2.235   7.116  19.819  0.00  0.00    +0.000 C 
ATOM      3  N   UNL     1       1.623   7.527  20.995  0.00  0.00    +0.000 N 
ATOM      4  N   UNL     1       2.992   5.977  20.000  0.00  0.00    +0.000 N 
ATOM      5  H   UNL     1       2.124   7.414  21.874  0.00  0.00    +0.000 HD
ATOM      6  H   UNL     1       2.826   5.470  20.858  0.00  0.00    +0.000 HD
ENDROOT
BRANCH   4   7
ATOM      7  C   UNL     1       3.793   5.345  19.022  0.00  0.00    +0.000 A 
ATOM      8  C   UNL     1       3.257   4.519  18.032  0.00  0.00    +0.000 A 
ATOM      9  C   UNL     1       4.077   3.948  17.056  0.00  0.00    +0.000 A 
ATOM     10  C   UNL     1       5.447   4.191  17.063  0.00  0.00    +0.000 A 
ATOM     11  C   UNL     1       6.015   5.003  18.054  0.00  0.00    +0.000 A 
ATOM     12  C   UNL     1       5.175   5.583  19.028  0.00  0.00    +0.000 A 
BRANCH  11  13
ATOM     13  C   UNL     1       7.505   5.250  18.079  0.00  0.00    +0.000 C 
ATOM     14  F   UNL     1       7.884   6.371  17.404  0.00  0.00    +0.000 F 
ATOM     15  F   UNL     1       7.984   5.397  19.343  0.00  0.00    +0.000 F 
ATOM     16  F   UNL     1       8.212   4.226  17.526  0.00  0.00    +0.000 F 
ENDBRANCH  11  13
ENDBRANCH   4   7
BRANCH   3  17
ATOM     17  N   UNL     1       0.861   8.713  20.915  0.00  0.00    +0.000 N 
ATOM     18  C   UNL     1       0.896   9.608  21.962  0.00  0.00    +0.000 C 
ATOM     19  O   UNL     1       1.528   9.372  22.993  0.00  0.00    +0.000 OA
ATOM     20  H   UNL     1       0.526   8.965  19.988  0.00  0.00    +0.000 HD
BRANCH  18  21
ATOM     21  C   UNL     1       0.146  10.831  21.764  0.00  0.00    +0.000 A 
ATOM     22  C   UNL     1      -0.828  11.458  22.526  0.00  0.00    +0.000 A 
ATOM     23  C   UNL     1      -1.222  12.643  21.855  0.00  0.00    +0.000 A 
ATOM     24  C   UNL     1      -0.477  12.725  20.703  0.00  0.00    +0.000 A 
ATOM     25  N   UNL     1       0.349  11.635  20.659  0.00  0.00    +0.000 N 
ATOM     26  H   UNL     1       1.024  11.430  19.931  0.00  0.00    +0.000 HD
ENDBRANCH  18  21
ENDBRANCH   3  17
TORSDOF 4
ENDMDL
MODEL 8
REMARK VINA RESULT:      -7.9      5.952      7.218
REMARK  Name = 
REMARK  4 active torsions:
REMARK  status: ('A' for Active; 'I' for Inactive)
REMARK    1  A    between atoms: N_3  and  N_4
REMARK    2  A    between atoms: C_5  and  C_7
REMARK    3  A    between atoms: N_12  and  C_13
REMARK    4  A    between atoms: C_17  and  C_18
REMARK                            x       y       z     vdW  Elec       q    Type
REMARK                         _______ _______ _______ _____ _____    ______ ____
ROOT
ATOM      1  O   UNL     1       2.352   7.943  19.066  0.00  0.00    +0.000 OA
ATOM      2  C   UNL     1       2.350   7.136  19.993  0.00  0.00    +0.000 C 
ATOM      3  N   UNL     1       1.785   7.459  21.219  0.00  0.00    +0.000 N 
ATOM      4  N   UNL     1       2.812   5.836  19.963  0.00  0.00    +0.000 N 
ATOM      5  H   UNL     1       2.197   7.072  22.066  0.00  0.00    +0.000 HD
ATOM      6  H   UNL     1       2.486   5.236  20.707  0.00  0.00    +0.000 HD
ENDROOT
BRANCH   4   7
ATOM      7  C   UNL     1       3.498   5.221  18.891  0.00  0.00    +0.000 A 
ATOM      8  C   UNL     1       2.870   4.348  18.000  0.00  0.00    +0.000 A 
ATOM      9  C   UNL     1       3.573   3.795  16.927  0.00  0.00    +0.000 A 
ATOM     10  C   UNL     1       4.915   4.104  16.736  0.00  0.00    +0.000 A 
ATOM     11  C   UNL     1       5.575   4.964  17.624  0.00  0.00    +0.000 A 
ATOM     12  C   UNL     1       4.853   5.525  18.698  0.00  0.00    +0.000 A 
BRANCH  11  13
ATOM     13  C   UNL     1       7.040   5.283  17.434  0.00  0.00    +0.000 C 
ATOM     14  F   UNL     1       7.469   6.343  18.173  0.00  0.00    +0.000 F 
ATOM     15  F   UNL     1       7.845   4.241  17.774  0.00  0.00    +0.000 F 
ATOM     16  F   UNL     1       7.343   5.584  16.140  0.00  0.00    +0.000 F 
ENDBRANCH  11  13
ENDBRANCH   4   7
BRANCH   3  17
ATOM     17  N   UNL     1       1.323   8.787  21.359  0.00  0.00    +0.000 N 
ATOM     18  C   UNL     1       0.032   9.010  21.784  0.00  0.00    +0.000 C 
ATOM     19  O   UNL     1      -0.751   8.081  21.986  0.00  0.00    +0.000 OA
ATOM     20  H   UNL     1       2.041   9.507  21.383  0.00  0.00    +0.000 HD
BRANCH  18  21
ATOM     21  C   UNL     1      -0.333  10.399  21.972  0.00  0.00    +0.000 A 
ATOM     22  C   UNL     1      -1.124  11.032  22.918  0.00  0.00    +0.000 A 
ATOM     23  C   UNL     1      -1.136  12.420  22.630  0.00  0.00    +0.000 A 
ATOM     24  C   UNL     1      -0.347  12.611  21.521  0.00  0.00    +0.000 A 
ATOM     25  N   UNL     1       0.140  11.392  21.135  0.00  0.00    +0.000 N 
ATOM     26  H   UNL     1       0.761  11.220  20.353  0.00  0.00    +0.000 HD
ENDBRANCH  18  21
ENDBRANCH   3  17
TORSDOF 4
ENDMDL
MODEL 9
REMARK VINA RESULT:      -7.9      7.002      8.072
REMARK  Name = 
REMARK  4 active torsions:
REMARK  status: ('A' for Active; 'I' for Inactive)
REMARK    1  A    between atoms: N_3  and  N_4
REMARK    2  A    between atoms: C_5  and  C_7
REMARK    3  A    between atoms: N_12  and  C_13
REMARK    4  A    between atoms: C_17  and  C_18
REMARK                            x       y       z     vdW  Elec       q    Type
REMARK                         _______ _______ _______ _____ _____    ______ ____
ROOT
ATOM      1  O   UNL     1      -0.508   8.254  21.274  0.00  0.00    +0.000 OA
ATOM      2  C   UNL     1       0.633   8.507  21.656  0.00  0.00    +0.000 C 
ATOM      3  N   UNL     1       0.867   9.505  22.591  0.00  0.00    +0.000 N 
ATOM      4  N   UNL     1       1.792   7.848  21.300  0.00  0.00    +0.000 N 
ATOM      5  H   UNL     1       1.730  10.043  22.529  0.00  0.00    +0.000 HD
ATOM      6  H   UNL     1       2.586   7.998  21.906  0.00  0.00    +0.000 HD
ENDROOT
BRANCH   4   7
ATOM      7  C   UNL     1       1.906   6.831  20.325  0.00  0.00    +0.000 A 
ATOM      8  C   UNL     1       2.394   7.076  19.039  0.00  0.00    +0.000 A 
ATOM      9  C   UNL     1       2.533   6.035  18.119  0.00  0.00    +0.000 A 
ATOM     10  C   UNL     1       2.180   4.737  18.470  0.00  0.00    +0.000 A 
ATOM     11  C   UNL     1       1.672   4.465  19.748  0.00  0.00    +0.000 A 
ATOM     12  C   UNL     1       1.546   5.522  20.674  0.00  0.00    +0.000 A 
BRANCH  11  13
ATOM     13  C   UNL     1       1.265   3.060  20.127  0.00  0.00    +0.000 C 
ATOM     14  F   UNL     1       2.240   2.133  19.917  0.00  0.00    +0.000 F 
ATOM     15  F   UNL     1       0.927   2.955  21.440  0.00  0.00    +0.000 F 
ATOM     16  F   UNL     1       0.181   2.625  19.424  0.00  0.00    +0.000 F 
ENDBRANCH  11  13
ENDBRANCH   4   7
BRANCH   3  17
ATOM     17  N   UNL     1      -0.257  10.265  22.982  0.00  0.00    +0.000 N 
ATOM     18  C   UNL     1      -0.436  11.525  22.455  0.00  0.00    +0.000 C 
ATOM     19  O   UNL     1       0.393  12.031  21.697  0.00  0.00    +0.000 OA
ATOM     20  H   UNL     1      -1.007   9.748  23.435  0.00  0.00    +0.000 HD
BRANCH  18  21
ATOM     21  C   UNL     1      -1.654  12.201  22.852  0.00  0.00    +0.000 A 
ATOM     22  C   UNL     1      -2.055  13.525  22.756  0.00  0.00    +0.000 A 
ATOM     23  C   UNL     1      -3.358  13.634  23.302  0.00  0.00    +0.000 A 
ATOM     24  C   UNL     1      -3.734  12.378  23.712  0.00  0.00    +0.000 A 
ATOM     25  N   UNL     1      -2.706  11.519  23.431  0.00  0.00    +0.000 N 
ATOM     26  H   UNL     1      -2.698  10.522  23.610  0.00  0.00    +0.000 HD
ENDBRANCH  18  21
ENDBRANCH   3  17
TORSDOF 4
ENDMDL
