MODEL 1
REMARK VINA RESULT:      -6.8      0.000      0.000
REMARK  Name = 
REMARK  3 active torsions:
REMARK  status: ('A' for Active; 'I' for Inactive)
REMARK    1  A    between atoms: C_1  and  C_2
REMARK    2  A    between atoms: C_5  and  C_7
REMARK    3  A    between atoms: C_7  and  C_8
REMARK                            x       y       z     vdW  Elec       q    Type
REMARK                         _______ _______ _______ _____ _____    ______ ____
ROOT
ATOM      1  C   UNL     1       7.859   5.734  19.168  0.00  0.00    +0.000 C 
ATOM      2  C   UNL     1       6.906   4.928  18.293  0.00  0.00    +0.000 C 
ATOM      3  C   UNL     1       5.471   5.463  18.418  0.00  0.00    +0.000 C 
ATOM      4  N   UNL     1       4.585   4.772  17.484  0.00  0.00    +0.000 N 
ATOM      5  C   UNL     1       3.466   4.003  17.804  0.00  0.00    +0.000 C 
ATOM      6  O   UNL     1       2.822   3.453  16.891  0.00  0.00    +0.000 OA
ATOM      7  C   UNL     1       5.013   4.850  16.080  0.00  0.00    +0.000 C 
ATOM      8  C   UNL     1       6.518   4.606  15.872  0.00  0.00    +0.000 C 
ATOM      9  O   UNL     1       6.998   4.299  14.781  0.00  0.00    +0.000 OA
ATOM     10  N   UNL     1       7.360   4.933  16.909  0.00  0.00    +0.000 N 
ATOM     11  H   UNL     1       8.325   4.688  16.714  0.00  0.00    +0.000 HD
ENDROOT
BRANCH   5  12
ATOM     12  C   UNL     1       3.020   3.784  19.290  0.00  0.00    +0.000 C 
ATOM     13  C   UNL     1       2.601   4.992  20.187  0.00  0.00    +0.000 C 
ATOM     14  C   UNL     1       1.375   4.204  20.662  0.00  0.00    +0.000 C 
ATOM     15  C   UNL     1       1.516   3.326  19.416  0.00  0.00    +0.000 C 
BRANCH  12  16
ATOM     16  C   UNL     1       3.958   2.787  19.970  0.00  0.00    +0.000 C 
ATOM     17  F   UNL     1       3.949   1.632  19.248  0.00  0.00    +0.000 F 
ENDBRANCH  12  16
ENDBRANCH   5  12
TORSDOF 2
ENDMDL
MODEL 2
REMARK VINA RESULT:      -6.7      1.532      1.622
REMARK  Name = 
REMARK  3 active torsions:
REMARK  status: ('A' for Active; 'I' for Inactive)
REMARK    1  A    between atoms: C_1  and  C_2
REMARK    2  A    between atoms: C_5  and  C_7
REMARK    3  A    between atoms: C_7  and  C_8
REMARK                            x       y       z     vdW  Elec       q    Type
REMARK                         _______ _______ _______ _____ _____    ______ ____
ROOT
ATOM      1  C   UNL     1       7.329   5.528  19.450  0.00  0.00    +0.000 C 
ATOM      2  C   UNL     1       6.115   5.307  18.555  0.00  0.00    +0.000 C 
ATOM      3  C   UNL     1       4.813   5.537  19.340  0.00  0.00    +0.000 C 
ATOM      4  N   UNL     1       3.658   5.450  18.450  0.00  0.00    +0.000 N 
ATOM      5  C   UNL     1       2.601   4.542  18.536  0.00  0.00    +0.000 C 
ATOM      6  O   UNL     1       1.695   4.577  17.683  0.00  0.00    +0.000 OA
ATOM      7  C   UNL     1       3.707   6.373  17.307  0.00  0.00    +0.000 C 
ATOM      8  C   UNL     1       5.078   6.432  16.612  0.00  0.00    +0.000 C 
ATOM      9  O   UNL     1       5.227   6.866  15.470  0.00  0.00    +0.000 OA
ATOM     10  N   UNL     1       6.188   6.162  17.378  0.00  0.00    +0.000 N 
ATOM     11  H   UNL     1       7.043   6.164  16.833  0.00  0.00    +0.000 HD
ENDROOT
BRANCH   5  12
ATOM     12  C   UNL     1       2.544   3.456  19.664  0.00  0.00    +0.000 C 
ATOM     13  C   UNL     1       2.414   3.866  21.166  0.00  0.00    +0.000 C 
ATOM     14  C   UNL     1       1.323   2.805  21.352  0.00  0.00    +0.000 C 
ATOM     15  C   UNL     1       1.107   2.829  19.836  0.00  0.00    +0.000 C 
BRANCH  12  16
ATOM     16  C   UNL     1       3.588   2.374  19.392  0.00  0.00    +0.000 C 
ATOM     17  F   UNL     1       3.084   1.519  18.458  0.00  0.00    +0.000 F 
ENDBRANCH  12  16
ENDBRANCH   5  12
TORSDOF 2
ENDMDL
MODEL 3
REMARK VINA RESULT:      -6.7      2.121      3.049
REMARK  Name = 
REMARK  3 active torsions:
REMARK  status: ('A' for Active; 'I' for Inactive)
REMARK    1  A    between atoms: C_1  and  C_2
REMARK    2  A    between atoms: C_5  and  C_7
REMARK    3  A    between atoms: C_7  and  C_8
REMARK                            x       y       z     vdW  Elec       q    Type
REMARK                         _______ _______ _______ _____ _____    ______ ____
ROOT
ATOM      1  C   UNL     1       5.934   3.964  13.913  0.00  0.00    +0.000 C 
ATOM      2  C   UNL     1       5.728   4.692  15.237  0.00  0.00    +0.000 C 
ATOM      3  C   UNL     1       5.603   3.688  16.394  0.00  0.00    +0.000 C 
ATOM      4  N   UNL     1       5.533   4.391  17.674  0.00  0.00    +0.000 N 
ATOM      5  C   UNL     1       4.485   4.353  18.594  0.00  0.00    +0.000 C 
ATOM      6  O   UNL     1       4.563   5.030  19.636  0.00  0.00    +0.000 OA
ATOM      7  C   UNL     1       6.668   5.290  17.929  0.00  0.00    +0.000 C 
ATOM      8  C   UNL     1       7.065   6.152  16.719  0.00  0.00    +0.000 C 
ATOM      9  O   UNL     1       7.741   7.176  16.824  0.00  0.00    +0.000 OA
ATOM     10  N   UNL     1       6.807   5.643  15.468  0.00  0.00    +0.000 N 
ATOM     11  H   UNL     1       7.044   6.295  14.729  0.00  0.00    +0.000 HD
ENDROOT
BRANCH   5  12
ATOM     12  C   UNL     1       3.194   3.504  18.332  0.00  0.00    +0.000 C 
ATOM     13  C   UNL     1       3.250   1.943  18.320  0.00  0.00    +0.000 C 
ATOM     14  C   UNL     1       1.995   1.900  19.200  0.00  0.00    +0.000 C 
ATOM     15  C   UNL     1       2.297   3.342  19.618  0.00  0.00    +0.000 C 
BRANCH  12  16
ATOM     16  C   UNL     1       2.399   4.117  17.179  0.00  0.00    +0.000 C 
ATOM     17  F   UNL     1       1.614   5.110  17.683  0.00  0.00    +0.000 F 
ENDBRANCH  12  16
ENDBRANCH   5  12
TORSDOF 2
ENDMDL
MODEL 4
REMARK VINA RESULT:      -6.5      1.885      2.712
REMARK  Name = 
REMARK  3 active torsions:
REMARK  status: ('A' for Active; 'I' for Inactive)
REMARK    1  A    between atoms: C_1  and  C_2
REMARK    2  A    between atoms: C_5  and  C_7
REMARK    3  A    between atoms: C_7  and  C_8
REMARK                            x       y       z     vdW  Elec       q    Type
REMARK                         _______ _______ _______ _____ _____    ______ ____
ROOT
ATOM      1  C   UNL     1       6.223   4.088  14.264  0.00  0.00    +0.000 C 
ATOM      2  C   UNL     1       5.954   4.881  15.539  0.00  0.00    +0.000 C 
ATOM      3  C   UNL     1       5.851   3.940  16.750  0.00  0.00    +0.000 C 
ATOM      4  N   UNL     1       5.721   4.711  17.985  0.00  0.00    +0.000 N 
ATOM      5  C   UNL     1       4.656   4.676  18.886  0.00  0.00    +0.000 C 
ATOM      6  O   UNL     1       4.680   5.415  19.887  0.00  0.00    +0.000 OA
ATOM      7  C   UNL     1       6.807   5.676  18.209  0.00  0.00    +0.000 C 
ATOM      8  C   UNL     1       7.190   6.485  16.958  0.00  0.00    +0.000 C 
ATOM      9  O   UNL     1       7.815   7.544  17.016  0.00  0.00    +0.000 OA
ATOM     10  N   UNL     1       6.983   5.893  15.734  0.00  0.00    +0.000 N 
ATOM     11  H   UNL     1       7.205   6.513  14.963  0.00  0.00    +0.000 HD
ENDROOT
BRANCH   5  12
ATOM     12  C   UNL     1       3.412   3.753  18.649  0.00  0.00    +0.000 C 
ATOM     13  C   UNL     1       2.003   4.152  19.189  0.00  0.00    +0.000 C 
ATOM     14  C   UNL     1       1.387   3.785  17.834  0.00  0.00    +0.000 C 
ATOM     15  C   UNL     1       2.781   3.934  17.216  0.00  0.00    +0.000 C 
BRANCH  12  16
ATOM     16  C   UNL     1       3.796   2.295  18.900  0.00  0.00    +0.000 C 
ATOM     17  F   UNL     1       3.747   1.629  17.712  0.00  0.00    +0.000 F 
ENDBRANCH  12  16
ENDBRANCH   5  12
TORSDOF 2
ENDMDL
MODEL 5
REMARK VINA RESULT:      -6.4      1.213      1.232
REMARK  Name = 
REMARK  3 active torsions:
REMARK  status: ('A' for Active; 'I' for Inactive)
REMARK    1  A    between atoms: C_1  and  C_2
REMARK    2  A    between atoms: C_5  and  C_7
REMARK    3  A    between atoms: C_7  and  C_8
REMARK                            x       y       z     vdW  Elec       q    Type
REMARK                         _______ _______ _______ _____ _____    ______ ____
ROOT
ATOM      1  C   UNL     1       7.766   7.449  17.821  0.00  0.00    +0.000 C 
ATOM      2  C   UNL     1       6.986   6.241  17.315  0.00  0.00    +0.000 C 
ATOM      3  C   UNL     1       5.473   6.493  17.411  0.00  0.00    +0.000 C 
ATOM      4  N   UNL     1       4.732   5.387  16.809  0.00  0.00    +0.000 N 
ATOM      5  C   UNL     1       3.816   4.548  17.446  0.00  0.00    +0.000 C 
ATOM      6  O   UNL     1       3.281   3.627  16.800  0.00  0.00    +0.000 OA
ATOM      7  C   UNL     1       5.092   5.111  15.411  0.00  0.00    +0.000 C 
ATOM      8  C   UNL     1       6.607   5.119  15.144  0.00  0.00    +0.000 C 
ATOM      9  O   UNL     1       7.111   4.592  14.152  0.00  0.00    +0.000 OA
ATOM     10  N   UNL     1       7.388   5.909  15.955  0.00  0.00    +0.000 N 
ATOM     11  H   UNL     1       8.377   5.812  15.752  0.00  0.00    +0.000 HD
ENDROOT
BRANCH   5  12
ATOM     12  C   UNL     1       3.471   4.714  18.965  0.00  0.00    +0.000 C 
ATOM     13  C   UNL     1       2.876   6.051  19.511  0.00  0.00    +0.000 C 
ATOM     14  C   UNL     1       1.829   5.254  20.298  0.00  0.00    +0.000 C 
ATOM     15  C   UNL     1       2.080   4.079  19.349  0.00  0.00    +0.000 C 
BRANCH  12  16
ATOM     16  C   UNL     1       4.598   4.129  19.818  0.00  0.00    +0.000 C 
ATOM     17  F   UNL     1       4.721   2.806  19.513  0.00  0.00    +0.000 F 
ENDBRANCH  12  16
ENDBRANCH   5  12
TORSDOF 2
ENDMDL
MODEL 6
REMARK VINA RESULT:      -6.3      2.445      3.184
REMARK  Name = 
REMARK  3 active torsions:
REMARK  status: ('A' for Active; 'I' for Inactive)
REMARK    1  A    between atoms: C_1  and  C_2
REMARK    2  A    between atoms: C_5  and  C_7
REMARK    3  A    between atoms: C_7  and  C_8
REMARK                            x       y       z     vdW  Elec       q    Type
REMARK                         _______ _______ _______ _____ _____    ______ ____
ROOT
ATOM      1  C   UNL     1       2.209   8.359  17.703  0.00  0.00    +0.000 C 
ATOM      2  C   UNL     1       3.189   7.223  17.977  0.00  0.00    +0.000 C 
ATOM      3  C   UNL     1       2.463   5.868  17.972  0.00  0.00    +0.000 C 
ATOM      4  N   UNL     1       3.423   4.775  18.108  0.00  0.00    +0.000 N 
ATOM      5  C   UNL     1       3.477   3.831  19.135  0.00  0.00    +0.000 C 
ATOM      6  O   UNL     1       4.375   2.969  19.124  0.00  0.00    +0.000 OA
ATOM      7  C   UNL     1       4.475   4.767  17.083  0.00  0.00    +0.000 C 
ATOM      8  C   UNL     1       5.082   6.152  16.801  0.00  0.00    +0.000 C 
ATOM      9  O   UNL     1       6.171   6.302  16.248  0.00  0.00    +0.000 OA
ATOM     10  N   UNL     1       4.280   7.249  17.012  0.00  0.00    +0.000 N 
ATOM     11  H   UNL     1       4.772   8.122  16.861  0.00  0.00    +0.000 HD
ENDROOT
BRANCH   5  12
ATOM     12  C   UNL     1       2.454   3.851  20.321  0.00  0.00    +0.000 C 
ATOM     13  C   UNL     1       1.057   3.165  20.187  0.00  0.00    +0.000 C 
ATOM     14  C   UNL     1       1.249   2.522  21.565  0.00  0.00    +0.000 C 
ATOM     15  C   UNL     1       2.756   2.749  21.407  0.00  0.00    +0.000 C 
BRANCH  12  16
ATOM     16  C   UNL     1       2.416   5.245  20.948  0.00  0.00    +0.000 C 
ATOM     17  F   UNL     1       1.147   5.728  20.840  0.00  0.00    +0.000 F 
ENDBRANCH  12  16
ENDBRANCH   5  12
TORSDOF 2
ENDMDL
MODEL 7
REMARK VINA RESULT:      -6.3      2.086      3.021
REMARK  Name = 
REMARK  3 active torsions:
REMARK  status: ('A' for Active; 'I' for Inactive)
REMARK    1  A    between atoms: C_1  and  C_2
REMARK    2  A    between atoms: C_5  and  C_7
REMARK    3  A    between atoms: C_7  and  C_8
REMARK                            x       y       z     vdW  Elec       q    Type
REMARK                         _______ _______ _______ _____ _____    ______ ____
ROOT
ATOM      1  C   UNL     1       6.328   4.028  14.371  0.00  0.00    +0.000 C 
ATOM      2  C   UNL     1       5.968   4.897  15.571  0.00  0.00    +0.000 C 
ATOM      3  C   UNL     1       5.720   4.027  16.814  0.00  0.00    +0.000 C 
ATOM      4  N   UNL     1       5.501   4.868  17.989  0.00  0.00    +0.000 N 
ATOM      5  C   UNL     1       4.355   4.913  18.785  0.00  0.00    +0.000 C 
ATOM      6  O   UNL     1       4.310   5.705  19.745  0.00  0.00    +0.000 OA
ATOM      7  C   UNL     1       6.592   5.813  18.265  0.00  0.00    +0.000 C 
ATOM      8  C   UNL     1       7.118   6.541  17.016  0.00  0.00    +0.000 C 
ATOM      9  O   UNL     1       7.769   7.584  17.078  0.00  0.00    +0.000 OA
ATOM     10  N   UNL     1       7.007   5.889  15.811  0.00  0.00    +0.000 N 
ATOM     11  H   UNL     1       7.321   6.459  15.033  0.00  0.00    +0.000 HD
ENDROOT
BRANCH   5  12
ATOM     12  C   UNL     1       3.109   4.013  18.479  0.00  0.00    +0.000 C 
ATOM     13  C   UNL     1       2.913   3.368  17.071  0.00  0.00    +0.000 C 
ATOM     14  C   UNL     1       2.569   2.032  17.739  0.00  0.00    +0.000 C 
ATOM     15  C   UNL     1       3.280   2.535  18.999  0.00  0.00    +0.000 C 
BRANCH  12  16
ATOM     16  C   UNL     1       1.851   4.659  19.059  0.00  0.00    +0.000 C 
ATOM     17  F   UNL     1       1.588   4.076  20.262  0.00  0.00    +0.000 F 
ENDBRANCH  12  16
ENDBRANCH   5  12
TORSDOF 2
ENDMDL
MODEL 8
REMARK VINA RESULT:      -6.2      1.610      1.896
REMARK  Name = 
REMARK  3 active torsions:
REMARK  status: ('A' for Active; 'I' for Inactive)
REMARK    1  A    between atoms: C_1  and  C_2
REMARK    2  A    between atoms: C_5  and  C_7
REMARK    3  A    between atoms: C_7  and  C_8
REMARK                            x       y       z     vdW  Elec       q    Type
REMARK                         _______ _______ _______ _____ _____    ______ ____
ROOT
ATOM      1  C   UNL     1       7.251   5.526  19.305  0.00  0.00    +0.000 C 
ATOM      2  C   UNL     1       6.212   4.706  18.548  0.00  0.00    +0.000 C 
ATOM      3  C   UNL     1       4.852   5.423  18.546  0.00  0.00    +0.000 C 
ATOM      4  N   UNL     1       3.894   4.698  17.713  0.00  0.00    +0.000 N 
ATOM      5  C   UNL     1       2.687   4.131  18.125  0.00  0.00    +0.000 C 
ATOM      6  O   UNL     1       1.987   3.519  17.298  0.00  0.00    +0.000 OA
ATOM      7  C   UNL     1       4.338   4.490  16.328  0.00  0.00    +0.000 C 
ATOM      8  C   UNL     1       5.803   4.038  16.202  0.00  0.00    +0.000 C 
ATOM      9  O   UNL     1       6.249   3.499  15.190  0.00  0.00    +0.000 OA
ATOM     10  N   UNL     1       6.672   4.428  17.194  0.00  0.00    +0.000 N 
ATOM     11  H   UNL     1       7.600   4.040  17.068  0.00  0.00    +0.000 HD
ENDROOT
BRANCH   5  12
ATOM     12  C   UNL     1       2.208   4.217  19.615  0.00  0.00    +0.000 C 
ATOM     13  C   UNL     1       0.876   3.539  20.068  0.00  0.00    +0.000 C 
ATOM     14  C   UNL     1       1.597   2.959  21.291  0.00  0.00    +0.000 C 
ATOM     15  C   UNL     1       2.920   3.164  20.547  0.00  0.00    +0.000 C 
BRANCH  12  16
ATOM     16  C   UNL     1       2.405   5.639  20.140  0.00  0.00    +0.000 C 
ATOM     17  F   UNL     1       1.804   6.501  19.273  0.00  0.00    +0.000 F 
ENDBRANCH  12  16
ENDBRANCH   5  12
TORSDOF 2
ENDMDL
MODEL 9
REMARK VINA RESULT:      -6.2      1.872      2.132
REMARK  Name = 
REMARK  3 active torsions:
REMARK  status: ('A' for Active; 'I' for Inactive)
REMARK    1  A    between atoms: C_1  and  C_2
REMARK    2  A    between atoms: C_5  and  C_7
REMARK    3  A    between atoms: C_7  and  C_8
REMARK                            x       y       z     vdW  Elec       q    Type
REMARK                         _______ _______ _______ _____ _____    ______ ____
ROOT
ATOM      1  C   UNL     1       7.014   5.303  19.565  0.00  0.00    +0.000 C 
ATOM      2  C   UNL     1       5.836   5.187  18.604  0.00  0.00    +0.000 C 
ATOM      3  C   UNL     1       4.508   5.410  19.345  0.00  0.00    +0.000 C 
ATOM      4  N   UNL     1       3.393   5.425  18.400  0.00  0.00    +0.000 N 
ATOM      5  C   UNL     1       2.303   4.553  18.376  0.00  0.00    +0.000 C 
ATOM      6  O   UNL     1       1.441   4.679  17.488  0.00  0.00    +0.000 OA
ATOM      7  C   UNL     1       3.526   6.421  17.328  0.00  0.00    +0.000 C 
ATOM      8  C   UNL     1       4.929   6.478  16.700  0.00  0.00    +0.000 C 
ATOM      9  O   UNL     1       5.146   6.983  15.598  0.00  0.00    +0.000 OA
ATOM     10  N   UNL     1       5.992   6.117  17.494  0.00  0.00    +0.000 N 
ATOM     11  H   UNL     1       6.871   6.125  16.989  0.00  0.00    +0.000 HD
ENDROOT
BRANCH   5  12
ATOM     12  C   UNL     1       2.158   3.395  19.422  0.00  0.00    +0.000 C 
ATOM     13  C   UNL     1       3.303   3.084  20.438  0.00  0.00    +0.000 C 
ATOM     14  C   UNL     1       2.269   3.003  21.567  0.00  0.00    +0.000 C 
ATOM     15  C   UNL     1       1.315   3.817  20.687  0.00  0.00    +0.000 C 
BRANCH  12  16
ATOM     16  C   UNL     1       1.558   2.162  18.747  0.00  0.00    +0.000 C 
ATOM     17  F   UNL     1       0.201   2.236  18.850  0.00  0.00    +0.000 F 
ENDBRANCH  12  16
ENDBRANCH   5  12
TORSDOF 2
ENDMDL
