MODEL 1
REMARK VINA RESULT:      -8.7      0.000      0.000
REMARK  Name = 
REMARK  5 active torsions:
REMARK  status: ('A' for Active; 'I' for Inactive)
REMARK    1  A    between atoms: C_1  and  O_2
REMARK    2  A    between atoms: O_2  and  C_3
REMARK    3  A    between atoms: C_10  and  C_12
REMARK    4  A    between atoms: C_17  and  N_18
REMARK    5  A    between atoms: N_18  and  C_19
REMARK                            x       y       z     vdW  Elec       q    Type
REMARK                         _______ _______ _______ _____ _____    ______ ____
ROOT
ATOM      1  C   UNL     1      -0.430  13.212  20.881  0.00  0.00    +0.000 A 
ATOM      2  C   UNL     1      -0.752  12.792  22.171  0.00  0.00    +0.000 A 
ATOM      3  C   UNL     1      -0.544  11.457  22.558  0.00  0.00    +0.000 A 
ATOM      4  C   UNL     1       0.011  10.536  21.645  0.00  0.00    +0.000 A 
ATOM      5  N   UNL     1       0.300   9.203  21.887  0.00  0.00    +0.000 NA
ATOM      6  C   UNL     1       0.888   8.688  20.832  0.00  0.00    +0.000 A 
ATOM      7  N   UNL     1       1.330   7.392  20.829  0.00  0.00    +0.000 N 
ATOM      8  C   UNL     1       2.146   6.802  19.883  0.00  0.00    +0.000 C 
ATOM      9  O   UNL     1       2.672   7.336  18.914  0.00  0.00    +0.000 OA
ATOM     10  S   UNL     1       0.999   9.688  19.464  0.00  0.00    +0.000 S 
ATOM     11  C   UNL     1       0.326  10.983  20.362  0.00  0.00    +0.000 A 
ATOM     12  C   UNL     1       0.099  12.307  19.959  0.00  0.00    +0.000 A 
ATOM     13  H   UNL     1       1.030   6.883  21.648  0.00  0.00    +0.000 HD
ENDROOT
BRANCH   8  14
ATOM     14  C   UNL     1       2.407   5.356  20.111  0.00  0.00    +0.000 A 
ATOM     15  C   UNL     1       1.402   4.524  20.627  0.00  0.00    +0.000 A 
ATOM     16  C   UNL     1       1.627   3.159  20.738  0.00  0.00    +0.000 A 
ATOM     17  C   UNL     1       2.856   2.674  20.342  0.00  0.00    +0.000 A 
ATOM     18  N   UNL     1       3.851   3.456  19.876  0.00  0.00    +0.000 NA
ATOM     19  C   UNL     1       3.648   4.796  19.773  0.00  0.00    +0.000 A 
BRANCH  19  20
ATOM     20  N   UNL     1       4.690   5.592  19.251  0.00  0.00    +0.000 N 
ATOM     21  H   UNL     1       5.227   6.048  19.986  0.00  0.00    +0.000 HD
BRANCH  20  22
ATOM     22  C   UNL     1       5.346   5.410  18.022  0.00  0.00    +0.000 A 
ATOM     23  C   UNL     1       4.759   5.877  16.836  0.00  0.00    +0.000 A 
ATOM     24  C   UNL     1       5.373   5.689  15.598  0.00  0.00    +0.000 A 
ATOM     25  C   UNL     1       6.581   5.001  15.533  0.00  0.00    +0.000 A 
ATOM     26 CL   UNL     1       7.328   4.749  14.003  0.00  0.00    +0.000 Cl
ATOM     27  C   UNL     1       7.176   4.515  16.693  0.00  0.00    +0.000 A 
ATOM     28  C   UNL     1       6.561   4.723  17.937  0.00  0.00    +0.000 A 
ENDBRANCH  20  22
ENDBRANCH  19  20
ENDBRANCH   8  14
BRANCH   1  30
ATOM     29  C   UNL     1      -0.202  14.698  19.032  0.00  0.00    +0.000 C 
ATOM     30  O   UNL     1      -0.566  14.480  20.387  0.00  0.00    +0.000 OA
ENDBRANCH   1  30
TORSDOF 4
ENDMDL
MODEL 2
REMARK VINA RESULT:      -8.5      1.009      1.318
REMARK  Name = 
REMARK  5 active torsions:
REMARK  status: ('A' for Active; 'I' for Inactive)
REMARK    1  A    between atoms: C_1  and  O_2
REMARK    2  A    between atoms: O_2  and  C_3
REMARK    3  A    between atoms: C_10  and  C_12
REMARK    4  A    between atoms: C_17  and  N_18
REMARK    5  A    between atoms: N_18  and  C_19
REMARK                            x       y       z     vdW  Elec       q    Type
REMARK                         _______ _______ _______ _____ _____    ______ ____
ROOT
ATOM      1  C   UNL     1      -0.351  12.389  20.262  0.00  0.00    +0.000 A 
ATOM      2  C   UNL     1      -0.466  12.085  21.617  0.00  0.00    +0.000 A 
ATOM      3  C   UNL     1      -0.056  10.832  22.103  0.00  0.00    +0.000 A 
ATOM      4  C   UNL     1       0.493   9.878  21.221  0.00  0.00    +0.000 A 
ATOM      5  N   UNL     1       0.966   8.619  21.553  0.00  0.00    +0.000 NA
ATOM      6  C   UNL     1       1.483   8.054  20.487  0.00  0.00    +0.000 A 
ATOM      7  N   UNL     1       2.074   6.820  20.554  0.00  0.00    +0.000 N 
ATOM      8  C   UNL     1       2.837   6.218  19.573  0.00  0.00    +0.000 C 
ATOM      9  O   UNL     1       3.178   6.693  18.496  0.00  0.00    +0.000 OA
ATOM     10  S   UNL     1       1.312   8.900  19.024  0.00  0.00    +0.000 S 
ATOM     11  C   UNL     1       0.599  10.209  19.870  0.00  0.00    +0.000 A 
ATOM     12  C   UNL     1       0.171  11.447  19.372  0.00  0.00    +0.000 A 
ATOM     13  H   UNL     1       1.936   6.378  21.450  0.00  0.00    +0.000 HD
ENDROOT
BRANCH   8  14
ATOM     14  C   UNL     1       3.294   4.843  19.905  0.00  0.00    +0.000 A 
ATOM     15  C   UNL     1       2.494   3.997  20.689  0.00  0.00    +0.000 A 
ATOM     16  C   UNL     1       2.886   2.683  20.905  0.00  0.00    +0.000 A 
ATOM     17  C   UNL     1       4.074   2.264  20.343  0.00  0.00    +0.000 A 
ATOM     18  N   UNL     1       4.879   3.067  19.616  0.00  0.00    +0.000 NA
ATOM     19  C   UNL     1       4.512   4.358  19.406  0.00  0.00    +0.000 A 
BRANCH  19  20
ATOM     20  N   UNL     1       5.352   5.171  18.614  0.00  0.00    +0.000 N 
ATOM     21  H   UNL     1       6.010   5.704  19.179  0.00  0.00    +0.000 HD
BRANCH  20  22
ATOM     22  C   UNL     1       5.721   4.941  17.279  0.00  0.00    +0.000 A 
ATOM     23  C   UNL     1       7.011   5.274  16.838  0.00  0.00    +0.000 A 
ATOM     24  C   UNL     1       7.398   5.081  15.512  0.00  0.00    +0.000 A 
ATOM     25  C   UNL     1       6.480   4.569  14.601  0.00  0.00    +0.000 A 
ATOM     26 CL   UNL     1       6.951   4.352  12.959  0.00  0.00    +0.000 Cl
ATOM     27  C   UNL     1       5.191   4.244  15.010  0.00  0.00    +0.000 A 
ATOM     28  C   UNL     1       4.813   4.426  16.349  0.00  0.00    +0.000 A 
ENDBRANCH  20  22
ENDBRANCH  19  20
ENDBRANCH   8  14
BRANCH   1  30
ATOM     29  C   UNL     1      -0.056  13.899  18.441  0.00  0.00    +0.000 C 
ATOM     30  O   UNL     1      -0.695  13.572  19.667  0.00  0.00    +0.000 OA
ENDBRANCH   1  30
TORSDOF 4
ENDMDL
MODEL 3
REMARK VINA RESULT:      -8.4      0.907      1.152
REMARK  Name = 
REMARK  5 active torsions:
REMARK  status: ('A' for Active; 'I' for Inactive)
REMARK    1  A    between atoms: C_1  and  O_2
REMARK    2  A    between atoms: O_2  and  C_3
REMARK    3  A    between atoms: C_10  and  C_12
REMARK    4  A    between atoms: C_17  and  N_18
REMARK    5  A    between atoms: N_18  and  C_19
REMARK                            x       y       z     vdW  Elec       q    Type
REMARK                         _______ _______ _______ _____ _____    ______ ____
ROOT
ATOM      1  C   UNL     1       0.279  13.432  19.458  0.00  0.00    +0.000 A 
ATOM      2  C   UNL     1       0.123  13.317  20.838  0.00  0.00    +0.000 A 
ATOM      3  C   UNL     1       0.291  12.075  21.473  0.00  0.00    +0.000 A 
ATOM      4  C   UNL     1       0.638  10.937  20.717  0.00  0.00    +0.000 A 
ATOM      5  N   UNL     1       0.864   9.658  21.200  0.00  0.00    +0.000 NA
ATOM      6  C   UNL     1       1.253   8.884  20.214  0.00  0.00    +0.000 A 
ATOM      7  N   UNL     1       1.597   7.576  20.434  0.00  0.00    +0.000 N 
ATOM      8  C   UNL     1       2.221   6.728  19.540  0.00  0.00    +0.000 C 
ATOM      9  O   UNL     1       2.635   6.998  18.419  0.00  0.00    +0.000 OA
ATOM     10  S   UNL     1       1.232   9.568  18.660  0.00  0.00    +0.000 S 
ATOM     11  C   UNL     1       0.791  11.080  19.337  0.00  0.00    +0.000 A 
ATOM     12  C   UNL     1       0.602  12.309  18.691  0.00  0.00    +0.000 A 
ATOM     13  H   UNL     1       1.387   7.277  21.375  0.00  0.00    +0.000 HD
ENDROOT
BRANCH   8  14
ATOM     14  C   UNL     1       2.411   5.340  20.038  0.00  0.00    +0.000 A 
ATOM     15  C   UNL     1       1.341   4.639  20.618  0.00  0.00    +0.000 A 
ATOM     16  C   UNL     1       1.505   3.311  20.984  0.00  0.00    +0.000 A 
ATOM     17  C   UNL     1       2.739   2.732  20.772  0.00  0.00    +0.000 A 
ATOM     18  N   UNL     1       3.793   3.392  20.250  0.00  0.00    +0.000 NA
ATOM     19  C   UNL     1       3.649   4.696  19.898  0.00  0.00    +0.000 A 
BRANCH  19  20
ATOM     20  N   UNL     1       4.755   5.359  19.321  0.00  0.00    +0.000 N 
ATOM     21  H   UNL     1       5.417   5.679  20.025  0.00  0.00    +0.000 HD
BRANCH  20  22
ATOM     22  C   UNL     1       5.266   5.162  18.028  0.00  0.00    +0.000 A 
ATOM     23  C   UNL     1       6.444   5.813  17.631  0.00  0.00    +0.000 A 
ATOM     24  C   UNL     1       6.963   5.657  16.345  0.00  0.00    +0.000 A 
ATOM     25  C   UNL     1       6.286   4.858  15.429  0.00  0.00    +0.000 A 
ATOM     26 CL   UNL     1       6.914   4.684  13.836  0.00  0.00    +0.000 Cl
ATOM     27  C   UNL     1       5.109   4.213  15.794  0.00  0.00    +0.000 A 
ATOM     28  C   UNL     1       4.602   4.361  17.094  0.00  0.00    +0.000 A 
ENDBRANCH  20  22
ENDBRANCH  19  20
ENDBRANCH   8  14
BRANCH   1  30
ATOM     29  C   UNL     1      -0.246  15.756  19.407  0.00  0.00    +0.000 C 
ATOM     30  O   UNL     1       0.161  14.580  18.723  0.00  0.00    +0.000 OA
ENDBRANCH   1  30
TORSDOF 4
ENDMDL
MODEL 4
REMARK VINA RESULT:      -8.3      1.048      1.159
REMARK  Name = 
REMARK  5 active torsions:
REMARK  status: ('A' for Active; 'I' for Inactive)
REMARK    1  A    between atoms: C_1  and  O_2
REMARK    2  A    between atoms: O_2  and  C_3
REMARK    3  A    between atoms: C_10  and  C_12
REMARK    4  A    between atoms: C_17  and  N_18
REMARK    5  A    between atoms: N_18  and  C_19
REMARK                            x       y       z     vdW  Elec       q    Type
REMARK                         _______ _______ _______ _____ _____    ______ ____
ROOT
ATOM      1  C   UNL     1       0.714  13.561  19.399  0.00  0.00    +0.000 A 
ATOM      2  C   UNL     1       0.504  13.451  20.773  0.00  0.00    +0.000 A 
ATOM      3  C   UNL     1       0.575  12.200  21.406  0.00  0.00    +0.000 A 
ATOM      4  C   UNL     1       0.878  11.045  20.655  0.00  0.00    +0.000 A 
ATOM      5  N   UNL     1       1.010   9.753  21.139  0.00  0.00    +0.000 NA
ATOM      6  C   UNL     1       1.385   8.960  20.163  0.00  0.00    +0.000 A 
ATOM      7  N   UNL     1       1.642   7.633  20.387  0.00  0.00    +0.000 N 
ATOM      8  C   UNL     1       2.243   6.751  19.510  0.00  0.00    +0.000 C 
ATOM      9  O   UNL     1       2.711   7.000  18.405  0.00  0.00    +0.000 OA
ATOM     10  S   UNL     1       1.458   9.649  18.612  0.00  0.00    +0.000 S 
ATOM     11  C   UNL     1       1.087  11.183  19.283  0.00  0.00    +0.000 A 
ATOM     12  C   UNL     1       0.995  12.424  18.638  0.00  0.00    +0.000 A 
ATOM     13  H   UNL     1       1.381   7.344  21.318  0.00  0.00    +0.000 HD
ENDROOT
BRANCH   8  14
ATOM     14  C   UNL     1       2.331   5.353  20.006  0.00  0.00    +0.000 A 
ATOM     15  C   UNL     1       1.207   4.724  20.566  0.00  0.00    +0.000 A 
ATOM     16  C   UNL     1       1.276   3.387  20.930  0.00  0.00    +0.000 A 
ATOM     17  C   UNL     1       2.472   2.727  20.737  0.00  0.00    +0.000 A 
ATOM     18  N   UNL     1       3.576   3.316  20.235  0.00  0.00    +0.000 NA
ATOM     19  C   UNL     1       3.526   4.629  19.884  0.00  0.00    +0.000 A 
BRANCH  19  20
ATOM     20  N   UNL     1       4.683   5.217  19.329  0.00  0.00    +0.000 N 
ATOM     21  H   UNL     1       5.344   5.508  20.045  0.00  0.00    +0.000 HD
BRANCH  20  22
ATOM     22  C   UNL     1       5.215   4.971  18.052  0.00  0.00    +0.000 A 
ATOM     23  C   UNL     1       4.409   4.408  17.051  0.00  0.00    +0.000 A 
ATOM     24  C   UNL     1       4.915   4.128  15.782  0.00  0.00    +0.000 A 
ATOM     25  C   UNL     1       6.254   4.392  15.508  0.00  0.00    +0.000 A 
ATOM     26 CL   UNL     1       6.884   4.026  13.949  0.00  0.00    +0.000 Cl
ATOM     27  C   UNL     1       7.077   4.937  16.488  0.00  0.00    +0.000 A 
ATOM     28  C   UNL     1       6.556   5.231  17.757  0.00  0.00    +0.000 A 
ENDBRANCH  20  22
ENDBRANCH  19  20
ENDBRANCH   8  14
BRANCH   1  30
ATOM     29  C   UNL     1       1.450  15.815  19.153  0.00  0.00    +0.000 C 
ATOM     30  O   UNL     1       0.692  14.717  18.667  0.00  0.00    +0.000 OA
ENDBRANCH   1  30
TORSDOF 4
ENDMDL
MODEL 5
REMARK VINA RESULT:      -8.0      1.072      1.417
REMARK  Name = 
REMARK  5 active torsions:
REMARK  status: ('A' for Active; 'I' for Inactive)
REMARK    1  A    between atoms: C_1  and  O_2
REMARK    2  A    between atoms: O_2  and  C_3
REMARK    3  A    between atoms: C_10  and  C_12
REMARK    4  A    between atoms: C_17  and  N_18
REMARK    5  A    between atoms: N_18  and  C_19
REMARK                            x       y       z     vdW  Elec       q    Type
REMARK                         _______ _______ _______ _____ _____    ______ ____
ROOT
ATOM      1  C   UNL     1      -0.189  12.421  21.764  0.00  0.00    +0.000 A 
ATOM      2  C   UNL     1      -0.769  11.774  22.854  0.00  0.00    +0.000 A 
ATOM      3  C   UNL     1      -0.728  10.373  22.955  0.00  0.00    +0.000 A 
ATOM      4  C   UNL     1      -0.081   9.613  21.959  0.00  0.00    +0.000 A 
ATOM      5  N   UNL     1       0.067   8.235  21.934  0.00  0.00    +0.000 NA
ATOM      6  C   UNL     1       0.802   7.896  20.900  0.00  0.00    +0.000 A 
ATOM      7  N   UNL     1       1.147   6.590  20.674  0.00  0.00    +0.000 N 
ATOM      8  C   UNL     1       2.079   6.130  19.765  0.00  0.00    +0.000 C 
ATOM      9  O   UNL     1       2.810   6.798  19.043  0.00  0.00    +0.000 OA
ATOM     10  S   UNL     1       1.231   9.145  19.833  0.00  0.00    +0.000 S 
ATOM     11  C   UNL     1       0.495  10.286  20.881  0.00  0.00    +0.000 A 
ATOM     12  C   UNL     1       0.438  11.681  20.759  0.00  0.00    +0.000 A 
ATOM     13  H   UNL     1       0.668   5.954  21.295  0.00  0.00    +0.000 HD
ENDROOT
BRANCH   8  14
ATOM     14  C   UNL     1       2.195   4.649  19.697  0.00  0.00    +0.000 A 
ATOM     15  C   UNL     1       1.084   3.836  19.971  0.00  0.00    +0.000 A 
ATOM     16  C   UNL     1       1.179   2.461  19.803  0.00  0.00    +0.000 A 
ATOM     17  C   UNL     1       2.387   1.945  19.381  0.00  0.00    +0.000 A 
ATOM     18  N   UNL     1       3.479   2.701  19.145  0.00  0.00    +0.000 NA
ATOM     19  C   UNL     1       3.403   4.047  19.316  0.00  0.00    +0.000 A 
BRANCH  19  20
ATOM     20  N   UNL     1       4.547   4.823  19.030  0.00  0.00    +0.000 N 
ATOM     21  H   UNL     1       5.075   5.048  19.871  0.00  0.00    +0.000 HD
BRANCH  20  22
ATOM     22  C   UNL     1       5.262   4.844  17.821  0.00  0.00    +0.000 A 
ATOM     23  C   UNL     1       6.661   4.735  17.830  0.00  0.00    +0.000 A 
ATOM     24  C   UNL     1       7.400   4.779  16.647  0.00  0.00    +0.000 A 
ATOM     25  C   UNL     1       6.740   4.959  15.436  0.00  0.00    +0.000 A 
ATOM     26 CL   UNL     1       7.654   5.036  13.979  0.00  0.00    +0.000 Cl
ATOM     27  C   UNL     1       5.355   5.084  15.403  0.00  0.00    +0.000 A 
ATOM     28  C   UNL     1       4.616   5.023  16.594  0.00  0.00    +0.000 A 
ENDBRANCH  20  22
ENDBRANCH  19  20
ENDBRANCH   8  14
BRANCH   1  30
ATOM     29  C   UNL     1      -0.886  14.597  22.444  0.00  0.00    +0.000 C 
ATOM     30  O   UNL     1      -0.144  13.773  21.557  0.00  0.00    +0.000 OA
ENDBRANCH   1  30
TORSDOF 4
ENDMDL
MODEL 6
REMARK VINA RESULT:      -7.9      3.767      9.000
REMARK  Name = 
REMARK  5 active torsions:
REMARK  status: ('A' for Active; 'I' for Inactive)
REMARK    1  A    between atoms: C_1  and  O_2
REMARK    2  A    between atoms: O_2  and  C_3
REMARK    3  A    between atoms: C_10  and  C_12
REMARK    4  A    between atoms: C_17  and  N_18
REMARK    5  A    between atoms: N_18  and  C_19
REMARK                            x       y       z     vdW  Elec       q    Type
REMARK                         _______ _______ _______ _____ _____    ______ ____
ROOT
ATOM      1  C   UNL     1       2.914   4.136  19.819  0.00  0.00    +0.000 A 
ATOM      2  C   UNL     1       3.409   4.555  18.585  0.00  0.00    +0.000 A 
ATOM      3  C   UNL     1       3.201   5.873  18.145  0.00  0.00    +0.000 A 
ATOM      4  C   UNL     1       2.502   6.787  18.961  0.00  0.00    +0.000 A 
ATOM      5  N   UNL     1       2.244   8.119  18.679  0.00  0.00    +0.000 NA
ATOM      6  C   UNL     1       1.650   8.674  19.709  0.00  0.00    +0.000 A 
ATOM      7  N   UNL     1       1.334  10.007  19.712  0.00  0.00    +0.000 N 
ATOM      8  C   UNL     1       0.914  10.752  20.797  0.00  0.00    +0.000 C 
ATOM      9  O   UNL     1       0.807  10.381  21.960  0.00  0.00    +0.000 OA
ATOM     10  S   UNL     1       1.235   7.641  20.991  0.00  0.00    +0.000 S 
ATOM     11  C   UNL     1       2.020   6.343  20.192  0.00  0.00    +0.000 A 
ATOM     12  C   UNL     1       2.201   5.023  20.629  0.00  0.00    +0.000 A 
ATOM     13  H   UNL     1       1.484  10.438  18.812  0.00  0.00    +0.000 HD
ENDROOT
BRANCH   8  14
ATOM     14  C   UNL     1       0.580  12.166  20.482  0.00  0.00    +0.000 A 
ATOM     15  C   UNL     1       1.540  13.177  20.645  0.00  0.00    +0.000 A 
ATOM     16  C   UNL     1       1.247  14.475  20.251  0.00  0.00    +0.000 A 
ATOM     17  C   UNL     1      -0.001  14.721  19.720  0.00  0.00    +0.000 A 
ATOM     18  N   UNL     1      -0.954  13.775  19.585  0.00  0.00    +0.000 NA
ATOM     19  C   UNL     1      -0.684  12.502  19.978  0.00  0.00    +0.000 A 
BRANCH  19  20
ATOM     20  N   UNL     1      -1.683  11.521  19.796  0.00  0.00    +0.000 N 
ATOM     21  H   UNL     1      -2.256  11.402  20.629  0.00  0.00    +0.000 HD
BRANCH  20  22
ATOM     22  C   UNL     1      -2.266  11.138  18.577  0.00  0.00    +0.000 A 
ATOM     23  C   UNL     1      -1.585  10.266  17.715  0.00  0.00    +0.000 A 
ATOM     24  C   UNL     1      -2.128   9.887  16.486  0.00  0.00    +0.000 A 
ATOM     25  C   UNL     1      -3.359  10.404  16.096  0.00  0.00    +0.000 A 
ATOM     26 CL   UNL     1      -4.017   9.955  14.570  0.00  0.00    +0.000 Cl
ATOM     27  C   UNL     1      -4.047  11.282  16.927  0.00  0.00    +0.000 A 
ATOM     28  C   UNL     1      -3.504  11.645  18.168  0.00  0.00    +0.000 A 
ENDBRANCH  20  22
ENDBRANCH  19  20
ENDBRANCH   8  14
BRANCH   1  30
ATOM     29  C   UNL     1       2.283   2.585  21.516  0.00  0.00    +0.000 C 
ATOM     30  O   UNL     1       3.062   2.892  20.369  0.00  0.00    +0.000 OA
ENDBRANCH   1  30
TORSDOF 4
ENDMDL
MODEL 7
REMARK VINA RESULT:      -7.9      2.899      4.700
REMARK  Name = 
REMARK  5 active torsions:
REMARK  status: ('A' for Active; 'I' for Inactive)
REMARK    1  A    between atoms: C_1  and  O_2
REMARK    2  A    between atoms: O_2  and  C_3
REMARK    3  A    between atoms: C_10  and  C_12
REMARK    4  A    between atoms: C_17  and  N_18
REMARK    5  A    between atoms: N_18  and  C_19
REMARK                            x       y       z     vdW  Elec       q    Type
REMARK                         _______ _______ _______ _____ _____    ______ ____
ROOT
ATOM      1  C   UNL     1      -0.990  11.074  20.460  0.00  0.00    +0.000 A 
ATOM      2  C   UNL     1      -1.182  11.400  19.118  0.00  0.00    +0.000 A 
ATOM      3  C   UNL     1      -0.374  10.826  18.122  0.00  0.00    +0.000 A 
ATOM      4  C   UNL     1       0.628   9.899  18.475  0.00  0.00    +0.000 A 
ATOM      5  N   UNL     1       1.480   9.231  17.610  0.00  0.00    +0.000 NA
ATOM      6  C   UNL     1       2.215   8.385  18.292  0.00  0.00    +0.000 A 
ATOM      7  N   UNL     1       3.107   7.554  17.665  0.00  0.00    +0.000 N 
ATOM      8  C   UNL     1       3.772   6.483  18.229  0.00  0.00    +0.000 C 
ATOM      9  O   UNL     1       3.645   6.040  19.364  0.00  0.00    +0.000 OA
ATOM     10  S   UNL     1       2.053   8.431  19.982  0.00  0.00    +0.000 S 
ATOM     11  C   UNL     1       0.798   9.588  19.824  0.00  0.00    +0.000 A 
ATOM     12  C   UNL     1       0.013  10.174  20.827  0.00  0.00    +0.000 A 
ATOM     13  H   UNL     1       3.211   7.774  16.685  0.00  0.00    +0.000 HD
ENDROOT
BRANCH   8  14
ATOM     14  C   UNL     1       4.730   5.804  17.317  0.00  0.00    +0.000 A 
ATOM     15  C   UNL     1       5.976   6.385  17.033  0.00  0.00    +0.000 A 
ATOM     16  C   UNL     1       6.900   5.691  16.264  0.00  0.00    +0.000 A 
ATOM     17  C   UNL     1       6.540   4.447  15.791  0.00  0.00    +0.000 A 
ATOM     18  N   UNL     1       5.337   3.881  16.020  0.00  0.00    +0.000 NA
ATOM     19  C   UNL     1       4.419   4.554  16.762  0.00  0.00    +0.000 A 
BRANCH  19  20
ATOM     20  N   UNL     1       3.179   3.929  17.018  0.00  0.00    +0.000 N 
ATOM     21  H   UNL     1       2.821   3.442  16.199  0.00  0.00    +0.000 HD
BRANCH  20  22
ATOM     22  C   UNL     1       2.710   3.482  18.264  0.00  0.00    +0.000 A 
ATOM     23  C   UNL     1       1.389   3.750  18.655  0.00  0.00    +0.000 A 
ATOM     24  C   UNL     1       0.901   3.341  19.897  0.00  0.00    +0.000 A 
ATOM     25  C   UNL     1       1.749   2.675  20.777  0.00  0.00    +0.000 A 
ATOM     26 CL   UNL     1       1.154   2.191  22.318  0.00  0.00    +0.000 Cl
ATOM     27  C   UNL     1       3.067   2.411  20.418  0.00  0.00    +0.000 A 
ATOM     28  C   UNL     1       3.545   2.810  19.161  0.00  0.00    +0.000 A 
ENDBRANCH  20  22
ENDBRANCH  19  20
ENDBRANCH   8  14
BRANCH   1  30
ATOM     29  C   UNL     1      -1.206  11.306  22.822  0.00  0.00    +0.000 C 
ATOM     30  O   UNL     1      -1.716  11.546  21.518  0.00  0.00    +0.000 OA
ENDBRANCH   1  30
TORSDOF 4
ENDMDL
MODEL 8
REMARK VINA RESULT:      -7.8      2.738      4.542
REMARK  Name = 
REMARK  5 active torsions:
REMARK  status: ('A' for Active; 'I' for Inactive)
REMARK    1  A    between atoms: C_1  and  O_2
REMARK    2  A    between atoms: O_2  and  C_3
REMARK    3  A    between atoms: C_10  and  C_12
REMARK    4  A    between atoms: C_17  and  N_18
REMARK    5  A    between atoms: N_18  and  C_19
REMARK                            x       y       z     vdW  Elec       q    Type
REMARK                         _______ _______ _______ _____ _____    ______ ____
ROOT
ATOM      1  C   UNL     1      -1.320  11.389  22.031  0.00  0.00    +0.000 A 
ATOM      2  C   UNL     1      -0.824  10.609  23.075  0.00  0.00    +0.000 A 
ATOM      3  C   UNL     1       0.090   9.574  22.819  0.00  0.00    +0.000 A 
ATOM      4  C   UNL     1       0.527   9.328  21.501  0.00  0.00    +0.000 A 
ATOM      5  N   UNL     1       1.440   8.368  21.097  0.00  0.00    +0.000 NA
ATOM      6  C   UNL     1       1.665   8.497  19.810  0.00  0.00    +0.000 A 
ATOM      7  N   UNL     1       2.576   7.702  19.166  0.00  0.00    +0.000 N 
ATOM      8  C   UNL     1       3.060   7.875  17.885  0.00  0.00    +0.000 C 
ATOM      9  O   UNL     1       2.817   8.796  17.113  0.00  0.00    +0.000 OA
ATOM     10  S   UNL     1       0.718   9.641  18.987  0.00  0.00    +0.000 S 
ATOM     11  C   UNL     1       0.018  10.124  20.475  0.00  0.00    +0.000 A 
ATOM     12  C   UNL     1      -0.913  11.144  20.717  0.00  0.00    +0.000 A 
ATOM     13  H   UNL     1       2.921   6.959  19.757  0.00  0.00    +0.000 HD
ENDROOT
BRANCH   8  14
ATOM     14  C   UNL     1       3.995   6.812  17.430  0.00  0.00    +0.000 A 
ATOM     15  C   UNL     1       5.302   7.136  17.033  0.00  0.00    +0.000 A 
ATOM     16  C   UNL     1       6.195   6.124  16.710  0.00  0.00    +0.000 A 
ATOM     17  C   UNL     1       5.745   4.822  16.779  0.00  0.00    +0.000 A 
ATOM     18  N   UNL     1       4.485   4.486  17.122  0.00  0.00    +0.000 NA
ATOM     19  C   UNL     1       3.598   5.468  17.431  0.00  0.00    +0.000 A 
BRANCH  19  20
ATOM     20  N   UNL     1       2.294   5.092  17.821  0.00  0.00    +0.000 N 
ATOM     21  H   UNL     1       1.661   5.030  17.026  0.00  0.00    +0.000 HD
BRANCH  20  22
ATOM     22  C   UNL     1       1.944   4.342  18.956  0.00  0.00    +0.000 A 
ATOM     23  C   UNL     1       2.431   4.710  20.219  0.00  0.00    +0.000 A 
ATOM     24  C   UNL     1       2.122   3.969  21.361  0.00  0.00    +0.000 A 
ATOM     25  C   UNL     1       1.335   2.829  21.242  0.00  0.00    +0.000 A 
ATOM     26 CL   UNL     1       0.973   1.903  22.647  0.00  0.00    +0.000 Cl
ATOM     27  C   UNL     1       0.852   2.435  19.998  0.00  0.00    +0.000 A 
ATOM     28  C   UNL     1       1.153   3.193  18.857  0.00  0.00    +0.000 A 
ENDBRANCH  20  22
ENDBRANCH  19  20
ENDBRANCH   8  14
BRANCH   1  30
ATOM     29  C   UNL     1      -3.041  12.456  23.288  0.00  0.00    +0.000 C 
ATOM     30  O   UNL     1      -2.196  12.433  22.147  0.00  0.00    +0.000 OA
ENDBRANCH   1  30
TORSDOF 4
ENDMDL
MODEL 9
REMARK VINA RESULT:      -7.7      3.770      8.971
REMARK  Name = 
REMARK  5 active torsions:
REMARK  status: ('A' for Active; 'I' for Inactive)
REMARK    1  A    between atoms: C_1  and  O_2
REMARK    2  A    between atoms: O_2  and  C_3
REMARK    3  A    between atoms: C_10  and  C_12
REMARK    4  A    between atoms: C_17  and  N_18
REMARK    5  A    between atoms: N_18  and  C_19
REMARK                            x       y       z     vdW  Elec       q    Type
REMARK                         _______ _______ _______ _____ _____    ______ ____
ROOT
ATOM      1  C   UNL     1       3.262   4.501  19.426  0.00  0.00    +0.000 A 
ATOM      2  C   UNL     1       3.629   5.001  18.176  0.00  0.00    +0.000 A 
ATOM      3  C   UNL     1       3.283   6.310  17.803  0.00  0.00    +0.000 A 
ATOM      4  C   UNL     1       2.575   7.136  18.701  0.00  0.00    +0.000 A 
ATOM      5  N   UNL     1       2.190   8.450  18.489  0.00  0.00    +0.000 NA
ATOM      6  C   UNL     1       1.631   8.919  19.580  0.00  0.00    +0.000 A 
ATOM      7  N   UNL     1       1.209  10.220  19.656  0.00  0.00    +0.000 N 
ATOM      8  C   UNL     1       0.811  10.892  20.796  0.00  0.00    +0.000 C 
ATOM      9  O   UNL     1       0.821  10.476  21.949  0.00  0.00    +0.000 OA
ATOM     10  S   UNL     1       1.397   7.814  20.848  0.00  0.00    +0.000 S 
ATOM     11  C   UNL     1       2.223   6.613  19.945  0.00  0.00    +0.000 A 
ATOM     12  C   UNL     1       2.542   5.300  20.317  0.00  0.00    +0.000 A 
ATOM     13  H   UNL     1       1.257  10.692  18.765  0.00  0.00    +0.000 HD
ENDROOT
BRANCH   8  14
ATOM     14  C   UNL     1       0.342  12.283  20.560  0.00  0.00    +0.000 A 
ATOM     15  C   UNL     1       1.176  13.374  20.847  0.00  0.00    +0.000 A 
ATOM     16  C   UNL     1       0.764  14.660  20.526  0.00  0.00    +0.000 A 
ATOM     17  C   UNL     1      -0.476  14.812  19.942  0.00  0.00    +0.000 A 
ATOM     18  N   UNL     1      -1.312  13.784  19.688  0.00  0.00    +0.000 NA
ATOM     19  C   UNL     1      -0.925  12.521  20.008  0.00  0.00    +0.000 A 
BRANCH  19  20
ATOM     20  N   UNL     1      -1.801  11.457  19.702  0.00  0.00    +0.000 N 
ATOM     21  H   UNL     1      -2.392  11.210  20.494  0.00  0.00    +0.000 HD
BRANCH  20  22
ATOM     22  C   UNL     1      -2.287  11.113  18.430  0.00  0.00    +0.000 A 
ATOM     23  C   UNL     1      -3.508  11.637  17.979  0.00  0.00    +0.000 A 
ATOM     24  C   UNL     1      -4.029  11.294  16.731  0.00  0.00    +0.000 A 
ATOM     25  C   UNL     1      -3.336  10.396  15.926  0.00  0.00    +0.000 A 
ATOM     26 CL   UNL     1      -3.990   9.956  14.395  0.00  0.00    +0.000 Cl
ATOM     27  C   UNL     1      -2.130   9.852  16.356  0.00  0.00    +0.000 A 
ATOM     28  C   UNL     1      -1.604  10.214  17.606  0.00  0.00    +0.000 A 
ENDBRANCH  20  22
ENDBRANCH  19  20
ENDBRANCH   8  14
BRANCH   1  30
ATOM     29  C   UNL     1       2.571   2.629  20.728  0.00  0.00    +0.000 C 
ATOM     30  O   UNL     1       3.552   3.257  19.916  0.00  0.00    +0.000 OA
ENDBRANCH   1  30
TORSDOF 4
ENDMDL
