MODEL 1
REMARK VINA RESULT:      -7.3      0.000      0.000
REMARK  Name = 
REMARK  7 active torsions:
REMARK  status: ('A' for Active; 'I' for Inactive)
REMARK    1  A    between atoms: C_1  and  C_2
REMARK    2  A    between atoms: C_2  and  N_3
REMARK    3  A    between atoms: N_6  and  C_7
REMARK    4  A    between atoms: C_10  and  C_11
REMARK    5  A    between atoms: C_18  and  C_19
REMARK    6  A    between atoms: C_20  and  C_21
REMARK    7  A    between atoms: C_20  and  C_23
REMARK                            x       y       z     vdW  Elec       q    Type
REMARK                         _______ _______ _______ _____ _____    ______ ____
ROOT
ATOM      1  C   UNL     1       3.722   6.169  18.394  0.00  0.00    +0.000 A 
ATOM      2  N   UNL     1       3.093   7.374  18.200  0.00  0.00    +0.000 NA
ATOM      3  C   UNL     1       2.230   7.797  19.075  0.00  0.00    +0.000 A 
ATOM      4  C   UNL     1       1.548   9.133  18.902  0.00  0.00    +0.000 A 
ATOM      5  C   UNL     1       1.725   9.899  17.629  0.00  0.00    +0.000 C 
ATOM      6  C   UNL     1       0.773   9.602  19.895  0.00  0.00    +0.000 A 
ATOM      7  C   UNL     1       0.512   8.825  21.073  0.00  0.00    +0.000 A 
ATOM      8  C   UNL     1       1.027   7.600  21.178  0.00  0.00    +0.000 A 
ATOM      9  N   UNL     1       1.879   7.079  20.215  0.00  0.00    +0.000 N 
ATOM     10  C   UNL     1       2.415   5.827  20.426  0.00  0.00    +0.000 A 
ATOM     11  O   UNL     1       2.120   5.092  21.373  0.00  0.00    +0.000 OA
ATOM     12  C   UNL     1       3.444   5.380  19.457  0.00  0.00    +0.000 A 
ENDROOT
BRANCH   1  16
ATOM     13  N   UNL     1       6.852   4.481  15.897  0.00  0.00    +0.000 NA
ATOM     14  C   UNL     1       7.088   5.577  16.871  0.00  0.00    +0.000 C 
ATOM     15  C   UNL     1       5.892   6.522  17.179  0.00  0.00    +0.000 C 
ATOM     16  N   UNL     1       4.700   5.724  17.499  0.00  0.00    +0.000 N 
ATOM     17  C   UNL     1       4.370   4.745  16.449  0.00  0.00    +0.000 C 
ATOM     18  C   UNL     1       5.577   3.800  16.242  0.00  0.00    +0.000 C 
BRANCH  13  20
ATOM     19  C   UNL     1       6.279   3.873  13.521  0.00  0.00    +0.000 C 
ATOM     20  C   UNL     1       6.846   4.905  14.491  0.00  0.00    +0.000 C 
ENDBRANCH  13  20
ENDBRANCH   1  16
BRANCH  12  21
ATOM     21  C   UNL     1       4.202   4.173  19.773  0.00  0.00    +0.000 C 
ATOM     22  C   UNL     1       3.790   2.904  19.592  0.00  0.00    +0.000 C 
BRANCH  22  23
ATOM     23  C   UNL     1       2.571   2.583  18.934  0.00  0.00    +0.000 C 
ATOM     24  N   UNL     1       1.555   2.361  18.417  0.00  0.00    +0.000 NA
ENDBRANCH  22  23
BRANCH  22  25
ATOM     25  C   UNL     1       4.612   1.840  20.048  0.00  0.00    +0.000 C 
ATOM     26  N   UNL     1       5.281   0.980  20.452  0.00  0.00    +0.000 NA
ENDBRANCH  22  25
ENDBRANCH  12  21
TORSDOF 5
ENDMDL
MODEL 2
REMARK VINA RESULT:      -6.0      0.861      1.227
REMARK  Name = 
REMARK  7 active torsions:
REMARK  status: ('A' for Active; 'I' for Inactive)
REMARK    1  A    between atoms: C_1  and  C_2
REMARK    2  A    between atoms: C_2  and  N_3
REMARK    3  A    between atoms: N_6  and  C_7
REMARK    4  A    between atoms: C_10  and  C_11
REMARK    5  A    between atoms: C_18  and  C_19
REMARK    6  A    between atoms: C_20  and  C_21
REMARK    7  A    between atoms: C_20  and  C_23
REMARK                            x       y       z     vdW  Elec       q    Type
REMARK                         _______ _______ _______ _____ _____    ______ ____
ROOT
ATOM      1  C   UNL     1       3.457   6.704  18.580  0.00  0.00    +0.000 A 
ATOM      2  N   UNL     1       2.816   7.913  18.469  0.00  0.00    +0.000 NA
ATOM      3  C   UNL     1       1.902   8.238  19.335  0.00  0.00    +0.000 A 
ATOM      4  C   UNL     1       1.205   9.575  19.255  0.00  0.00    +0.000 A 
ATOM      5  C   UNL     1       1.431  10.462  18.071  0.00  0.00    +0.000 C 
ATOM      6  C   UNL     1       0.372   9.936  20.246  0.00  0.00    +0.000 A 
ATOM      7  C   UNL     1       0.067   9.046  21.330  0.00  0.00    +0.000 A 
ATOM      8  C   UNL     1       0.599   7.823  21.345  0.00  0.00    +0.000 A 
ATOM      9  N   UNL     1       1.508   7.409  20.381  0.00  0.00    +0.000 N 
ATOM     10  C   UNL     1       2.056   6.151  20.500  0.00  0.00    +0.000 A 
ATOM     11  O   UNL     1       1.727   5.324  21.355  0.00  0.00    +0.000 OA
ATOM     12  C   UNL     1       3.140   5.813  19.547  0.00  0.00    +0.000 A 
ENDROOT
BRANCH   1  16
ATOM     13  N   UNL     1       6.748   6.056  15.818  0.00  0.00    +0.000 NA
ATOM     14  C   UNL     1       5.342   6.248  15.381  0.00  0.00    +0.000 C 
ATOM     15  C   UNL     1       4.225   5.800  16.366  0.00  0.00    +0.000 C 
ATOM     16  N   UNL     1       4.487   6.361  17.698  0.00  0.00    +0.000 N 
ATOM     17  C   UNL     1       5.830   6.029  18.204  0.00  0.00    +0.000 C 
ATOM     18  C   UNL     1       6.889   6.559  17.209  0.00  0.00    +0.000 C 
BRANCH  13  20
ATOM     19  C   UNL     1       6.630   3.872  14.569  0.00  0.00    +0.000 C 
ATOM     20  C   UNL     1       7.235   4.674  15.718  0.00  0.00    +0.000 C 
ENDBRANCH  13  20
ENDBRANCH   1  16
BRANCH  12  21
ATOM     21  C   UNL     1       3.904   4.591  19.785  0.00  0.00    +0.000 C 
ATOM     22  C   UNL     1       3.564   3.350  19.391  0.00  0.00    +0.000 C 
BRANCH  22  23
ATOM     23  C   UNL     1       2.439   3.094  18.560  0.00  0.00    +0.000 C 
ATOM     24  N   UNL     1       1.504   2.930  17.891  0.00  0.00    +0.000 NA
ENDBRANCH  22  23
BRANCH  22  25
ATOM     25  C   UNL     1       4.370   2.253  19.793  0.00  0.00    +0.000 C 
ATOM     26  N   UNL     1       5.018   1.358  20.154  0.00  0.00    +0.000 NA
ENDBRANCH  22  25
ENDBRANCH  12  21
TORSDOF 5
ENDMDL
MODEL 3
REMARK VINA RESULT:      -5.8      8.523     10.028
REMARK  Name = 
REMARK  7 active torsions:
REMARK  status: ('A' for Active; 'I' for Inactive)
REMARK    1  A    between atoms: C_1  and  C_2
REMARK    2  A    between atoms: C_2  and  N_3
REMARK    3  A    between atoms: N_6  and  C_7
REMARK    4  A    between atoms: C_10  and  C_11
REMARK    5  A    between atoms: C_18  and  C_19
REMARK    6  A    between atoms: C_20  and  C_21
REMARK    7  A    between atoms: C_20  and  C_23
REMARK                            x       y       z     vdW  Elec       q    Type
REMARK                         _______ _______ _______ _____ _____    ______ ____
ROOT
ATOM      1  C   UNL     1      -1.428  12.885  19.374  0.00  0.00    +0.000 A 
ATOM      2  N   UNL     1      -1.868  12.243  18.243  0.00  0.00    +0.000 NA
ATOM      3  C   UNL     1      -3.107  11.856  18.164  0.00  0.00    +0.000 A 
ATOM      4  C   UNL     1      -3.625  11.177  16.920  0.00  0.00    +0.000 A 
ATOM      5  C   UNL     1      -2.671  10.780  15.837  0.00  0.00    +0.000 C 
ATOM      6  C   UNL     1      -4.941  10.921  16.816  0.00  0.00    +0.000 A 
ATOM      7  C   UNL     1      -5.845  11.200  17.895  0.00  0.00    +0.000 A 
ATOM      8  C   UNL     1      -5.371  11.701  19.036  0.00  0.00    +0.000 A 
ATOM      9  N   UNL     1      -4.033  12.039  19.187  0.00  0.00    +0.000 N 
ATOM     10  C   UNL     1      -3.634  12.604  20.378  0.00  0.00    +0.000 A 
ATOM     11  O   UNL     1      -4.366  12.751  21.361  0.00  0.00    +0.000 OA
ATOM     12  C   UNL     1      -2.237  13.098  20.436  0.00  0.00    +0.000 A 
ENDROOT
BRANCH   1  16
ATOM     13  N   UNL     1       2.574  14.439  20.041  0.00  0.00    +0.000 NA
ATOM     14  C   UNL     1       1.426  15.290  19.639  0.00  0.00    +0.000 C 
ATOM     15  C   UNL     1       0.301  14.616  18.803  0.00  0.00    +0.000 C 
ATOM     16  N   UNL     1      -0.117  13.366  19.454  0.00  0.00    +0.000 N 
ATOM     17  C   UNL     1       1.007  12.448  19.705  0.00  0.00    +0.000 C 
ATOM     18  C   UNL     1       2.054  13.161  20.592  0.00  0.00    +0.000 C 
BRANCH  13  20
ATOM     19  C   UNL     1       3.797  15.367  18.045  0.00  0.00    +0.000 C 
ATOM     20  C   UNL     1       3.547  14.181  18.972  0.00  0.00    +0.000 C 
ENDBRANCH  13  20
ENDBRANCH   1  16
BRANCH  12  21
ATOM     21  C   UNL     1      -1.846  13.910  21.585  0.00  0.00    +0.000 C 
ATOM     22  C   UNL     1      -1.318  13.457  22.737  0.00  0.00    +0.000 C 
BRANCH  22  23
ATOM     23  C   UNL     1      -0.953  12.095  22.927  0.00  0.00    +0.000 C 
ATOM     24  N   UNL     1      -0.636  10.997  23.126  0.00  0.00    +0.000 NA
ENDBRANCH  22  23
BRANCH  22  25
ATOM     25  C   UNL     1      -1.087  14.372  23.798  0.00  0.00    +0.000 C 
ATOM     26  N   UNL     1      -0.900  15.096  24.688  0.00  0.00    +0.000 NA
ENDBRANCH  22  25
ENDBRANCH  12  21
TORSDOF 5
ENDMDL
MODEL 4
REMARK VINA RESULT:      -5.6      8.530     10.333
REMARK  Name = 
REMARK  7 active torsions:
REMARK  status: ('A' for Active; 'I' for Inactive)
REMARK    1  A    between atoms: C_1  and  C_2
REMARK    2  A    between atoms: C_2  and  N_3
REMARK    3  A    between atoms: N_6  and  C_7
REMARK    4  A    between atoms: C_10  and  C_11
REMARK    5  A    between atoms: C_18  and  C_19
REMARK    6  A    between atoms: C_20  and  C_21
REMARK    7  A    between atoms: C_20  and  C_23
REMARK                            x       y       z     vdW  Elec       q    Type
REMARK                         _______ _______ _______ _____ _____    ______ ____
ROOT
ATOM      1  C   UNL     1      -2.241  12.841  19.795  0.00  0.00    +0.000 A 
ATOM      2  N   UNL     1      -2.890  12.193  18.773  0.00  0.00    +0.000 NA
ATOM      3  C   UNL     1      -4.159  11.935  18.880  0.00  0.00    +0.000 A 
ATOM      4  C   UNL     1      -4.904  11.253  17.757  0.00  0.00    +0.000 A 
ATOM      5  C   UNL     1      -4.149  10.707  16.587  0.00  0.00    +0.000 C 
ATOM      6  C   UNL     1      -6.240  11.131  17.841  0.00  0.00    +0.000 A 
ATOM      7  C   UNL     1      -6.959  11.555  19.009  0.00  0.00    +0.000 A 
ATOM      8  C   UNL     1      -6.289  12.059  20.045  0.00  0.00    +0.000 A 
ATOM      9  N   UNL     1      -4.916  12.262  20.000  0.00  0.00    +0.000 N 
ATOM     10  C   UNL     1      -4.307  12.840  21.092  0.00  0.00    +0.000 A 
ATOM     11  O   UNL     1      -4.881  13.110  22.151  0.00  0.00    +0.000 OA
ATOM     12  C   UNL     1      -2.874  13.188  20.938  0.00  0.00    +0.000 A 
ENDROOT
BRANCH   1  16
ATOM     13  N   UNL     1       1.957  13.964  19.846  0.00  0.00    +0.000 NA
ATOM     14  C   UNL     1       0.854  14.939  19.651  0.00  0.00    +0.000 C 
ATOM     15  C   UNL     1      -0.452  14.411  18.991  0.00  0.00    +0.000 C 
ATOM     16  N   UNL     1      -0.890  13.186  19.675  0.00  0.00    +0.000 N 
ATOM     17  C   UNL     1       0.157  12.152  19.723  0.00  0.00    +0.000 C 
ATOM     18  C   UNL     1       1.399  12.724  20.446  0.00  0.00    +0.000 C 
BRANCH  13  20
ATOM     19  C   UNL     1       3.330  14.864  17.937  0.00  0.00    +0.000 C 
ATOM     20  C   UNL     1       2.717  13.650  18.629  0.00  0.00    +0.000 C 
ENDBRANCH  13  20
ENDBRANCH   1  16
BRANCH  12  21
ATOM     21  C   UNL     1      -2.254  14.010  21.974  0.00  0.00    +0.000 C 
ATOM     22  C   UNL     1      -1.515  13.564  23.007  0.00  0.00    +0.000 C 
BRANCH  22  23
ATOM     23  C   UNL     1      -1.137  12.200  23.144  0.00  0.00    +0.000 C 
ATOM     24  N   UNL     1      -0.794  11.094  23.222  0.00  0.00    +0.000 NA
ENDBRANCH  22  23
BRANCH  22  25
ATOM     25  C   UNL     1      -1.069  14.490  23.986  0.00  0.00    +0.000 C 
ATOM     26  N   UNL     1      -0.706  15.225  24.811  0.00  0.00    +0.000 NA
ENDBRANCH  22  25
ENDBRANCH  12  21
TORSDOF 5
ENDMDL
MODEL 5
REMARK VINA RESULT:      -5.5      8.389     10.838
REMARK  Name = 
REMARK  7 active torsions:
REMARK  status: ('A' for Active; 'I' for Inactive)
REMARK    1  A    between atoms: C_1  and  C_2
REMARK    2  A    between atoms: C_2  and  N_3
REMARK    3  A    between atoms: N_6  and  C_7
REMARK    4  A    between atoms: C_10  and  C_11
REMARK    5  A    between atoms: C_18  and  C_19
REMARK    6  A    between atoms: C_20  and  C_21
REMARK    7  A    between atoms: C_20  and  C_23
REMARK                            x       y       z     vdW  Elec       q    Type
REMARK                         _______ _______ _______ _____ _____    ______ ____
ROOT
ATOM      1  C   UNL     1      -2.575  12.594  20.213  0.00  0.00    +0.000 A 
ATOM      2  N   UNL     1      -3.326  12.241  19.119  0.00  0.00    +0.000 NA
ATOM      3  C   UNL     1      -4.611  12.092  19.243  0.00  0.00    +0.000 A 
ATOM      4  C   UNL     1      -5.465  11.737  18.050  0.00  0.00    +0.000 A 
ATOM      5  C   UNL     1      -4.814  11.375  16.751  0.00  0.00    +0.000 C 
ATOM      6  C   UNL     1      -6.802  11.731  18.183  0.00  0.00    +0.000 A 
ATOM      7  C   UNL     1      -7.429  11.971  19.452  0.00  0.00    +0.000 A 
ATOM      8  C   UNL     1      -6.672  12.179  20.529  0.00  0.00    +0.000 A 
ATOM      9  N   UNL     1      -5.288  12.251  20.448  0.00  0.00    +0.000 N 
ATOM     10  C   UNL     1      -4.581  12.525  21.599  0.00  0.00    +0.000 A 
ATOM     11  O   UNL     1      -5.085  12.623  22.721  0.00  0.00    +0.000 OA
ATOM     12  C   UNL     1      -3.126  12.755  21.437  0.00  0.00    +0.000 A 
ENDROOT
BRANCH   1  16
ATOM     13  N   UNL     1       1.710  13.317  20.255  0.00  0.00    +0.000 NA
ATOM     14  C   UNL     1       0.701  14.403  20.169  0.00  0.00    +0.000 C 
ATOM     15  C   UNL     1      -0.660  14.055  19.500  0.00  0.00    +0.000 C 
ATOM     16  N   UNL     1      -1.200  12.822  20.089  0.00  0.00    +0.000 N 
ATOM     17  C   UNL     1      -0.253  11.696  20.024  0.00  0.00    +0.000 C 
ATOM     18  C   UNL     1       1.049  12.087  20.762  0.00  0.00    +0.000 C 
BRANCH  13  20
ATOM     19  C   UNL     1       2.892  14.284  18.252  0.00  0.00    +0.000 C 
ATOM     20  C   UNL     1       2.417  13.040  18.998  0.00  0.00    +0.000 C 
ENDBRANCH  13  20
ENDBRANCH   1  16
BRANCH  12  21
ATOM     21  C   UNL     1      -2.385  13.278  22.582  0.00  0.00    +0.000 C 
ATOM     22  C   UNL     1      -2.197  14.576  22.883  0.00  0.00    +0.000 C 
BRANCH  22  23
ATOM     23  C   UNL     1      -2.826  15.627  22.160  0.00  0.00    +0.000 C 
ATOM     24  N   UNL     1      -3.367  16.450  21.547  0.00  0.00    +0.000 NA
ENDBRANCH  22  23
BRANCH  22  25
ATOM     25  C   UNL     1      -1.363  14.916  23.980  0.00  0.00    +0.000 C 
ATOM     26  N   UNL     1      -0.702  15.219  24.887  0.00  0.00    +0.000 NA
ENDBRANCH  22  25
ENDBRANCH  12  21
TORSDOF 5
ENDMDL
MODEL 6
REMARK VINA RESULT:      -5.4      9.253     12.144
REMARK  Name = 
REMARK  7 active torsions:
REMARK  status: ('A' for Active; 'I' for Inactive)
REMARK    1  A    between atoms: C_1  and  C_2
REMARK    2  A    between atoms: C_2  and  N_3
REMARK    3  A    between atoms: N_6  and  C_7
REMARK    4  A    between atoms: C_10  and  C_11
REMARK    5  A    between atoms: C_18  and  C_19
REMARK    6  A    between atoms: C_20  and  C_21
REMARK    7  A    between atoms: C_20  and  C_23
REMARK                            x       y       z     vdW  Elec       q    Type
REMARK                         _______ _______ _______ _____ _____    ______ ____
ROOT
ATOM      1  C   UNL     1       8.802  12.919  21.994  0.00  0.00    +0.000 A 
ATOM      2  N   UNL     1       8.934  11.984  20.998  0.00  0.00    +0.000 NA
ATOM      3  C   UNL     1       9.708  12.231  19.983  0.00  0.00    +0.000 A 
ATOM      4  C   UNL     1       9.897  11.207  18.890  0.00  0.00    +0.000 A 
ATOM      5  C   UNL     1       9.052   9.971  18.874  0.00  0.00    +0.000 C 
ATOM      6  C   UNL     1      10.813  11.435  17.933  0.00  0.00    +0.000 A 
ATOM      7  C   UNL     1      11.550  12.666  17.881  0.00  0.00    +0.000 A 
ATOM      8  C   UNL     1      11.306  13.616  18.785  0.00  0.00    +0.000 A 
ATOM      9  N   UNL     1      10.414  13.420  19.829  0.00  0.00    +0.000 N 
ATOM     10  C   UNL     1      10.261  14.431  20.754  0.00  0.00    +0.000 A 
ATOM     11  O   UNL     1      10.796  15.540  20.671  0.00  0.00    +0.000 OA
ATOM     12  C   UNL     1       9.426  14.117  21.938  0.00  0.00    +0.000 A 
ENDROOT
BRANCH   1  16
ATOM     13  N   UNL     1       6.411  12.497  25.598  0.00  0.00    +0.000 NA
ATOM     14  C   UNL     1       7.886  12.328  25.574  0.00  0.00    +0.000 C 
ATOM     15  C   UNL     1       8.522  11.834  24.243  0.00  0.00    +0.000 C 
ATOM     16  N   UNL     1       8.024  12.649  23.125  0.00  0.00    +0.000 N 
ATOM     17  C   UNL     1       6.553  12.681  23.052  0.00  0.00    +0.000 C 
ATOM     18  C   UNL     1       5.994  13.240  24.381  0.00  0.00    +0.000 C 
BRANCH  13  20
ATOM     19  C   UNL     1       4.737  11.175  26.937  0.00  0.00    +0.000 C 
ATOM     20  C   UNL     1       5.655  11.244  25.721  0.00  0.00    +0.000 C 
ENDBRANCH  13  20
ENDBRANCH   1  16
BRANCH  12  21
ATOM     21  C   UNL     1       9.429  15.067  23.048  0.00  0.00    +0.000 C 
ATOM     22  C   UNL     1       8.559  16.077  23.233  0.00  0.00    +0.000 C 
BRANCH  22  23
ATOM     23  C   UNL     1       7.420  16.267  22.403  0.00  0.00    +0.000 C 
ATOM     24  N   UNL     1       6.476  16.376  21.737  0.00  0.00    +0.000 NA
ENDBRANCH  22  23
BRANCH  22  25
ATOM     25  C   UNL     1       8.764  16.973  24.315  0.00  0.00    +0.000 C 
ATOM     26  N   UNL     1       8.957  17.688  25.211  0.00  0.00    +0.000 NA
ENDBRANCH  22  25
ENDBRANCH  12  21
TORSDOF 5
ENDMDL
MODEL 7
REMARK VINA RESULT:      -5.4      8.167     12.617
REMARK  Name = 
REMARK  7 active torsions:
REMARK  status: ('A' for Active; 'I' for Inactive)
REMARK    1  A    between atoms: C_1  and  C_2
REMARK    2  A    between atoms: C_2  and  N_3
REMARK    3  A    between atoms: N_6  and  C_7
REMARK    4  A    between atoms: C_10  and  C_11
REMARK    5  A    between atoms: C_18  and  C_19
REMARK    6  A    between atoms: C_20  and  C_21
REMARK    7  A    between atoms: C_20  and  C_23
REMARK                            x       y       z     vdW  Elec       q    Type
REMARK                         _______ _______ _______ _____ _____    ______ ____
ROOT
ATOM      1  C   UNL     1      -3.209  13.074  20.672  0.00  0.00    +0.000 A 
ATOM      2  N   UNL     1      -2.330  12.182  20.108  0.00  0.00    +0.000 NA
ATOM      3  C   UNL     1      -2.679  11.522  19.044  0.00  0.00    +0.000 A 
ATOM      4  C   UNL     1      -1.721  10.559  18.385  0.00  0.00    +0.000 A 
ATOM      5  C   UNL     1      -0.427  10.221  19.058  0.00  0.00    +0.000 C 
ATOM      6  C   UNL     1      -2.059  10.004  17.209  0.00  0.00    +0.000 A 
ATOM      7  C   UNL     1      -3.343  10.240  16.612  0.00  0.00    +0.000 A 
ATOM      8  C   UNL     1      -4.231  11.006  17.246  0.00  0.00    +0.000 A 
ATOM      9  N   UNL     1      -3.924  11.652  18.435  0.00  0.00    +0.000 N 
ATOM     10  C   UNL     1      -4.878  12.470  18.998  0.00  0.00    +0.000 A 
ATOM     11  O   UNL     1      -6.027  12.602  18.567  0.00  0.00    +0.000 OA
ATOM     12  C   UNL     1      -4.452  13.265  20.175  0.00  0.00    +0.000 A 
ENDROOT
BRANCH   1  16
ATOM     13  N   UNL     1      -2.449  15.569  24.147  0.00  0.00    +0.000 NA
ATOM     14  C   UNL     1      -2.346  16.064  22.751  0.00  0.00    +0.000 C 
ATOM     15  C   UNL     1      -1.968  15.025  21.657  0.00  0.00    +0.000 C 
ATOM     16  N   UNL     1      -2.832  13.842  21.779  0.00  0.00    +0.000 N 
ATOM     17  C   UNL     1      -2.804  13.252  23.128  0.00  0.00    +0.000 C 
ATOM     18  C   UNL     1      -3.251  14.319  24.155  0.00  0.00    +0.000 C 
BRANCH  13  20
ATOM     19  C   UNL     1      -1.132  15.769  26.285  0.00  0.00    +0.000 C 
ATOM     20  C   UNL     1      -1.158  15.358  24.816  0.00  0.00    +0.000 C 
ENDBRANCH  13  20
ENDBRANCH   1  16
BRANCH  12  21
ATOM     21  C   UNL     1      -5.349  14.313  20.654  0.00  0.00    +0.000 C 
ATOM     22  C   UNL     1      -6.355  14.157  21.535  0.00  0.00    +0.000 C 
BRANCH  22  23
ATOM     23  C   UNL     1      -6.590  12.932  22.218  0.00  0.00    +0.000 C 
ATOM     24  N   UNL     1      -6.743  11.942  22.804  0.00  0.00    +0.000 NA
ENDBRANCH  22  23
BRANCH  22  25
ATOM     25  C   UNL     1      -7.200  15.262  21.819  0.00  0.00    +0.000 C 
ATOM     26  N   UNL     1      -7.902  16.151  22.080  0.00  0.00    +0.000 NA
ENDBRANCH  22  25
ENDBRANCH  12  21
TORSDOF 5
ENDMDL
MODEL 8
REMARK VINA RESULT:      -5.3      8.472     12.477
REMARK  Name = 
REMARK  7 active torsions:
REMARK  status: ('A' for Active; 'I' for Inactive)
REMARK    1  A    between atoms: C_1  and  C_2
REMARK    2  A    between atoms: C_2  and  N_3
REMARK    3  A    between atoms: N_6  and  C_7
REMARK    4  A    between atoms: C_10  and  C_11
REMARK    5  A    between atoms: C_18  and  C_19
REMARK    6  A    between atoms: C_20  and  C_21
REMARK    7  A    between atoms: C_20  and  C_23
REMARK                            x       y       z     vdW  Elec       q    Type
REMARK                         _______ _______ _______ _____ _____    ______ ____
ROOT
ATOM      1  C   UNL     1      -3.788  13.288  20.563  0.00  0.00    +0.000 A 
ATOM      2  N   UNL     1      -4.341  12.418  19.656  0.00  0.00    +0.000 NA
ATOM      3  C   UNL     1      -3.569  11.775  18.831  0.00  0.00    +0.000 A 
ATOM      4  C   UNL     1      -4.148  10.788  17.845  0.00  0.00    +0.000 A 
ATOM      5  C   UNL     1      -5.632  10.678  17.687  0.00  0.00    +0.000 C 
ATOM      6  C   UNL     1      -3.312  10.037  17.108  0.00  0.00    +0.000 A 
ATOM      7  C   UNL     1      -1.889  10.213  17.176  0.00  0.00    +0.000 A 
ATOM      8  C   UNL     1      -1.382  11.159  17.968  0.00  0.00    +0.000 A 
ATOM      9  N   UNL     1      -2.187  11.930  18.794  0.00  0.00    +0.000 N 
ATOM     10  C   UNL     1      -1.580  12.848  19.624  0.00  0.00    +0.000 A 
ATOM     11  O   UNL     1      -0.371  13.099  19.621  0.00  0.00    +0.000 OA
ATOM     12  C   UNL     1      -2.458  13.530  20.603  0.00  0.00    +0.000 A 
ENDROOT
BRANCH   1  16
ATOM     13  N   UNL     1      -5.949  15.573  23.562  0.00  0.00    +0.000 NA
ATOM     14  C   UNL     1      -5.201  14.327  23.869  0.00  0.00    +0.000 C 
ATOM     15  C   UNL     1      -5.067  13.281  22.726  0.00  0.00    +0.000 C 
ATOM     16  N   UNL     1      -4.592  13.942  21.503  0.00  0.00    +0.000 N 
ATOM     17  C   UNL     1      -5.436  15.083  21.106  0.00  0.00    +0.000 C 
ATOM     18  C   UNL     1      -5.472  16.110  22.262  0.00  0.00    +0.000 C 
BRANCH  13  20
ATOM     19  C   UNL     1      -7.917  14.139  24.208  0.00  0.00    +0.000 C 
ATOM     20  C   UNL     1      -7.410  15.420  23.552  0.00  0.00    +0.000 C 
ENDBRANCH  13  20
ENDBRANCH   1  16
BRANCH  12  21
ATOM     21  C   UNL     1      -1.825  14.327  21.651  0.00  0.00    +0.000 C 
ATOM     22  C   UNL     1      -1.308  13.860  22.802  0.00  0.00    +0.000 C 
BRANCH  22  23
ATOM     23  C   UNL     1      -1.206  12.470  23.086  0.00  0.00    +0.000 C 
ATOM     24  N   UNL     1      -1.097  11.331  23.277  0.00  0.00    +0.000 NA
ENDBRANCH  22  23
BRANCH  22  25
ATOM     25  C   UNL     1      -0.817  14.783  23.763  0.00  0.00    +0.000 C 
ATOM     26  N   UNL     1      -0.444  15.536  24.566  0.00  0.00    +0.000 NA
ENDBRANCH  22  25
ENDBRANCH  12  21
TORSDOF 5
ENDMDL
MODEL 9
REMARK VINA RESULT:      -5.3      8.140     12.326
REMARK  Name = 
REMARK  7 active torsions:
REMARK  status: ('A' for Active; 'I' for Inactive)
REMARK    1  A    between atoms: C_1  and  C_2
REMARK    2  A    between atoms: C_2  and  N_3
REMARK    3  A    between atoms: N_6  and  C_7
REMARK    4  A    between atoms: C_10  and  C_11
REMARK    5  A    between atoms: C_18  and  C_19
REMARK    6  A    between atoms: C_20  and  C_21
REMARK    7  A    between atoms: C_20  and  C_23
REMARK                            x       y       z     vdW  Elec       q    Type
REMARK                         _______ _______ _______ _____ _____    ______ ____
ROOT
ATOM      1  C   UNL     1      -3.371  12.583  20.109  0.00  0.00    +0.000 A 
ATOM      2  N   UNL     1      -2.547  11.783  19.357  0.00  0.00    +0.000 NA
ATOM      3  C   UNL     1      -2.950  11.354  18.198  0.00  0.00    +0.000 A 
ATOM      4  C   UNL     1      -2.051  10.500  17.337  0.00  0.00    +0.000 A 
ATOM      5  C   UNL     1      -0.757   9.989  17.889  0.00  0.00    +0.000 C 
ATOM      6  C   UNL     1      -2.442  10.195  16.088  0.00  0.00    +0.000 A 
ATOM      7  C   UNL     1      -3.729  10.590  15.588  0.00  0.00    +0.000 A 
ATOM      8  C   UNL     1      -4.567  11.253  16.386  0.00  0.00    +0.000 A 
ATOM      9  N   UNL     1      -4.203  11.645  17.666  0.00  0.00    +0.000 N 
ATOM     10  C   UNL     1      -5.106  12.376  18.406  0.00  0.00    +0.000 A 
ATOM     11  O   UNL     1      -6.259  12.633  18.046  0.00  0.00    +0.000 OA
ATOM     12  C   UNL     1      -4.616  12.913  19.698  0.00  0.00    +0.000 A 
ENDROOT
BRANCH   1  16
ATOM     13  N   UNL     1      -1.616  14.105  23.781  0.00  0.00    +0.000 NA
ATOM     14  C   UNL     1      -2.135  12.721  23.638  0.00  0.00    +0.000 C 
ATOM     15  C   UNL     1      -3.288  12.498  22.618  0.00  0.00    +0.000 C 
ATOM     16  N   UNL     1      -2.933  13.109  21.329  0.00  0.00    +0.000 N 
ATOM     17  C   UNL     1      -2.576  14.532  21.451  0.00  0.00    +0.000 C 
ATOM     18  C   UNL     1      -1.385  14.673  22.428  0.00  0.00    +0.000 C 
BRANCH  13  20
ATOM     19  C   UNL     1      -1.760  15.682  25.740  0.00  0.00    +0.000 C 
ATOM     20  C   UNL     1      -2.470  14.998  24.576  0.00  0.00    +0.000 C 
ENDBRANCH  13  20
ENDBRANCH   1  16
BRANCH  12  21
ATOM     21  C   UNL     1      -5.455  13.883  20.398  0.00  0.00    +0.000 C 
ATOM     22  C   UNL     1      -6.525  13.602  21.166  0.00  0.00    +0.000 C 
BRANCH  22  23
ATOM     23  C   UNL     1      -6.901  12.270  21.495  0.00  0.00    +0.000 C 
ATOM     24  N   UNL     1      -7.193  11.170  21.718  0.00  0.00    +0.000 NA
ENDBRANCH  22  23
BRANCH  22  25
ATOM     25  C   UNL     1      -7.294  14.671  21.694  0.00  0.00    +0.000 C 
ATOM     26  N   UNL     1      -7.915  15.538  22.158  0.00  0.00    +0.000 NA
ENDBRANCH  22  25
ENDBRANCH  12  21
TORSDOF 5
ENDMDL
