MODEL 1
REMARK VINA RESULT:      -7.5      0.000      0.000
REMARK  Name = 
REMARK  10 active torsions:
REMARK  status: ('A' for Active; 'I' for Inactive)
REMARK    1  A    between atoms: C_1  and  C_2
REMARK    2  A    between atoms: C_2  and  N_3
REMARK    3  A    between atoms: N_3  and  C_4
REMARK    4  A    between atoms: C_4  and  C_5
REMARK    5  A    between atoms: C_5  and  N_6
REMARK    6  A    between atoms: C_11  and  C_13
REMARK    7  A    between atoms: C_13  and  C_14
REMARK    8  A    between atoms: N_20  and  C_21
REMARK    9  A    between atoms: C_21  and  C_22
REMARK   10  A    between atoms: C_22  and  C_23
REMARK                            x       y       z     vdW  Elec       q    Type
REMARK                         _______ _______ _______ _____ _____    ______ ____
ROOT
ATOM      1  C   UNL     1       4.124   4.256  19.801  0.00  0.00    +0.000 C 
ATOM      2  C   UNL     1       3.558   2.800  19.878  0.00  0.00    +0.000 C 
ATOM      3  O   UNL     1       4.236   1.805  19.615  0.00  0.00    +0.000 OA
ATOM      4  N   UNL     1       2.287   2.598  20.341  0.00  0.00    +0.000 N 
ATOM      5  C   UNL     1       1.346   3.673  20.515  0.00  0.00    +0.000 C 
ATOM      6  C   UNL     1       2.078   4.943  20.938  0.00  0.00    +0.000 C 
ATOM      7  N   UNL     1       3.076   5.345  19.920  0.00  0.00    +0.000 NA
ATOM      8  H   UNL     1       1.978   1.634  20.352  0.00  0.00    +0.000 HD
ENDROOT
BRANCH   1   9
ATOM      9  C   UNL     1       5.049   4.352  18.567  0.00  0.00    +0.000 C 
BRANCH   9  11
ATOM     10  N   UNL     1       6.697   6.131  17.839  0.00  0.00    +0.000 N 
ATOM     11  C   UNL     1       6.277   5.220  18.825  0.00  0.00    +0.000 C 
ATOM     12  O   UNL     1       6.808   5.171  19.937  0.00  0.00    +0.000 OA
BRANCH  10  14
ATOM     13  C   UNL     1       5.737   5.603  15.531  0.00  0.00    +0.000 C 
ATOM     14  C   UNL     1       5.815   6.543  16.733  0.00  0.00    +0.000 C 
ENDBRANCH  10  14
BRANCH  10  15
ATOM     15  C   UNL     1       7.749   7.111  18.237  0.00  0.00    +0.000 C 
BRANCH  15  16
ATOM     16  C   UNL     1       7.778   8.419  17.432  0.00  0.00    +0.000 C 
BRANCH  16  17
ATOM     17  N   UNL     1       8.332   9.565  18.136  0.00  0.00    +0.000 N 
ATOM     18  C   UNL     1       9.152   9.527  19.235  0.00  0.00    +0.000 A 
ATOM     19  C   UNL     1       9.686  10.781  19.362  0.00  0.00    +0.000 A 
ATOM     20  C   UNL     1       9.075  11.530  18.327  0.00  0.00    +0.000 A 
ATOM     21  N   UNL     1       8.229  10.803  17.598  0.00  0.00    +0.000 NA
ENDBRANCH  16  17
ENDBRANCH  15  16
ENDBRANCH  10  15
ENDBRANCH   9  11
ENDBRANCH   1   9
BRANCH   7  22
ATOM     22  C   UNL     1       2.460   5.821  18.661  0.00  0.00    +0.000 C 
BRANCH  22  23
ATOM     23  C   UNL     1       2.837   7.289  18.339  0.00  0.00    +0.000 C 
BRANCH  23  24
ATOM     24  C   UNL     1       1.875   8.349  18.822  0.00  0.00    +0.000 A 
ATOM     25  C   UNL     1       1.532   8.416  20.182  0.00  0.00    +0.000 A 
ATOM     26  C   UNL     1       0.805   9.498  20.681  0.00  0.00    +0.000 A 
ATOM     27  C   UNL     1       0.408  10.521  19.823  0.00  0.00    +0.000 A 
ATOM     28  C   UNL     1       0.701  10.440  18.462  0.00  0.00    +0.000 A 
ATOM     29  C   UNL     1       1.423   9.354  17.960  0.00  0.00    +0.000 A 
ENDBRANCH  23  24
ENDBRANCH  22  23
ENDBRANCH   7  22
TORSDOF 9
ENDMDL
MODEL 2
REMARK VINA RESULT:      -7.4      0.496      1.193
REMARK  Name = 
REMARK  10 active torsions:
REMARK  status: ('A' for Active; 'I' for Inactive)
REMARK    1  A    between atoms: C_1  and  C_2
REMARK    2  A    between atoms: C_2  and  N_3
REMARK    3  A    between atoms: N_3  and  C_4
REMARK    4  A    between atoms: C_4  and  C_5
REMARK    5  A    between atoms: C_5  and  N_6
REMARK    6  A    between atoms: C_11  and  C_13
REMARK    7  A    between atoms: C_13  and  C_14
REMARK    8  A    between atoms: N_20  and  C_21
REMARK    9  A    between atoms: C_21  and  C_22
REMARK   10  A    between atoms: C_22  and  C_23
REMARK                            x       y       z     vdW  Elec       q    Type
REMARK                         _______ _______ _______ _____ _____    ______ ____
ROOT
ATOM      1  C   UNL     1       4.070   4.415  19.699  0.00  0.00    +0.000 C 
ATOM      2  C   UNL     1       3.466   2.974  19.778  0.00  0.00    +0.000 C 
ATOM      3  O   UNL     1       4.116   1.962  19.514  0.00  0.00    +0.000 OA
ATOM      4  N   UNL     1       2.191   2.806  20.246  0.00  0.00    +0.000 N 
ATOM      5  C   UNL     1       1.280   3.905  20.422  0.00  0.00    +0.000 C 
ATOM      6  C   UNL     1       2.046   5.156  20.842  0.00  0.00    +0.000 C 
ATOM      7  N   UNL     1       3.052   5.531  19.821  0.00  0.00    +0.000 NA
ATOM      8  H   UNL     1       1.858   1.851  20.258  0.00  0.00    +0.000 HD
ENDROOT
BRANCH   1   9
ATOM      9  C   UNL     1       4.994   4.486  18.462  0.00  0.00    +0.000 C 
BRANCH   9  11
ATOM     10  N   UNL     1       6.695   6.221  17.750  0.00  0.00    +0.000 N 
ATOM     11  C   UNL     1       6.254   5.305  18.723  0.00  0.00    +0.000 C 
ATOM     12  O   UNL     1       6.796   5.214  19.827  0.00  0.00    +0.000 OA
BRANCH  10  14
ATOM     13  C   UNL     1       5.592   5.721  15.501  0.00  0.00    +0.000 C 
ATOM     14  C   UNL     1       5.815   6.687  16.663  0.00  0.00    +0.000 C 
ENDBRANCH  10  14
BRANCH  10  15
ATOM     15  C   UNL     1       7.785   7.155  18.155  0.00  0.00    +0.000 C 
BRANCH  15  16
ATOM     16  C   UNL     1       7.614   8.613  17.701  0.00  0.00    +0.000 C 
BRANCH  16  17
ATOM     17  N   UNL     1       8.574   9.551  18.264  0.00  0.00    +0.000 N 
ATOM     18  C   UNL     1       9.024  10.705  17.675  0.00  0.00    +0.000 A 
ATOM     19  C   UNL     1       9.640  11.426  18.663  0.00  0.00    +0.000 A 
ATOM     20  C   UNL     1       9.570  10.592  19.804  0.00  0.00    +0.000 A 
ATOM     21  N   UNL     1       8.949   9.438  19.560  0.00  0.00    +0.000 NA
ENDBRANCH  16  17
ENDBRANCH  15  16
ENDBRANCH  10  15
ENDBRANCH   9  11
ENDBRANCH   1   9
BRANCH   7  22
ATOM     22  C   UNL     1       2.444   6.023  18.563  0.00  0.00    +0.000 C 
BRANCH  22  23
ATOM     23  C   UNL     1       2.784   7.509  18.287  0.00  0.00    +0.000 C 
BRANCH  23  24
ATOM     24  C   UNL     1       1.793   8.529  18.799  0.00  0.00    +0.000 A 
ATOM     25  C   UNL     1       1.097   9.346  17.893  0.00  0.00    +0.000 A 
ATOM     26  C   UNL     1       0.042  10.152  18.324  0.00  0.00    +0.000 A 
ATOM     27  C   UNL     1      -0.322  10.153  19.669  0.00  0.00    +0.000 A 
ATOM     28  C   UNL     1       0.393   9.384  20.585  0.00  0.00    +0.000 A 
ATOM     29  C   UNL     1       1.453   8.581  20.156  0.00  0.00    +0.000 A 
ENDBRANCH  23  24
ENDBRANCH  22  23
ENDBRANCH   7  22
TORSDOF 9
ENDMDL
MODEL 3
REMARK VINA RESULT:      -7.4      2.835      6.712
REMARK  Name = 
REMARK  10 active torsions:
REMARK  status: ('A' for Active; 'I' for Inactive)
REMARK    1  A    between atoms: C_1  and  C_2
REMARK    2  A    between atoms: C_2  and  N_3
REMARK    3  A    between atoms: N_3  and  C_4
REMARK    4  A    between atoms: C_4  and  C_5
REMARK    5  A    between atoms: C_5  and  N_6
REMARK    6  A    between atoms: C_11  and  C_13
REMARK    7  A    between atoms: C_13  and  C_14
REMARK    8  A    between atoms: N_20  and  C_21
REMARK    9  A    between atoms: C_21  and  C_22
REMARK   10  A    between atoms: C_22  and  C_23
REMARK                            x       y       z     vdW  Elec       q    Type
REMARK                         _______ _______ _______ _____ _____    ______ ____
ROOT
ATOM      1  C   UNL     1       2.108   4.808  18.756  0.00  0.00    +0.000 C 
ATOM      2  C   UNL     1       1.561   3.903  19.907  0.00  0.00    +0.000 C 
ATOM      3  O   UNL     1       1.010   4.358  20.911  0.00  0.00    +0.000 OA
ATOM      4  N   UNL     1       1.606   2.542  19.770  0.00  0.00    +0.000 N 
ATOM      5  C   UNL     1       2.369   1.893  18.737  0.00  0.00    +0.000 C 
ATOM      6  C   UNL     1       2.371   2.750  17.474  0.00  0.00    +0.000 C 
ATOM      7  N   UNL     1       2.963   4.082  17.737  0.00  0.00    +0.000 NA
ATOM      8  H   UNL     1       1.249   2.016  20.557  0.00  0.00    +0.000 HD
ENDROOT
BRANCH   1   9
ATOM      9  C   UNL     1       2.748   6.065  19.389  0.00  0.00    +0.000 C 
BRANCH   9  11
ATOM     10  N   UNL     1       1.744   8.379  19.174  0.00  0.00    +0.000 N 
ATOM     11  C   UNL     1       2.470   7.329  18.582  0.00  0.00    +0.000 C 
ATOM     12  O   UNL     1       2.980   7.438  17.465  0.00  0.00    +0.000 OA
BRANCH  10  14
ATOM     13  C   UNL     1       0.139   8.203  21.154  0.00  0.00    +0.000 C 
ATOM     14  C   UNL     1       1.550   8.467  20.633  0.00  0.00    +0.000 C 
ENDBRANCH  10  14
BRANCH  10  15
ATOM     15  C   UNL     1       1.708   9.672  18.430  0.00  0.00    +0.000 C 
BRANCH  15  16
ATOM     16  C   UNL     1       0.874  10.788  19.077  0.00  0.00    +0.000 C 
BRANCH  16  17
ATOM     17  N   UNL     1      -0.489  10.905  18.582  0.00  0.00    +0.000 N 
ATOM     18  C   UNL     1      -1.132  10.023  17.751  0.00  0.00    +0.000 A 
ATOM     19  C   UNL     1      -2.463  10.340  17.807  0.00  0.00    +0.000 A 
ATOM     20  C   UNL     1      -2.519  11.476  18.651  0.00  0.00    +0.000 A 
ATOM     21  N   UNL     1      -1.318  11.842  19.100  0.00  0.00    +0.000 NA
ENDBRANCH  16  17
ENDBRANCH  15  16
ENDBRANCH  10  15
ENDBRANCH   9  11
ENDBRANCH   1   9
BRANCH   7  22
ATOM     22  C   UNL     1       4.419   4.027  18.002  0.00  0.00    +0.000 C 
BRANCH  22  23
ATOM     23  C   UNL     1       5.244   4.757  16.912  0.00  0.00    +0.000 C 
BRANCH  23  24
ATOM     24  C   UNL     1       6.371   5.636  17.403  0.00  0.00    +0.000 A 
ATOM     25  C   UNL     1       6.562   6.910  16.843  0.00  0.00    +0.000 A 
ATOM     26  C   UNL     1       7.466   7.809  17.409  0.00  0.00    +0.000 A 
ATOM     27  C   UNL     1       8.193   7.441  18.539  0.00  0.00    +0.000 A 
ATOM     28  C   UNL     1       8.048   6.162  19.073  0.00  0.00    +0.000 A 
ATOM     29  C   UNL     1       7.148   5.257  18.504  0.00  0.00    +0.000 A 
ENDBRANCH  23  24
ENDBRANCH  22  23
ENDBRANCH   7  22
TORSDOF 9
ENDMDL
MODEL 4
REMARK VINA RESULT:      -7.4      2.934      6.840
REMARK  Name = 
REMARK  10 active torsions:
REMARK  status: ('A' for Active; 'I' for Inactive)
REMARK    1  A    between atoms: C_1  and  C_2
REMARK    2  A    between atoms: C_2  and  N_3
REMARK    3  A    between atoms: N_3  and  C_4
REMARK    4  A    between atoms: C_4  and  C_5
REMARK    5  A    between atoms: C_5  and  N_6
REMARK    6  A    between atoms: C_11  and  C_13
REMARK    7  A    between atoms: C_13  and  C_14
REMARK    8  A    between atoms: N_20  and  C_21
REMARK    9  A    between atoms: C_21  and  C_22
REMARK   10  A    between atoms: C_22  and  C_23
REMARK                            x       y       z     vdW  Elec       q    Type
REMARK                         _______ _______ _______ _____ _____    ______ ____
ROOT
ATOM      1  C   UNL     1       4.741   5.928  18.174  0.00  0.00    +0.000 C 
ATOM      2  C   UNL     1       5.521   6.866  17.196  0.00  0.00    +0.000 C 
ATOM      3  O   UNL     1       5.224   8.049  17.025  0.00  0.00    +0.000 OA
ATOM      4  N   UNL     1       6.639   6.395  16.562  0.00  0.00    +0.000 N 
ATOM      5  C   UNL     1       6.988   4.999  16.543  0.00  0.00    +0.000 C 
ATOM      6  C   UNL     1       6.563   4.338  17.853  0.00  0.00    +0.000 C 
ATOM      7  N   UNL     1       5.102   4.460  18.060  0.00  0.00    +0.000 NA
ATOM      8  H   UNL     1       7.087   7.048  15.933  0.00  0.00    +0.000 HD
ENDROOT
BRANCH   1   9
ATOM      9  C   UNL     1       3.235   6.256  18.064  0.00  0.00    +0.000 C 
BRANCH   9  11
ATOM     10  N   UNL     1       1.923   7.868  19.509  0.00  0.00    +0.000 N 
ATOM     11  C   UNL     1       2.626   6.653  19.405  0.00  0.00    +0.000 C 
ATOM     12  O   UNL     1       2.678   5.847  20.336  0.00  0.00    +0.000 OA
BRANCH  10  14
ATOM     13  C   UNL     1       2.069   9.962  18.053  0.00  0.00    +0.000 C 
ATOM     14  C   UNL     1       1.442   8.594  18.320  0.00  0.00    +0.000 C 
ENDBRANCH  10  14
BRANCH  10  15
ATOM     15  C   UNL     1       1.153   8.090  20.768  0.00  0.00    +0.000 C 
BRANCH  15  16
ATOM     16  C   UNL     1       1.601   9.288  21.618  0.00  0.00    +0.000 C 
BRANCH  16  17
ATOM     17  N   UNL     1       0.550  10.239  21.948  0.00  0.00    +0.000 N 
ATOM     18  C   UNL     1      -0.103  11.066  21.070  0.00  0.00    +0.000 A 
ATOM     19  C   UNL     1      -1.207  11.534  21.731  0.00  0.00    +0.000 A 
ATOM     20  C   UNL     1      -1.099  10.983  23.031  0.00  0.00    +0.000 A 
ATOM     21  N   UNL     1      -0.017  10.220  23.177  0.00  0.00    +0.000 NA
ENDBRANCH  16  17
ENDBRANCH  15  16
ENDBRANCH  10  15
ENDBRANCH   9  11
ENDBRANCH   1   9
BRANCH   7  22
ATOM     22  C   UNL     1       4.312   3.650  17.105  0.00  0.00    +0.000 C 
BRANCH  22  23
ATOM     23  C   UNL     1       3.659   2.417  17.779  0.00  0.00    +0.000 C 
BRANCH  23  24
ATOM     24  C   UNL     1       2.879   2.681  19.046  0.00  0.00    +0.000 A 
ATOM     25  C   UNL     1       1.506   2.967  18.977  0.00  0.00    +0.000 A 
ATOM     26  C   UNL     1       0.730   3.020  20.136  0.00  0.00    +0.000 A 
ATOM     27  C   UNL     1       1.322   2.795  21.376  0.00  0.00    +0.000 A 
ATOM     28  C   UNL     1       2.694   2.559  21.460  0.00  0.00    +0.000 A 
ATOM     29  C   UNL     1       3.473   2.511  20.302  0.00  0.00    +0.000 A 
ENDBRANCH  23  24
ENDBRANCH  22  23
ENDBRANCH   7  22
TORSDOF 9
ENDMDL
MODEL 5
REMARK VINA RESULT:      -7.4      2.858      6.550
REMARK  Name = 
REMARK  10 active torsions:
REMARK  status: ('A' for Active; 'I' for Inactive)
REMARK    1  A    between atoms: C_1  and  C_2
REMARK    2  A    between atoms: C_2  and  N_3
REMARK    3  A    between atoms: N_3  and  C_4
REMARK    4  A    between atoms: C_4  and  C_5
REMARK    5  A    between atoms: C_5  and  N_6
REMARK    6  A    between atoms: C_11  and  C_13
REMARK    7  A    between atoms: C_13  and  C_14
REMARK    8  A    between atoms: N_20  and  C_21
REMARK    9  A    between atoms: C_21  and  C_22
REMARK   10  A    between atoms: C_22  and  C_23
REMARK                            x       y       z     vdW  Elec       q    Type
REMARK                         _______ _______ _______ _____ _____    ______ ____
ROOT
ATOM      1  C   UNL     1       2.284   4.848  18.692  0.00  0.00    +0.000 C 
ATOM      2  C   UNL     1       1.658   4.006  19.851  0.00  0.00    +0.000 C 
ATOM      3  O   UNL     1       1.156   4.518  20.853  0.00  0.00    +0.000 OA
ATOM      4  N   UNL     1       1.573   2.646  19.724  0.00  0.00    +0.000 N 
ATOM      5  C   UNL     1       2.268   1.921  18.693  0.00  0.00    +0.000 C 
ATOM      6  C   UNL     1       2.346   2.765  17.423  0.00  0.00    +0.000 C 
ATOM      7  N   UNL     1       3.063   4.036  17.675  0.00  0.00    +0.000 NA
ATOM      8  H   UNL     1       1.171   2.162  20.515  0.00  0.00    +0.000 HD
ENDROOT
BRANCH   1   9
ATOM      9  C   UNL     1       3.042   6.042  19.314  0.00  0.00    +0.000 C 
BRANCH   9  11
ATOM     10  N   UNL     1       1.747   8.217  19.364  0.00  0.00    +0.000 N 
ATOM     11  C   UNL     1       2.647   7.375  18.685  0.00  0.00    +0.000 C 
ATOM     12  O   UNL     1       3.209   7.723  17.644  0.00  0.00    +0.000 OA
BRANCH  10  14
ATOM     13  C   UNL     1       1.182   9.318  21.599  0.00  0.00    +0.000 C 
ATOM     14  C   UNL     1       1.450   8.045  20.797  0.00  0.00    +0.000 C 
ENDBRANCH  10  14
BRANCH  10  15
ATOM     15  C   UNL     1       1.583   9.597  18.822  0.00  0.00    +0.000 C 
BRANCH  15  16
ATOM     16  C   UNL     1       0.228   9.896  18.163  0.00  0.00    +0.000 C 
BRANCH  16  17
ATOM     17  N   UNL     1      -0.524  10.987  18.763  0.00  0.00    +0.000 N 
ATOM     18  C   UNL     1      -0.049  12.242  19.048  0.00  0.00    +0.000 A 
ATOM     19  C   UNL     1      -1.147  13.024  19.289  0.00  0.00    +0.000 A 
ATOM     20  C   UNL     1      -2.243  12.132  19.190  0.00  0.00    +0.000 A 
ATOM     21  N   UNL     1      -1.867  10.887  18.901  0.00  0.00    +0.000 NA
ENDBRANCH  16  17
ENDBRANCH  15  16
ENDBRANCH  10  15
ENDBRANCH   9  11
ENDBRANCH   1   9
BRANCH   7  22
ATOM     22  C   UNL     1       4.508   3.846  17.936  0.00  0.00    +0.000 C 
BRANCH  22  23
ATOM     23  C   UNL     1       5.395   4.648  16.952  0.00  0.00    +0.000 C 
BRANCH  23  24
ATOM     24  C   UNL     1       6.293   5.698  17.564  0.00  0.00    +0.000 A 
ATOM     25  C   UNL     1       7.081   5.380  18.683  0.00  0.00    +0.000 A 
ATOM     26  C   UNL     1       8.056   6.266  19.143  0.00  0.00    +0.000 A 
ATOM     27  C   UNL     1       8.249   7.482  18.491  0.00  0.00    +0.000 A 
ATOM     28  C   UNL     1       7.440   7.829  17.410  0.00  0.00    +0.000 A 
ATOM     29  C   UNL     1       6.459   6.946  16.953  0.00  0.00    +0.000 A 
ENDBRANCH  23  24
ENDBRANCH  22  23
ENDBRANCH   7  22
TORSDOF 9
ENDMDL
MODEL 6
REMARK VINA RESULT:      -7.3      3.312      6.877
REMARK  Name = 
REMARK  10 active torsions:
REMARK  status: ('A' for Active; 'I' for Inactive)
REMARK    1  A    between atoms: C_1  and  C_2
REMARK    2  A    between atoms: C_2  and  N_3
REMARK    3  A    between atoms: N_3  and  C_4
REMARK    4  A    between atoms: C_4  and  C_5
REMARK    5  A    between atoms: C_5  and  N_6
REMARK    6  A    between atoms: C_11  and  C_13
REMARK    7  A    between atoms: C_13  and  C_14
REMARK    8  A    between atoms: N_20  and  C_21
REMARK    9  A    between atoms: C_21  and  C_22
REMARK   10  A    between atoms: C_22  and  C_23
REMARK                            x       y       z     vdW  Elec       q    Type
REMARK                         _______ _______ _______ _____ _____    ______ ____
ROOT
ATOM      1  C   UNL     1       4.306   5.740  17.843  0.00  0.00    +0.000 C 
ATOM      2  C   UNL     1       4.732   6.680  16.668  0.00  0.00    +0.000 C 
ATOM      3  O   UNL     1       4.284   7.819  16.527  0.00  0.00    +0.000 OA
ATOM      4  N   UNL     1       5.710   6.271  15.802  0.00  0.00    +0.000 N 
ATOM      5  C   UNL     1       6.185   4.914  15.756  0.00  0.00    +0.000 C 
ATOM      6  C   UNL     1       6.153   4.302  17.154  0.00  0.00    +0.000 C 
ATOM      7  N   UNL     1       4.777   4.306  17.704  0.00  0.00    +0.000 NA
ATOM      8  H   UNL     1       5.928   6.921  15.058  0.00  0.00    +0.000 HD
ENDROOT
BRANCH   1   9
ATOM      9  C   UNL     1       2.792   5.924  18.088  0.00  0.00    +0.000 C 
BRANCH   9  11
ATOM     10  N   UNL     1       2.157   8.001  19.389  0.00  0.00    +0.000 N 
ATOM     11  C   UNL     1       2.496   6.636  19.404  0.00  0.00    +0.000 C 
ATOM     12  O   UNL     1       2.462   5.967  20.439  0.00  0.00    +0.000 OA
BRANCH  10  14
ATOM     13  C   UNL     1       1.858  10.205  18.131  0.00  0.00    +0.000 C 
ATOM     14  C   UNL     1       1.727   8.683  18.155  0.00  0.00    +0.000 C 
ENDBRANCH  10  14
BRANCH  10  15
ATOM     15  C   UNL     1       1.651   8.580  20.667  0.00  0.00    +0.000 C 
BRANCH  15  16
ATOM     16  C   UNL     1       0.135   8.474  20.890  0.00  0.00    +0.000 C 
BRANCH  16  17
ATOM     17  N   UNL     1      -0.471   9.612  21.566  0.00  0.00    +0.000 N 
ATOM     18  C   UNL     1      -0.654   9.752  22.918  0.00  0.00    +0.000 A 
ATOM     19  C   UNL     1      -0.945  11.073  23.132  0.00  0.00    +0.000 A 
ATOM     20  C   UNL     1      -0.979  11.641  21.836  0.00  0.00    +0.000 A 
ATOM     21  N   UNL     1      -0.722  10.751  20.878  0.00  0.00    +0.000 NA
ENDBRANCH  16  17
ENDBRANCH  15  16
ENDBRANCH  10  15
ENDBRANCH   9  11
ENDBRANCH   1   9
BRANCH   7  22
ATOM     22  C   UNL     1       3.871   3.369  17.002  0.00  0.00    +0.000 C 
BRANCH  22  23
ATOM     23  C   UNL     1       3.565   2.104  17.842  0.00  0.00    +0.000 C 
BRANCH  23  24
ATOM     24  C   UNL     1       2.709   2.307  19.071  0.00  0.00    +0.000 A 
ATOM     25  C   UNL     1       3.299   2.297  20.345  0.00  0.00    +0.000 A 
ATOM     26  C   UNL     1       2.567   2.674  21.472  0.00  0.00    +0.000 A 
ATOM     27  C   UNL     1       1.235   3.059  21.336  0.00  0.00    +0.000 A 
ATOM     28  C   UNL     1       0.626   3.025  20.083  0.00  0.00    +0.000 A 
ATOM     29  C   UNL     1       1.355   2.641  18.954  0.00  0.00    +0.000 A 
ENDBRANCH  23  24
ENDBRANCH  22  23
ENDBRANCH   7  22
TORSDOF 9
ENDMDL
MODEL 7
REMARK VINA RESULT:      -7.2      0.795      1.235
REMARK  Name = 
REMARK  10 active torsions:
REMARK  status: ('A' for Active; 'I' for Inactive)
REMARK    1  A    between atoms: C_1  and  C_2
REMARK    2  A    between atoms: C_2  and  N_3
REMARK    3  A    between atoms: N_3  and  C_4
REMARK    4  A    between atoms: C_4  and  C_5
REMARK    5  A    between atoms: C_5  and  N_6
REMARK    6  A    between atoms: C_11  and  C_13
REMARK    7  A    between atoms: C_13  and  C_14
REMARK    8  A    between atoms: N_20  and  C_21
REMARK    9  A    between atoms: C_21  and  C_22
REMARK   10  A    between atoms: C_22  and  C_23
REMARK                            x       y       z     vdW  Elec       q    Type
REMARK                         _______ _______ _______ _____ _____    ______ ____
ROOT
ATOM      1  C   UNL     1       3.702   3.615  19.262  0.00  0.00    +0.000 C 
ATOM      2  C   UNL     1       3.012   2.220  19.105  0.00  0.00    +0.000 C 
ATOM      3  O   UNL     1       3.595   1.233  18.653  0.00  0.00    +0.000 OA
ATOM      4  N   UNL     1       1.735   2.048  19.566  0.00  0.00    +0.000 N 
ATOM      5  C   UNL     1       0.895   3.151  19.952  0.00  0.00    +0.000 C 
ATOM      6  C   UNL     1       1.743   4.262  20.564  0.00  0.00    +0.000 C 
ATOM      7  N   UNL     1       2.756   4.750  19.600  0.00  0.00    +0.000 NA
ATOM      8  H   UNL     1       1.343   1.126  19.420  0.00  0.00    +0.000 HD
ENDROOT
BRANCH   1   9
ATOM      9  C   UNL     1       4.612   3.847  18.035  0.00  0.00    +0.000 C 
BRANCH   9  11
ATOM     10  N   UNL     1       6.500   5.385  17.343  0.00  0.00    +0.000 N 
ATOM     11  C   UNL     1       5.840   4.687  18.371  0.00  0.00    +0.000 C 
ATOM     12  O   UNL     1       6.160   4.814  19.555  0.00  0.00    +0.000 OA
BRANCH  10  14
ATOM     13  C   UNL     1       6.497   4.952  14.825  0.00  0.00    +0.000 C 
ATOM     14  C   UNL     1       5.863   5.634  16.037  0.00  0.00    +0.000 C 
ENDBRANCH  10  14
BRANCH  10  15
ATOM     15  C   UNL     1       7.540   6.370  17.761  0.00  0.00    +0.000 C 
BRANCH  15  16
ATOM     16  C   UNL     1       7.390   7.783  17.179  0.00  0.00    +0.000 C 
BRANCH  16  17
ATOM     17  N   UNL     1       7.939   8.851  18.000  0.00  0.00    +0.000 N 
ATOM     18  C   UNL     1       8.870   8.713  18.999  0.00  0.00    +0.000 A 
ATOM     19  C   UNL     1       9.331   9.973  19.272  0.00  0.00    +0.000 A 
ATOM     20  C   UNL     1       8.568  10.818  18.430  0.00  0.00    +0.000 A 
ATOM     21  N   UNL     1       7.700  10.144  17.677  0.00  0.00    +0.000 NA
ENDBRANCH  16  17
ENDBRANCH  15  16
ENDBRANCH  10  15
ENDBRANCH   9  11
ENDBRANCH   1   9
BRANCH   7  22
ATOM     22  C   UNL     1       2.164   5.489  18.462  0.00  0.00    +0.000 C 
BRANCH  22  23
ATOM     23  C   UNL     1       2.866   6.847  18.211  0.00  0.00    +0.000 C 
BRANCH  23  24
ATOM     24  C   UNL     1       2.151   8.075  18.724  0.00  0.00    +0.000 A 
ATOM     25  C   UNL     1       1.805   9.106  17.835  0.00  0.00    +0.000 A 
ATOM     26  C   UNL     1       0.978  10.153  18.245  0.00  0.00    +0.000 A 
ATOM     27  C   UNL     1       0.494  10.182  19.551  0.00  0.00    +0.000 A 
ATOM     28  C   UNL     1       0.872   9.191  20.455  0.00  0.00    +0.000 A 
ATOM     29  C   UNL     1       1.705   8.145  20.048  0.00  0.00    +0.000 A 
ENDBRANCH  23  24
ENDBRANCH  22  23
ENDBRANCH   7  22
TORSDOF 9
ENDMDL
MODEL 8
REMARK VINA RESULT:      -7.2      3.339      6.930
REMARK  Name = 
REMARK  10 active torsions:
REMARK  status: ('A' for Active; 'I' for Inactive)
REMARK    1  A    between atoms: C_1  and  C_2
REMARK    2  A    between atoms: C_2  and  N_3
REMARK    3  A    between atoms: N_3  and  C_4
REMARK    4  A    between atoms: C_4  and  C_5
REMARK    5  A    between atoms: C_5  and  N_6
REMARK    6  A    between atoms: C_11  and  C_13
REMARK    7  A    between atoms: C_13  and  C_14
REMARK    8  A    between atoms: N_20  and  C_21
REMARK    9  A    between atoms: C_21  and  C_22
REMARK   10  A    between atoms: C_22  and  C_23
REMARK                            x       y       z     vdW  Elec       q    Type
REMARK                         _______ _______ _______ _____ _____    ______ ____
ROOT
ATOM      1  C   UNL     1       2.466   4.938  19.070  0.00  0.00    +0.000 C 
ATOM      2  C   UNL     1       1.596   3.901  19.853  0.00  0.00    +0.000 C 
ATOM      3  O   UNL     1       0.598   4.220  20.502  0.00  0.00    +0.000 OA
ATOM      4  N   UNL     1       1.887   2.568  19.752  0.00  0.00    +0.000 N 
ATOM      5  C   UNL     1       3.113   2.085  19.173  0.00  0.00    +0.000 C 
ATOM      6  C   UNL     1       3.557   3.012  18.044  0.00  0.00    +0.000 C 
ATOM      7  N   UNL     1       3.777   4.389  18.543  0.00  0.00    +0.000 NA
ATOM      8  H   UNL     1       1.295   1.954  20.295  0.00  0.00    +0.000 HD
ENDROOT
BRANCH   1   9
ATOM      9  C   UNL     1       2.574   6.223  19.921  0.00  0.00    +0.000 C 
BRANCH   9  11
ATOM     10  N   UNL     1       1.432   8.474  19.728  0.00  0.00    +0.000 N 
ATOM     11  C   UNL     1       2.224   7.479  19.128  0.00  0.00    +0.000 C 
ATOM     12  O   UNL     1       2.733   7.632  18.016  0.00  0.00    +0.000 OA
BRANCH  10  14
ATOM     13  C   UNL     1      -0.221   8.483  21.676  0.00  0.00    +0.000 C 
ATOM     14  C   UNL     1       1.225   8.531  21.187  0.00  0.00    +0.000 C 
ENDBRANCH  10  14
BRANCH  10  15
ATOM     15  C   UNL     1       1.322   9.772  19.001  0.00  0.00    +0.000 C 
BRANCH  15  16
ATOM     16  C   UNL     1       0.042   9.963  18.173  0.00  0.00    +0.000 C 
BRANCH  16  17
ATOM     17  N   UNL     1      -0.997  10.754  18.816  0.00  0.00    +0.000 N 
ATOM     18  C   UNL     1      -0.824  11.632  19.855  0.00  0.00    +0.000 A 
ATOM     19  C   UNL     1      -1.970  12.380  19.922  0.00  0.00    +0.000 A 
ATOM     20  C   UNL     1      -2.806  11.832  18.919  0.00  0.00    +0.000 A 
ATOM     21  N   UNL     1      -2.231  10.825  18.265  0.00  0.00    +0.000 NA
ENDBRANCH  16  17
ENDBRANCH  15  16
ENDBRANCH  10  15
ENDBRANCH   9  11
ENDBRANCH   1   9
BRANCH   7  22
ATOM     22  C   UNL     1       4.954   4.501  19.434  0.00  0.00    +0.000 C 
BRANCH  22  23
ATOM     23  C   UNL     1       6.054   5.419  18.844  0.00  0.00    +0.000 C 
BRANCH  23  24
ATOM     24  C   UNL     1       6.192   5.417  17.339  0.00  0.00    +0.000 A 
ATOM     25  C   UNL     1       6.993   4.450  16.710  0.00  0.00    +0.000 A 
ATOM     26  C   UNL     1       6.981   4.307  15.322  0.00  0.00    +0.000 A 
ATOM     27  C   UNL     1       6.170   5.135  14.548  0.00  0.00    +0.000 A 
ATOM     28  C   UNL     1       5.408   6.130  15.158  0.00  0.00    +0.000 A 
ATOM     29  C   UNL     1       5.425   6.279  16.548  0.00  0.00    +0.000 A 
ENDBRANCH  23  24
ENDBRANCH  22  23
ENDBRANCH   7  22
TORSDOF 9
ENDMDL
MODEL 9
REMARK VINA RESULT:      -7.1      2.930      5.942
REMARK  Name = 
REMARK  10 active torsions:
REMARK  status: ('A' for Active; 'I' for Inactive)
REMARK    1  A    between atoms: C_1  and  C_2
REMARK    2  A    between atoms: C_2  and  N_3
REMARK    3  A    between atoms: N_3  and  C_4
REMARK    4  A    between atoms: C_4  and  C_5
REMARK    5  A    between atoms: C_5  and  N_6
REMARK    6  A    between atoms: C_11  and  C_13
REMARK    7  A    between atoms: C_13  and  C_14
REMARK    8  A    between atoms: N_20  and  C_21
REMARK    9  A    between atoms: C_21  and  C_22
REMARK   10  A    between atoms: C_22  and  C_23
REMARK                            x       y       z     vdW  Elec       q    Type
REMARK                         _______ _______ _______ _____ _____    ______ ____
ROOT
ATOM      1  C   UNL     1       2.115   5.156  18.622  0.00  0.00    +0.000 C 
ATOM      2  C   UNL     1       1.516   4.331  19.807  0.00  0.00    +0.000 C 
ATOM      3  O   UNL     1       0.997   4.858  20.793  0.00  0.00    +0.000 OA
ATOM      4  N   UNL     1       1.476   2.966  19.722  0.00  0.00    +0.000 N 
ATOM      5  C   UNL     1       2.195   2.232  18.715  0.00  0.00    +0.000 C 
ATOM      6  C   UNL     1       2.247   3.037  17.419  0.00  0.00    +0.000 C 
ATOM      7  N   UNL     1       2.921   4.339  17.631  0.00  0.00    +0.000 NA
ATOM      8  H   UNL     1       1.089   2.494  20.529  0.00  0.00    +0.000 HD
ENDROOT
BRANCH   1   9
ATOM      9  C   UNL     1       2.832   6.394  19.205  0.00  0.00    +0.000 C 
BRANCH   9  11
ATOM     10  N   UNL     1       1.544   8.572  19.282  0.00  0.00    +0.000 N 
ATOM     11  C   UNL     1       2.371   7.695  18.557  0.00  0.00    +0.000 C 
ATOM     12  O   UNL     1       2.822   7.991  17.448  0.00  0.00    +0.000 OA
BRANCH  10  14
ATOM     13  C   UNL     1      -0.016   8.230  21.277  0.00  0.00    +0.000 C 
ATOM     14  C   UNL     1       1.396   8.471  20.746  0.00  0.00    +0.000 C 
ENDBRANCH  10  14
BRANCH  10  15
ATOM     15  C   UNL     1       1.321   9.925  18.694  0.00  0.00    +0.000 C 
BRANCH  15  16
ATOM     16  C   UNL     1       1.157  11.070  19.704  0.00  0.00    +0.000 C 
BRANCH  16  17
ATOM     17  N   UNL     1       1.917  12.274  19.401  0.00  0.00    +0.000 N 
ATOM     18  C   UNL     1       2.437  12.621  18.180  0.00  0.00    +0.000 A 
ATOM     19  C   UNL     1       2.776  13.945  18.268  0.00  0.00    +0.000 A 
ATOM     20  C   UNL     1       2.482  14.295  19.609  0.00  0.00    +0.000 A 
ATOM     21  N   UNL     1       1.987  13.275  20.309  0.00  0.00    +0.000 NA
ENDBRANCH  16  17
ENDBRANCH  15  16
ENDBRANCH  10  15
ENDBRANCH   9  11
ENDBRANCH   1   9
BRANCH   7  22
ATOM     22  C   UNL     1       4.371   4.205  17.897  0.00  0.00    +0.000 C 
BRANCH  22  23
ATOM     23  C   UNL     1       5.234   4.942  16.844  0.00  0.00    +0.000 C 
BRANCH  23  24
ATOM     24  C   UNL     1       6.388   5.760  17.377  0.00  0.00    +0.000 A 
ATOM     25  C   UNL     1       6.606   7.062  16.897  0.00  0.00    +0.000 A 
ATOM     26  C   UNL     1       7.537   7.901  17.509  0.00  0.00    +0.000 A 
ATOM     27  C   UNL     1       8.265   7.444  18.605  0.00  0.00    +0.000 A 
ATOM     28  C   UNL     1       8.093   6.138  19.059  0.00  0.00    +0.000 A 
ATOM     29  C   UNL     1       7.165   5.293  18.443  0.00  0.00    +0.000 A 
ENDBRANCH  23  24
ENDBRANCH  22  23
ENDBRANCH   7  22
TORSDOF 9
ENDMDL
