MODEL 1
REMARK VINA RESULT:      -8.4      0.000      0.000
REMARK  Name = 
REMARK  6 active torsions:
REMARK  status: ('A' for Active; 'I' for Inactive)
REMARK    1  A    between atoms: N_6  and  C1*_7
REMARK    2  A    between atoms: C3*_9  and  O3*_10
REMARK    3  A    between atoms: C4*_11  and  C5*_12
REMARK    4  A    between atoms: C5*_12  and  O5*_13
REMARK    5  A    between atoms: C_16  and  C_17
REMARK    6  A    between atoms: C_19  and  C_20
REMARK                            x       y       z     vdW  Elec       q    Type
REMARK                         _______ _______ _______ _____ _____    ______ ____
ROOT
ATOM      1  O   UNL     1       8.132   4.432  17.421  0.00  0.00    +0.000 OA
ATOM      2  C   UNL     1       6.912   4.304  17.497  0.00  0.00    +0.000 A 
ATOM      3  N   UNL     1       6.303   4.136  18.711  0.00  0.00    +0.000 N 
ATOM      4  C   UNL     1       4.987   3.823  18.923  0.00  0.00    +0.000 A 
ATOM      5  O   UNL     1       4.582   3.582  20.057  0.00  0.00    +0.000 OA
ATOM      6  N   UNL     1       4.196   3.784  17.785  0.00  0.00    +0.000 N 
ATOM      7  C   UNL     1       4.716   4.055  16.533  0.00  0.00    +0.000 A 
ATOM      8  C   UNL     1       6.017   4.304  16.302  0.00  0.00    +0.000 A 
ATOM      9  H   UNL     1       6.907   4.111  19.519  0.00  0.00    +0.000 HD
ENDROOT
BRANCH   6  10
ATOM     10  C1* UNL     1       2.799   3.398  17.954  0.00  0.00    +0.000 C 
ATOM     11  C2* UNL     1       2.597   2.092  18.711  0.00  0.00    +0.000 C 
ATOM     12  C3* UNL     1       1.226   2.287  19.318  0.00  0.00    +0.000 C 
ATOM     13  C4* UNL     1       1.182   3.782  19.618  0.00  0.00    +0.000 C 
ATOM     14  O4* UNL     1       2.075   4.417  18.672  0.00  0.00    +0.000 OA
BRANCH  12  15
ATOM     15  O3* UNL     1       0.230   1.920  18.361  0.00  0.00    +0.000 OA
ATOM     16  H3* UNL     1      -0.655   2.095  18.726  0.00  0.00    +0.000 HD
ENDBRANCH  12  15
BRANCH  13  17
ATOM     17  C5* UNL     1       1.667   4.107  21.035  0.00  0.00    +0.000 C 
BRANCH  17  18
ATOM     18  O5* UNL     1       2.413   5.323  21.040  0.00  0.00    +0.000 OA
ATOM     19  H5* UNL     1       2.749   5.456  20.133  0.00  0.00    +0.000 HD
ENDBRANCH  17  18
ENDBRANCH  13  17
ENDBRANCH   6  10
BRANCH   8  20
ATOM     20  C   UNL     1       6.557   4.485  14.987  0.00  0.00    +0.000 A 
ATOM     21  C   UNL     1       6.304   3.674  13.853  0.00  0.00    +0.000 A 
ATOM     22  C   UNL     1       6.994   4.269  12.828  0.00  0.00    +0.000 A 
ATOM     23  O   UNL     1       7.656   5.352  13.313  0.00  0.00    +0.000 OA
ATOM     24  N   UNL     1       7.403   5.480  14.662  0.00  0.00    +0.000 NA
BRANCH  22  25
ATOM     25  C   UNL     1       7.131   4.007  11.386  0.00  0.00    +0.000 C 
ATOM     26 BR   UNL     1       7.158   2.084  11.087  0.00  0.00    +0.000 Br
ENDBRANCH  22  25
ENDBRANCH   8  20
TORSDOF 6
ENDMDL
MODEL 2
REMARK VINA RESULT:      -8.1      4.449      7.503
REMARK  Name = 
REMARK  6 active torsions:
REMARK  status: ('A' for Active; 'I' for Inactive)
REMARK    1  A    between atoms: N_6  and  C1*_7
REMARK    2  A    between atoms: C3*_9  and  O3*_10
REMARK    3  A    between atoms: C4*_11  and  C5*_12
REMARK    4  A    between atoms: C5*_12  and  O5*_13
REMARK    5  A    between atoms: C_16  and  C_17
REMARK    6  A    between atoms: C_19  and  C_20
REMARK                            x       y       z     vdW  Elec       q    Type
REMARK                         _______ _______ _______ _____ _____    ______ ____
ROOT
ATOM      1  O   UNL     1       0.902   4.928  20.676  0.00  0.00    +0.000 OA
ATOM      2  C   UNL     1       1.842   4.875  19.886  0.00  0.00    +0.000 A 
ATOM      3  N   UNL     1       2.383   3.671  19.527  0.00  0.00    +0.000 N 
ATOM      4  C   UNL     1       3.523   3.479  18.793  0.00  0.00    +0.000 A 
ATOM      5  O   UNL     1       3.975   2.348  18.634  0.00  0.00    +0.000 OA
ATOM      6  N   UNL     1       4.104   4.632  18.287  0.00  0.00    +0.000 N 
ATOM      7  C   UNL     1       3.549   5.879  18.511  0.00  0.00    +0.000 A 
ATOM      8  C   UNL     1       2.467   6.088  19.280  0.00  0.00    +0.000 A 
ATOM      9  H   UNL     1       1.980   2.849  19.953  0.00  0.00    +0.000 HD
ENDROOT
BRANCH   6  10
ATOM     10  C1* UNL     1       5.352   4.483  17.545  0.00  0.00    +0.000 C 
ATOM     11  C2* UNL     1       5.731   5.696  16.707  0.00  0.00    +0.000 C 
ATOM     12  C3* UNL     1       7.238   5.578  16.646  0.00  0.00    +0.000 C 
ATOM     13  C4* UNL     1       7.602   4.988  18.005  0.00  0.00    +0.000 C 
ATOM     14  O4* UNL     1       6.449   4.232  18.446  0.00  0.00    +0.000 OA
BRANCH  12  15
ATOM     15  O3* UNL     1       7.598   4.695  15.582  0.00  0.00    +0.000 OA
ATOM     16  H3* UNL     1       6.943   4.762  14.865  0.00  0.00    +0.000 HD
ENDBRANCH  12  15
BRANCH  13  17
ATOM     17  C5* UNL     1       7.900   6.069  19.049  0.00  0.00    +0.000 C 
BRANCH  17  18
ATOM     18  O5* UNL     1       7.909   5.507  20.360  0.00  0.00    +0.000 OA
ATOM     19  H5* UNL     1       8.250   4.596  20.279  0.00  0.00    +0.000 HD
ENDBRANCH  17  18
ENDBRANCH  13  17
ENDBRANCH   6  10
BRANCH   8  20
ATOM     20  C   UNL     1       1.964   7.395  19.584  0.00  0.00    +0.000 A 
ATOM     21  C   UNL     1       1.540   7.861  20.853  0.00  0.00    +0.000 A 
ATOM     22  C   UNL     1       1.198   9.175  20.655  0.00  0.00    +0.000 A 
ATOM     23  O   UNL     1       1.367   9.480  19.341  0.00  0.00    +0.000 OA
ATOM     24  N   UNL     1       1.826   8.370  18.666  0.00  0.00    +0.000 NA
BRANCH  22  25
ATOM     25  C   UNL     1       0.742  10.267  21.530  0.00  0.00    +0.000 C 
ATOM     26 BR   UNL     1      -0.288   9.517  23.001  0.00  0.00    +0.000 Br
ENDBRANCH  22  25
ENDBRANCH   8  20
TORSDOF 6
ENDMDL
MODEL 3
REMARK VINA RESULT:      -8.0      4.302      7.251
REMARK  Name = 
REMARK  6 active torsions:
REMARK  status: ('A' for Active; 'I' for Inactive)
REMARK    1  A    between atoms: N_6  and  C1*_7
REMARK    2  A    between atoms: C3*_9  and  O3*_10
REMARK    3  A    between atoms: C4*_11  and  C5*_12
REMARK    4  A    between atoms: C5*_12  and  O5*_13
REMARK    5  A    between atoms: C_16  and  C_17
REMARK    6  A    between atoms: C_19  and  C_20
REMARK                            x       y       z     vdW  Elec       q    Type
REMARK                         _______ _______ _______ _____ _____    ______ ____
ROOT
ATOM      1  O   UNL     1       0.935   4.852  20.724  0.00  0.00    +0.000 OA
ATOM      2  C   UNL     1       1.866   4.805  19.923  0.00  0.00    +0.000 A 
ATOM      3  N   UNL     1       2.410   3.605  19.556  0.00  0.00    +0.000 N 
ATOM      4  C   UNL     1       3.543   3.422  18.808  0.00  0.00    +0.000 A 
ATOM      5  O   UNL     1       4.000   2.294  18.642  0.00  0.00    +0.000 OA
ATOM      6  N   UNL     1       4.110   4.580  18.297  0.00  0.00    +0.000 N 
ATOM      7  C   UNL     1       3.551   5.823  18.530  0.00  0.00    +0.000 A 
ATOM      8  C   UNL     1       2.476   6.024  19.312  0.00  0.00    +0.000 A 
ATOM      9  H   UNL     1       2.017   2.781  19.985  0.00  0.00    +0.000 HD
ENDROOT
BRANCH   6  10
ATOM     10  C1* UNL     1       5.350   4.439  17.541  0.00  0.00    +0.000 C 
ATOM     11  C2* UNL     1       5.705   5.651  16.690  0.00  0.00    +0.000 C 
ATOM     12  C3* UNL     1       7.212   5.550  16.610  0.00  0.00    +0.000 C 
ATOM     13  C4* UNL     1       7.600   4.972  17.969  0.00  0.00    +0.000 C 
ATOM     14  O4* UNL     1       6.461   4.207  18.429  0.00  0.00    +0.000 OA
BRANCH  12  15
ATOM     15  O3* UNL     1       7.569   4.664  15.548  0.00  0.00    +0.000 OA
ATOM     16  H3* UNL     1       7.369   5.082  14.692  0.00  0.00    +0.000 HD
ENDBRANCH  12  15
BRANCH  13  17
ATOM     17  C5* UNL     1       7.899   6.063  19.002  0.00  0.00    +0.000 C 
BRANCH  17  18
ATOM     18  O5* UNL     1       7.902   5.515  20.319  0.00  0.00    +0.000 OA
ATOM     19  H5* UNL     1       6.974   5.487  20.619  0.00  0.00    +0.000 HD
ENDBRANCH  17  18
ENDBRANCH  13  17
ENDBRANCH   6  10
BRANCH   8  20
ATOM     20  C   UNL     1       1.969   7.327  19.623  0.00  0.00    +0.000 A 
ATOM     21  C   UNL     1       1.843   8.419  18.728  0.00  0.00    +0.000 A 
ATOM     22  C   UNL     1       1.267   9.421  19.466  0.00  0.00    +0.000 A 
ATOM     23  O   UNL     1       1.088   8.982  20.740  0.00  0.00    +0.000 OA
ATOM     24  N   UNL     1       1.541   7.685  20.848  0.00  0.00    +0.000 NA
BRANCH  22  25
ATOM     25  C   UNL     1       0.801  10.785  19.169  0.00  0.00    +0.000 C 
ATOM     26 BR   UNL     1      -1.114  10.745  18.826  0.00  0.00    +0.000 Br
ENDBRANCH  22  25
ENDBRANCH   8  20
TORSDOF 6
ENDMDL
MODEL 4
REMARK VINA RESULT:      -7.9      1.969      2.513
REMARK  Name = 
REMARK  6 active torsions:
REMARK  status: ('A' for Active; 'I' for Inactive)
REMARK    1  A    between atoms: N_6  and  C1*_7
REMARK    2  A    between atoms: C3*_9  and  O3*_10
REMARK    3  A    between atoms: C4*_11  and  C5*_12
REMARK    4  A    between atoms: C5*_12  and  O5*_13
REMARK    5  A    between atoms: C_16  and  C_17
REMARK    6  A    between atoms: C_19  and  C_20
REMARK                            x       y       z     vdW  Elec       q    Type
REMARK                         _______ _______ _______ _____ _____    ______ ____
ROOT
ATOM      1  O   UNL     1       5.887   7.915  16.694  0.00  0.00    +0.000 OA
ATOM      2  C   UNL     1       5.032   7.114  17.067  0.00  0.00    +0.000 A 
ATOM      3  N   UNL     1       4.128   7.459  18.034  0.00  0.00    +0.000 N 
ATOM      4  C   UNL     1       3.238   6.620  18.650  0.00  0.00    +0.000 A 
ATOM      5  O   UNL     1       2.555   7.023  19.589  0.00  0.00    +0.000 OA
ATOM      6  N   UNL     1       3.198   5.327  18.151  0.00  0.00    +0.000 N 
ATOM      7  C   UNL     1       4.002   4.934  17.098  0.00  0.00    +0.000 A 
ATOM      8  C   UNL     1       4.923   5.727  16.523  0.00  0.00    +0.000 A 
ATOM      9  H   UNL     1       4.214   8.387  18.422  0.00  0.00    +0.000 HD
ENDROOT
BRANCH   6  10
ATOM     10  C1* UNL     1       2.306   4.382  18.814  0.00  0.00    +0.000 C 
ATOM     11  C2* UNL     1       1.525   3.486  17.863  0.00  0.00    +0.000 C 
ATOM     12  C3* UNL     1       1.277   2.261  18.715  0.00  0.00    +0.000 C 
ATOM     13  C4* UNL     1       2.535   2.169  19.575  0.00  0.00    +0.000 C 
ATOM     14  O4* UNL     1       3.049   3.517  19.695  0.00  0.00    +0.000 OA
BRANCH  12  15
ATOM     15  O3* UNL     1       0.114   2.472  19.517  0.00  0.00    +0.000 OA
ATOM     16  H3* UNL     1      -0.562   1.807  19.294  0.00  0.00    +0.000 HD
ENDBRANCH  12  15
BRANCH  13  17
ATOM     17  C5* UNL     1       3.617   1.294  18.934  0.00  0.00    +0.000 C 
BRANCH  17  18
ATOM     18  O5* UNL     1       4.889   1.566  19.518  0.00  0.00    +0.000 OA
ATOM     19  H5* UNL     1       5.566   1.272  18.879  0.00  0.00    +0.000 HD
ENDBRANCH  17  18
ENDBRANCH  13  17
ENDBRANCH   6  10
BRANCH   8  20
ATOM     20  C   UNL     1       5.817   5.274  15.499  0.00  0.00    +0.000 A 
ATOM     21  C   UNL     1       5.480   4.466  14.385  0.00  0.00    +0.000 A 
ATOM     22  C   UNL     1       6.645   4.342  13.670  0.00  0.00    +0.000 A 
ATOM     23  O   UNL     1       7.636   5.001  14.326  0.00  0.00    +0.000 OA
ATOM     24  N   UNL     1       7.130   5.566  15.476  0.00  0.00    +0.000 NA
BRANCH  22  25
ATOM     25  C   UNL     1       7.010   3.706  12.394  0.00  0.00    +0.000 C 
ATOM     26 BR   UNL     1       5.484   2.706  11.719  0.00  0.00    +0.000 Br
ENDBRANCH  22  25
ENDBRANCH   8  20
TORSDOF 6
ENDMDL
MODEL 5
REMARK VINA RESULT:      -7.8      4.532      7.653
REMARK  Name = 
REMARK  6 active torsions:
REMARK  status: ('A' for Active; 'I' for Inactive)
REMARK    1  A    between atoms: N_6  and  C1*_7
REMARK    2  A    between atoms: C3*_9  and  O3*_10
REMARK    3  A    between atoms: C4*_11  and  C5*_12
REMARK    4  A    between atoms: C5*_12  and  O5*_13
REMARK    5  A    between atoms: C_16  and  C_17
REMARK    6  A    between atoms: C_19  and  C_20
REMARK                            x       y       z     vdW  Elec       q    Type
REMARK                         _______ _______ _______ _____ _____    ______ ____
ROOT
ATOM      1  O   UNL     1       0.753   4.935  20.745  0.00  0.00    +0.000 OA
ATOM      2  C   UNL     1       1.858   4.893  20.209  0.00  0.00    +0.000 A 
ATOM      3  N   UNL     1       2.506   3.700  20.041  0.00  0.00    +0.000 N 
ATOM      4  C   UNL     1       3.796   3.530  19.613  0.00  0.00    +0.000 A 
ATOM      5  O   UNL     1       4.307   2.413  19.614  0.00  0.00    +0.000 OA
ATOM      6  N   UNL     1       4.447   4.688  19.216  0.00  0.00    +0.000 N 
ATOM      7  C   UNL     1       3.817   5.919  19.250  0.00  0.00    +0.000 A 
ATOM      8  C   UNL     1       2.575   6.110  19.725  0.00  0.00    +0.000 A 
ATOM      9  H   UNL     1       2.036   2.878  20.390  0.00  0.00    +0.000 HD
ENDROOT
BRANCH   6  10
ATOM     10  C1* UNL     1       5.842   4.564  18.806  0.00  0.00    +0.000 C 
ATOM     11  C2* UNL     1       6.039   4.376  17.308  0.00  0.00    +0.000 C 
ATOM     12  C3* UNL     1       7.422   4.951  17.098  0.00  0.00    +0.000 C 
ATOM     13  C4* UNL     1       7.488   6.092  18.109  0.00  0.00    +0.000 C 
ATOM     14  O4* UNL     1       6.588   5.737  19.186  0.00  0.00    +0.000 OA
BRANCH  12  15
ATOM     15  O3* UNL     1       8.399   3.948  17.382  0.00  0.00    +0.000 OA
ATOM     16  H3* UNL     1       8.164   3.487  18.206  0.00  0.00    +0.000 HD
ENDBRANCH  12  15
BRANCH  13  17
ATOM     17  C5* UNL     1       7.028   7.427  17.514  0.00  0.00    +0.000 C 
BRANCH  17  18
ATOM     18  O5* UNL     1       7.999   8.443  17.757  0.00  0.00    +0.000 OA
ATOM     19  H5* UNL     1       7.921   9.091  17.032  0.00  0.00    +0.000 HD
ENDBRANCH  17  18
ENDBRANCH  13  17
ENDBRANCH   6  10
BRANCH   8  20
ATOM     20  C   UNL     1       1.974   7.406  19.844  0.00  0.00    +0.000 A 
ATOM     21  C   UNL     1       1.426   7.975  21.021  0.00  0.00    +0.000 A 
ATOM     22  C   UNL     1       1.024   9.234  20.654  0.00  0.00    +0.000 A 
ATOM     23  O   UNL     1       1.276   9.408  19.329  0.00  0.00    +0.000 OA
ATOM     24  N   UNL     1       1.850   8.265  18.816  0.00  0.00    +0.000 NA
BRANCH  22  25
ATOM     25  C   UNL     1       0.438  10.380  21.367  0.00  0.00    +0.000 C 
ATOM     26 BR   UNL     1      -0.312   9.766  23.054  0.00  0.00    +0.000 Br
ENDBRANCH  22  25
ENDBRANCH   8  20
TORSDOF 6
ENDMDL
MODEL 6
REMARK VINA RESULT:      -7.6      2.205      3.376
REMARK  Name = 
REMARK  6 active torsions:
REMARK  status: ('A' for Active; 'I' for Inactive)
REMARK    1  A    between atoms: N_6  and  C1*_7
REMARK    2  A    between atoms: C3*_9  and  O3*_10
REMARK    3  A    between atoms: C4*_11  and  C5*_12
REMARK    4  A    between atoms: C5*_12  and  O5*_13
REMARK    5  A    between atoms: C_16  and  C_17
REMARK    6  A    between atoms: C_19  and  C_20
REMARK                            x       y       z     vdW  Elec       q    Type
REMARK                         _______ _______ _______ _____ _____    ______ ____
ROOT
ATOM      1  O   UNL     1       8.083   5.424  13.655  0.00  0.00    +0.000 OA
ATOM      2  C   UNL     1       7.309   5.366  14.608  0.00  0.00    +0.000 A 
ATOM      3  N   UNL     1       7.595   6.013  15.779  0.00  0.00    +0.000 N 
ATOM      4  C   UNL     1       6.908   5.899  16.958  0.00  0.00    +0.000 A 
ATOM      5  O   UNL     1       7.331   6.441  17.976  0.00  0.00    +0.000 OA
ATOM      6  N   UNL     1       5.755   5.132  16.901  0.00  0.00    +0.000 N 
ATOM      7  C   UNL     1       5.338   4.539  15.723  0.00  0.00    +0.000 A 
ATOM      8  C   UNL     1       6.033   4.591  14.574  0.00  0.00    +0.000 A 
ATOM      9  H   UNL     1       8.469   6.517  15.814  0.00  0.00    +0.000 HD
ENDROOT
BRANCH   6  10
ATOM     10  C1* UNL     1       5.020   4.936  18.147  0.00  0.00    +0.000 C 
ATOM     11  C2* UNL     1       3.533   5.250  18.053  0.00  0.00    +0.000 C 
ATOM     12  C3* UNL     1       2.954   4.362  19.132  0.00  0.00    +0.000 C 
ATOM     13  C4* UNL     1       3.851   3.128  19.093  0.00  0.00    +0.000 C 
ATOM     14  O4* UNL     1       5.136   3.570  18.592  0.00  0.00    +0.000 OA
BRANCH  12  15
ATOM     15  O3* UNL     1       3.046   5.031  20.391  0.00  0.00    +0.000 OA
ATOM     16  H3* UNL     1       3.041   4.375  21.111  0.00  0.00    +0.000 HD
ENDBRANCH  12  15
BRANCH  13  17
ATOM     17  C5* UNL     1       3.312   2.045  18.152  0.00  0.00    +0.000 C 
BRANCH  17  18
ATOM     18  O5* UNL     1       2.041   1.581  18.601  0.00  0.00    +0.000 OA
ATOM     19  H5* UNL     1       1.391   1.817  17.913  0.00  0.00    +0.000 HD
ENDBRANCH  17  18
ENDBRANCH  13  17
ENDBRANCH   6  10
BRANCH   8  20
ATOM     20  C   UNL     1       5.638   3.888  13.389  0.00  0.00    +0.000 A 
ATOM     21  C   UNL     1       4.342   3.866  12.815  0.00  0.00    +0.000 A 
ATOM     22  C   UNL     1       4.470   3.111  11.677  0.00  0.00    +0.000 A 
ATOM     23  O   UNL     1       5.752   2.669  11.583  0.00  0.00    +0.000 OA
ATOM     24  N   UNL     1       6.479   3.134  12.657  0.00  0.00    +0.000 NA
BRANCH  22  25
ATOM     25  C   UNL     1       3.561   2.730  10.584  0.00  0.00    +0.000 C 
ATOM     26 BR   UNL     1       3.019   4.330   9.618  0.00  0.00    +0.000 Br
ENDBRANCH  22  25
ENDBRANCH   8  20
TORSDOF 6
ENDMDL
MODEL 7
REMARK VINA RESULT:      -7.5      4.311      7.296
REMARK  Name = 
REMARK  6 active torsions:
REMARK  status: ('A' for Active; 'I' for Inactive)
REMARK    1  A    between atoms: N_6  and  C1*_7
REMARK    2  A    between atoms: C3*_9  and  O3*_10
REMARK    3  A    between atoms: C4*_11  and  C5*_12
REMARK    4  A    between atoms: C5*_12  and  O5*_13
REMARK    5  A    between atoms: C_16  and  C_17
REMARK    6  A    between atoms: C_19  and  C_20
REMARK                            x       y       z     vdW  Elec       q    Type
REMARK                         _______ _______ _______ _____ _____    ______ ____
ROOT
ATOM      1  O   UNL     1       0.753   5.109  20.723  0.00  0.00    +0.000 OA
ATOM      2  C   UNL     1       1.851   5.040  20.175  0.00  0.00    +0.000 A 
ATOM      3  N   UNL     1       2.487   3.836  20.038  0.00  0.00    +0.000 N 
ATOM      4  C   UNL     1       3.770   3.641  19.601  0.00  0.00    +0.000 A 
ATOM      5  O   UNL     1       4.271   2.520  19.631  0.00  0.00    +0.000 OA
ATOM      6  N   UNL     1       4.426   4.779  19.160  0.00  0.00    +0.000 N 
ATOM      7  C   UNL     1       3.808   6.016  19.161  0.00  0.00    +0.000 A 
ATOM      8  C   UNL     1       2.573   6.234  19.644  0.00  0.00    +0.000 A 
ATOM      9  H   UNL     1       2.014   3.030  20.418  0.00  0.00    +0.000 HD
ENDROOT
BRANCH   6  10
ATOM     10  C1* UNL     1       5.815   4.630  18.738  0.00  0.00    +0.000 C 
ATOM     11  C2* UNL     1       5.998   4.460  17.235  0.00  0.00    +0.000 C 
ATOM     12  C3* UNL     1       7.392   5.007  17.024  0.00  0.00    +0.000 C 
ATOM     13  C4* UNL     1       7.491   6.130  18.052  0.00  0.00    +0.000 C 
ATOM     14  O4* UNL     1       6.591   5.779  19.130  0.00  0.00    +0.000 OA
BRANCH  12  15
ATOM     15  O3* UNL     1       8.347   3.977  17.285  0.00  0.00    +0.000 OA
ATOM     16  H3* UNL     1       9.240   4.293  17.059  0.00  0.00    +0.000 HD
ENDBRANCH  12  15
BRANCH  13  17
ATOM     17  C5* UNL     1       7.059   7.484  17.482  0.00  0.00    +0.000 C 
BRANCH  17  18
ATOM     18  O5* UNL     1       8.029   8.485  17.782  0.00  0.00    +0.000 OA
ATOM     19  H5* UNL     1       7.646   9.343  17.516  0.00  0.00    +0.000 HD
ENDBRANCH  17  18
ENDBRANCH  13  17
ENDBRANCH   6  10
BRANCH   8  20
ATOM     20  C   UNL     1       1.985   7.539  19.729  0.00  0.00    +0.000 A 
ATOM     21  C   UNL     1       1.801   8.451  18.661  0.00  0.00    +0.000 A 
ATOM     22  C   UNL     1       1.160   9.528  19.218  0.00  0.00    +0.000 A 
ATOM     23  O   UNL     1       0.997   9.303  20.549  0.00  0.00    +0.000 OA
ATOM     24  N   UNL     1       1.527   8.073  20.876  0.00  0.00    +0.000 NA
BRANCH  22  25
ATOM     25  C   UNL     1       0.615  10.790  18.694  0.00  0.00    +0.000 C 
ATOM     26 BR   UNL     1       2.061  12.077  18.499  0.00  0.00    +0.000 Br
ENDBRANCH  22  25
ENDBRANCH   8  20
TORSDOF 6
ENDMDL
MODEL 8
REMARK VINA RESULT:      -7.5      4.408      7.380
REMARK  Name = 
REMARK  6 active torsions:
REMARK  status: ('A' for Active; 'I' for Inactive)
REMARK    1  A    between atoms: N_6  and  C1*_7
REMARK    2  A    between atoms: C3*_9  and  O3*_10
REMARK    3  A    between atoms: C4*_11  and  C5*_12
REMARK    4  A    between atoms: C5*_12  and  O5*_13
REMARK    5  A    between atoms: C_16  and  C_17
REMARK    6  A    between atoms: C_19  and  C_20
REMARK                            x       y       z     vdW  Elec       q    Type
REMARK                         _______ _______ _______ _____ _____    ______ ____
ROOT
ATOM      1  O   UNL     1       0.912   4.673  20.491  0.00  0.00    +0.000 OA
ATOM      2  C   UNL     1       1.830   4.661  19.673  0.00  0.00    +0.000 A 
ATOM      3  N   UNL     1       2.337   3.477  19.213  0.00  0.00    +0.000 N 
ATOM      4  C   UNL     1       3.454   3.319  18.435  0.00  0.00    +0.000 A 
ATOM      5  O   UNL     1       3.878   2.195  18.182  0.00  0.00    +0.000 OA
ATOM      6  N   UNL     1       4.044   4.496  17.999  0.00  0.00    +0.000 N 
ATOM      7  C   UNL     1       3.521   5.732  18.330  0.00  0.00    +0.000 A 
ATOM      8  C   UNL     1       2.463   5.904  19.142  0.00  0.00    +0.000 A 
ATOM      9  H   UNL     1       1.928   2.634  19.589  0.00  0.00    +0.000 HD
ENDROOT
BRANCH   6  10
ATOM     10  C1* UNL     1       5.269   4.379  17.215  0.00  0.00    +0.000 C 
ATOM     11  C2* UNL     1       5.379   5.379  16.073  0.00  0.00    +0.000 C 
ATOM     12  C3* UNL     1       6.877   5.514  15.915  0.00  0.00    +0.000 C 
ATOM     13  C4* UNL     1       7.397   5.370  17.342  0.00  0.00    +0.000 C 
ATOM     14  O4* UNL     1       6.426   4.566  18.053  0.00  0.00    +0.000 OA
BRANCH  12  15
ATOM     15  O3* UNL     1       7.359   4.461  15.078  0.00  0.00    +0.000 OA
ATOM     16  H3* UNL     1       7.580   4.817  14.199  0.00  0.00    +0.000 HD
ENDBRANCH  12  15
BRANCH  13  17
ATOM     17  C5* UNL     1       7.523   6.720  18.056  0.00  0.00    +0.000 C 
BRANCH  17  18
ATOM     18  O5* UNL     1       7.776   7.761  17.114  0.00  0.00    +0.000 OA
ATOM     19  H5* UNL     1       6.917   8.179  16.913  0.00  0.00    +0.000 HD
ENDBRANCH  17  18
ENDBRANCH  13  17
ENDBRANCH   6  10
BRANCH   8  20
ATOM     20  C   UNL     1       1.995   7.194  19.553  0.00  0.00    +0.000 A 
ATOM     21  C   UNL     1       1.838   8.336  18.729  0.00  0.00    +0.000 A 
ATOM     22  C   UNL     1       1.320   9.303  19.554  0.00  0.00    +0.000 A 
ATOM     23  O   UNL     1       1.205   8.794  20.809  0.00  0.00    +0.000 OA
ATOM     24  N   UNL     1       1.642   7.487  20.819  0.00  0.00    +0.000 NA
BRANCH  22  25
ATOM     25  C   UNL     1       0.861  10.687  19.360  0.00  0.00    +0.000 C 
ATOM     26 BR   UNL     1      -0.311  11.182  20.833  0.00  0.00    +0.000 Br
ENDBRANCH  22  25
ENDBRANCH   8  20
TORSDOF 6
ENDMDL
MODEL 9
REMARK VINA RESULT:      -7.4      3.615      4.454
REMARK  Name = 
REMARK  6 active torsions:
REMARK  status: ('A' for Active; 'I' for Inactive)
REMARK    1  A    between atoms: N_6  and  C1*_7
REMARK    2  A    between atoms: C3*_9  and  O3*_10
REMARK    3  A    between atoms: C4*_11  and  C5*_12
REMARK    4  A    between atoms: C5*_12  and  O5*_13
REMARK    5  A    between atoms: C_16  and  C_17
REMARK    6  A    between atoms: C_19  and  C_20
REMARK                            x       y       z     vdW  Elec       q    Type
REMARK                         _______ _______ _______ _____ _____    ______ ____
ROOT
ATOM      1  O   UNL     1       7.581   4.651  15.922  0.00  0.00    +0.000 OA
ATOM      2  C   UNL     1       6.603   4.542  16.658  0.00  0.00    +0.000 A 
ATOM      3  N   UNL     1       5.722   3.508  16.500  0.00  0.00    +0.000 N 
ATOM      4  C   UNL     1       4.519   3.360  17.137  0.00  0.00    +0.000 A 
ATOM      5  O   UNL     1       3.760   2.446  16.825  0.00  0.00    +0.000 OA
ATOM      6  N   UNL     1       4.242   4.310  18.108  0.00  0.00    +0.000 N 
ATOM      7  C   UNL     1       5.136   5.322  18.405  0.00  0.00    +0.000 A 
ATOM      8  C   UNL     1       6.292   5.516  17.747  0.00  0.00    +0.000 A 
ATOM      9  H   UNL     1       5.915   2.861  15.749  0.00  0.00    +0.000 HD
ENDROOT
BRANCH   6  10
ATOM     10  C1* UNL     1       2.946   4.227  18.774  0.00  0.00    +0.000 C 
ATOM     11  C2* UNL     1       3.026   3.914  20.262  0.00  0.00    +0.000 C 
ATOM     12  C3* UNL     1       1.755   4.545  20.786  0.00  0.00    +0.000 C 
ATOM     13  C4* UNL     1       1.579   5.775  19.900  0.00  0.00    +0.000 C 
ATOM     14  O4* UNL     1       2.229   5.470  18.642  0.00  0.00    +0.000 OA
BRANCH  12  15
ATOM     15  O3* UNL     1       0.671   3.628  20.622  0.00  0.00    +0.000 OA
ATOM     16  H3* UNL     1       1.018   2.719  20.565  0.00  0.00    +0.000 HD
ENDBRANCH  12  15
BRANCH  13  17
ATOM     17  C5* UNL     1       2.240   7.022  20.496  0.00  0.00    +0.000 C 
BRANCH  17  18
ATOM     18  O5* UNL     1       1.307   7.751  21.290  0.00  0.00    +0.000 OA
ATOM     19  H5* UNL     1       1.697   7.838  22.180  0.00  0.00    +0.000 HD
ENDBRANCH  17  18
ENDBRANCH  13  17
ENDBRANCH   6  10
BRANCH   8  20
ATOM     20  C   UNL     1       7.159   6.628  18.001  0.00  0.00    +0.000 A 
ATOM     21  C   UNL     1       7.135   7.883  17.342  0.00  0.00    +0.000 A 
ATOM     22  C   UNL     1       8.108   8.627  17.959  0.00  0.00    +0.000 A 
ATOM     23  O   UNL     1       8.713   7.863  18.906  0.00  0.00    +0.000 OA
ATOM     24  N   UNL     1       8.139   6.610  18.923  0.00  0.00    +0.000 NA
BRANCH  22  25
ATOM     25  C   UNL     1       8.582  10.015  17.832  0.00  0.00    +0.000 C 
ATOM     26 BR   UNL     1       9.442  10.550  19.494  0.00  0.00    +0.000 Br
ENDBRANCH  22  25
ENDBRANCH   8  20
TORSDOF 6
ENDMDL
