MODEL 1
REMARK VINA RESULT:      -5.7      0.000      0.000
REMARK  Name = 
REMARK  2 active torsions:
REMARK  status: ('A' for Active; 'I' for Inactive)
REMARK    1  A    between atoms: N_1  and  C_2
REMARK    2  A    between atoms: C_2  and  C_3
REMARK                            x       y       z     vdW  Elec       q    Type
REMARK                         _______ _______ _______ _____ _____    ______ ____
ROOT
ATOM      1  C   UNL     1       5.750   4.285  17.347  0.00  0.00    +0.000 A 
ATOM      2  C   UNL     1       4.555   4.187  16.661  0.00  0.00    +0.000 A 
ATOM      3  C   UNL     1       3.620   3.550  17.510  0.00  0.00    +0.000 A 
ATOM      4  N   UNL     1       2.333   3.213  17.258  0.00  0.00    +0.000 NA
ATOM      5  C   UNL     1       1.708   2.589  18.279  0.00  0.00    +0.000 A 
ATOM      6  C   UNL     1       2.270   2.294  19.514  0.00  0.00    +0.000 A 
ATOM      7  C   UNL     1       3.592   2.652  19.768  0.00  0.00    +0.000 A 
ATOM      8  C   UNL     1       4.257   3.288  18.721  0.00  0.00    +0.000 A 
ATOM      9  N   UNL     1       5.545   3.752  18.602  0.00  0.00    +0.000 N 
ATOM     10  H   UNL     1       6.267   3.667  19.306  0.00  0.00    +0.000 HD
ENDROOT
BRANCH   1  11
ATOM     11  C   UNL     1       7.071   4.814  16.934  0.00  0.00    +0.000 C 
BRANCH  11  12
ATOM     12  N   UNL     1       8.110   4.125  17.684  0.00  0.00    +0.000 NA
ATOM     13  H   UNL     1       8.225   3.190  17.298  0.00  0.00    +0.000 HD
ATOM     14  H   UNL     1       7.773   3.988  18.638  0.00  0.00    +0.000 HD
ENDBRANCH  11  12
ENDBRANCH   1  11
TORSDOF 2
ENDMDL
MODEL 2
REMARK VINA RESULT:      -5.5      1.665      1.727
REMARK  Name = 
REMARK  2 active torsions:
REMARK  status: ('A' for Active; 'I' for Inactive)
REMARK    1  A    between atoms: N_1  and  C_2
REMARK    2  A    between atoms: C_2  and  C_3
REMARK                            x       y       z     vdW  Elec       q    Type
REMARK                         _______ _______ _______ _____ _____    ______ ____
ROOT
ATOM      1  C   UNL     1       5.857   5.001  18.928  0.00  0.00    +0.000 A 
ATOM      2  C   UNL     1       4.599   5.573  18.901  0.00  0.00    +0.000 A 
ATOM      3  C   UNL     1       3.649   4.525  18.857  0.00  0.00    +0.000 A 
ATOM      4  N   UNL     1       2.300   4.602  18.789  0.00  0.00    +0.000 NA
ATOM      5  C   UNL     1       1.673   3.408  18.738  0.00  0.00    +0.000 A 
ATOM      6  C   UNL     1       2.293   2.165  18.759  0.00  0.00    +0.000 A 
ATOM      7  C   UNL     1       3.682   2.095  18.838  0.00  0.00    +0.000 A 
ATOM      8  C   UNL     1       4.348   3.320  18.881  0.00  0.00    +0.000 A 
ATOM      9  N   UNL     1       5.685   3.634  18.934  0.00  0.00    +0.000 N 
ATOM     10  H   UNL     1       6.445   2.966  18.921  0.00  0.00    +0.000 HD
ENDROOT
BRANCH   1  11
ATOM     11  C   UNL     1       7.206   5.614  18.929  0.00  0.00    +0.000 C 
BRANCH  11  12
ATOM     12  N   UNL     1       7.805   5.434  20.243  0.00  0.00    +0.000 NA
ATOM     13  H   UNL     1       7.234   5.922  20.930  0.00  0.00    +0.000 HD
ATOM     14  H   UNL     1       8.707   5.912  20.247  0.00  0.00    +0.000 HD
ENDBRANCH  11  12
ENDBRANCH   1  11
TORSDOF 2
ENDMDL
MODEL 3
REMARK VINA RESULT:      -5.5      1.014      1.048
REMARK  Name = 
REMARK  2 active torsions:
REMARK  status: ('A' for Active; 'I' for Inactive)
REMARK    1  A    between atoms: N_1  and  C_2
REMARK    2  A    between atoms: C_2  and  C_3
REMARK                            x       y       z     vdW  Elec       q    Type
REMARK                         _______ _______ _______ _____ _____    ______ ____
ROOT
ATOM      1  C   UNL     1       5.855   4.759  18.255  0.00  0.00    +0.000 A 
ATOM      2  C   UNL     1       4.699   5.384  17.827  0.00  0.00    +0.000 A 
ATOM      3  C   UNL     1       3.619   4.501  18.063  0.00  0.00    +0.000 A 
ATOM      4  N   UNL     1       2.306   4.668  17.779  0.00  0.00    +0.000 NA
ATOM      5  C   UNL     1       1.524   3.619  18.112  0.00  0.00    +0.000 A 
ATOM      6  C   UNL     1       1.957   2.441  18.707  0.00  0.00    +0.000 A 
ATOM      7  C   UNL     1       3.308   2.282  19.004  0.00  0.00    +0.000 A 
ATOM      8  C   UNL     1       4.134   3.351  18.657  0.00  0.00    +0.000 A 
ATOM      9  N   UNL     1       5.491   3.535  18.773  0.00  0.00    +0.000 N 
ATOM     10  H   UNL     1       6.147   2.853  19.131  0.00  0.00    +0.000 HD
ENDROOT
BRANCH   1  11
ATOM     11  C   UNL     1       7.271   5.192  18.208  0.00  0.00    +0.000 C 
BRANCH  11  12
ATOM     12  N   UNL     1       8.067   4.135  17.603  0.00  0.00    +0.000 NA
ATOM     13  H   UNL     1       7.648   3.882  16.710  0.00  0.00    +0.000 HD
ATOM     14  H   UNL     1       7.986   3.303  18.189  0.00  0.00    +0.000 HD
ENDBRANCH  11  12
ENDBRANCH   1  11
TORSDOF 2
ENDMDL
MODEL 4
REMARK VINA RESULT:      -5.4      1.248      1.365
REMARK  Name = 
REMARK  2 active torsions:
REMARK  status: ('A' for Active; 'I' for Inactive)
REMARK    1  A    between atoms: N_1  and  C_2
REMARK    2  A    between atoms: C_2  and  C_3
REMARK                            x       y       z     vdW  Elec       q    Type
REMARK                         _______ _______ _______ _____ _____    ______ ____
ROOT
ATOM      1  C   UNL     1       5.597   4.446  16.756  0.00  0.00    +0.000 A 
ATOM      2  C   UNL     1       4.587   5.331  17.083  0.00  0.00    +0.000 A 
ATOM      3  C   UNL     1       3.479   4.574  17.533  0.00  0.00    +0.000 A 
ATOM      4  N   UNL     1       2.259   5.005  17.928  0.00  0.00    +0.000 NA
ATOM      5  C   UNL     1       1.405   4.021  18.281  0.00  0.00    +0.000 A 
ATOM      6  C   UNL     1       1.688   2.661  18.273  0.00  0.00    +0.000 A 
ATOM      7  C   UNL     1       2.949   2.227  17.873  0.00  0.00    +0.000 A 
ATOM      8  C   UNL     1       3.841   3.229  17.494  0.00  0.00    +0.000 A 
ATOM      9  N   UNL     1       5.134   3.177  17.030  0.00  0.00    +0.000 N 
ATOM     10  H   UNL     1       5.660   2.331  16.854  0.00  0.00    +0.000 HD
ENDROOT
BRANCH   1  11
ATOM     11  C   UNL     1       6.949   4.676  16.194  0.00  0.00    +0.000 C 
BRANCH  11  12
ATOM     12  N   UNL     1       7.943   4.225  17.157  0.00  0.00    +0.000 NA
ATOM     13  H   UNL     1       7.558   4.330  18.094  0.00  0.00    +0.000 HD
ATOM     14  H   UNL     1       8.737   4.865  17.114  0.00  0.00    +0.000 HD
ENDBRANCH  11  12
ENDBRANCH   1  11
TORSDOF 2
ENDMDL
MODEL 5
REMARK VINA RESULT:      -5.4      2.097      4.548
REMARK  Name = 
REMARK  2 active torsions:
REMARK  status: ('A' for Active; 'I' for Inactive)
REMARK    1  A    between atoms: N_1  and  C_2
REMARK    2  A    between atoms: C_2  and  C_3
REMARK                            x       y       z     vdW  Elec       q    Type
REMARK                         _______ _______ _______ _____ _____    ______ ____
ROOT
ATOM      1  C   UNL     1       4.788   3.861  18.578  0.00  0.00    +0.000 A 
ATOM      2  C   UNL     1       4.541   4.874  17.671  0.00  0.00    +0.000 A 
ATOM      3  C   UNL     1       5.637   5.768  17.714  0.00  0.00    +0.000 A 
ATOM      4  N   UNL     1       5.823   6.919  17.026  0.00  0.00    +0.000 NA
ATOM      5  C   UNL     1       6.976   7.561  17.311  0.00  0.00    +0.000 A 
ATOM      6  C   UNL     1       7.940   7.132  18.214  0.00  0.00    +0.000 A 
ATOM      7  C   UNL     1       7.744   5.943  18.911  0.00  0.00    +0.000 A 
ATOM      8  C   UNL     1       6.553   5.271  18.638  0.00  0.00    +0.000 A 
ATOM      9  N   UNL     1       6.022   4.108  19.141  0.00  0.00    +0.000 N 
ATOM     10  H   UNL     1       6.439   3.537  19.865  0.00  0.00    +0.000 HD
ENDROOT
BRANCH   1  11
ATOM     11  C   UNL     1       3.969   2.693  18.982  0.00  0.00    +0.000 C 
BRANCH  11  12
ATOM     12  N   UNL     1       4.795   1.787  19.764  0.00  0.00    +0.000 NA
ATOM     13  H   UNL     1       5.382   2.338  20.388  0.00  0.00    +0.000 HD
ATOM     14  H   UNL     1       5.440   1.316  19.128  0.00  0.00    +0.000 HD
ENDBRANCH  11  12
ENDBRANCH   1  11
TORSDOF 2
ENDMDL
MODEL 6
REMARK VINA RESULT:      -5.3      1.771      1.958
REMARK  Name = 
REMARK  2 active torsions:
REMARK  status: ('A' for Active; 'I' for Inactive)
REMARK    1  A    between atoms: N_1  and  C_2
REMARK    2  A    between atoms: C_2  and  C_3
REMARK                            x       y       z     vdW  Elec       q    Type
REMARK                         _______ _______ _______ _____ _____    ______ ____
ROOT
ATOM      1  C   UNL     1       5.465   4.539  18.292  0.00  0.00    +0.000 A 
ATOM      2  C   UNL     1       4.501   5.441  18.702  0.00  0.00    +0.000 A 
ATOM      3  C   UNL     1       3.634   4.770  19.596  0.00  0.00    +0.000 A 
ATOM      4  N   UNL     1       2.531   5.240  20.224  0.00  0.00    +0.000 NA
ATOM      5  C   UNL     1       1.902   4.334  21.003  0.00  0.00    +0.000 A 
ATOM      6  C   UNL     1       2.300   3.018  21.198  0.00  0.00    +0.000 A 
ATOM      7  C   UNL     1       3.441   2.546  20.555  0.00  0.00    +0.000 A 
ATOM      8  C   UNL     1       4.098   3.465  19.737  0.00  0.00    +0.000 A 
ATOM      9  N   UNL     1       5.216   3.351  18.945  0.00  0.00    +0.000 N 
ATOM     10  H   UNL     1       5.753   2.504  18.807  0.00  0.00    +0.000 HD
ENDROOT
BRANCH   1  11
ATOM     11  C   UNL     1       6.585   4.679  17.333  0.00  0.00    +0.000 C 
BRANCH  11  12
ATOM     12  N   UNL     1       7.823   4.294  17.995  0.00  0.00    +0.000 NA
ATOM     13  H   UNL     1       8.604   4.708  17.489  0.00  0.00    +0.000 HD
ATOM     14  H   UNL     1       7.936   3.285  17.894  0.00  0.00    +0.000 HD
ENDBRANCH  11  12
ENDBRANCH   1  11
TORSDOF 2
ENDMDL
MODEL 7
REMARK VINA RESULT:      -5.3      1.334      1.681
REMARK  Name = 
REMARK  2 active torsions:
REMARK  status: ('A' for Active; 'I' for Inactive)
REMARK    1  A    between atoms: N_1  and  C_2
REMARK    2  A    between atoms: C_2  and  C_3
REMARK                            x       y       z     vdW  Elec       q    Type
REMARK                         _______ _______ _______ _____ _____    ______ ____
ROOT
ATOM      1  C   UNL     1       5.769   4.501  18.093  0.00  0.00    +0.000 A 
ATOM      2  C   UNL     1       5.071   4.771  19.254  0.00  0.00    +0.000 A 
ATOM      3  C   UNL     1       3.927   3.937  19.275  0.00  0.00    +0.000 A 
ATOM      4  N   UNL     1       2.938   3.872  20.197  0.00  0.00    +0.000 NA
ATOM      5  C   UNL     1       1.967   2.979  19.913  0.00  0.00    +0.000 A 
ATOM      6  C   UNL     1       1.924   2.156  18.795  0.00  0.00    +0.000 A 
ATOM      7  C   UNL     1       2.950   2.224  17.856  0.00  0.00    +0.000 A 
ATOM      8  C   UNL     1       3.958   3.149  18.127  0.00  0.00    +0.000 A 
ATOM      9  N   UNL     1       5.089   3.501  17.430  0.00  0.00    +0.000 N 
ATOM     10  H   UNL     1       5.363   3.129  16.530  0.00  0.00    +0.000 HD
ENDROOT
BRANCH   1  11
ATOM     11  C   UNL     1       7.002   5.104  17.534  0.00  0.00    +0.000 C 
BRANCH  11  12
ATOM     12  N   UNL     1       8.084   4.135  17.627  0.00  0.00    +0.000 NA
ATOM     13  H   UNL     1       7.697   3.245  17.934  0.00  0.00    +0.000 HD
ATOM     14  H   UNL     1       8.712   4.433  18.374  0.00  0.00    +0.000 HD
ENDBRANCH  11  12
ENDBRANCH   1  11
TORSDOF 2
ENDMDL
MODEL 8
REMARK VINA RESULT:      -5.3      1.919      2.101
REMARK  Name = 
REMARK  2 active torsions:
REMARK  status: ('A' for Active; 'I' for Inactive)
REMARK    1  A    between atoms: N_1  and  C_2
REMARK    2  A    between atoms: C_2  and  C_3
REMARK                            x       y       z     vdW  Elec       q    Type
REMARK                         _______ _______ _______ _____ _____    ______ ____
ROOT
ATOM      1  C   UNL     1       5.165   4.855  19.060  0.00  0.00    +0.000 A 
ATOM      2  C   UNL     1       4.617   3.644  18.680  0.00  0.00    +0.000 A 
ATOM      3  C   UNL     1       3.303   3.583  19.201  0.00  0.00    +0.000 A 
ATOM      4  N   UNL     1       2.399   2.580  19.112  0.00  0.00    +0.000 NA
ATOM      5  C   UNL     1       1.230   2.823  19.742  0.00  0.00    +0.000 A 
ATOM      6  C   UNL     1       0.908   3.983  20.434  0.00  0.00    +0.000 A 
ATOM      7  C   UNL     1       1.841   5.013  20.513  0.00  0.00    +0.000 A 
ATOM      8  C   UNL     1       3.060   4.776  19.877  0.00  0.00    +0.000 A 
ATOM      9  N   UNL     1       4.199   5.536  19.769  0.00  0.00    +0.000 N 
ATOM     10  H   UNL     1       4.343   6.443  20.195  0.00  0.00    +0.000 HD
ENDROOT
BRANCH   1  11
ATOM     11  C   UNL     1       6.514   5.426  18.838  0.00  0.00    +0.000 C 
BRANCH  11  12
ATOM     12  N   UNL     1       7.368   4.404  18.252  0.00  0.00    +0.000 NA
ATOM     13  H   UNL     1       8.163   4.860  17.807  0.00  0.00    +0.000 HD
ATOM     14  H   UNL     1       6.851   3.955  17.495  0.00  0.00    +0.000 HD
ENDBRANCH  11  12
ENDBRANCH   1  11
TORSDOF 2
ENDMDL
MODEL 9
REMARK VINA RESULT:      -5.3      1.610      1.994
REMARK  Name = 
REMARK  2 active torsions:
REMARK  status: ('A' for Active; 'I' for Inactive)
REMARK    1  A    between atoms: N_1  and  C_2
REMARK    2  A    between atoms: C_2  and  C_3
REMARK                            x       y       z     vdW  Elec       q    Type
REMARK                         _______ _______ _______ _____ _____    ______ ____
ROOT
ATOM      1  C   UNL     1       6.090   4.502  18.011  0.00  0.00    +0.000 A 
ATOM      2  C   UNL     1       5.387   4.994  19.094  0.00  0.00    +0.000 A 
ATOM      3  C   UNL     1       4.031   4.626  18.932  0.00  0.00    +0.000 A 
ATOM      4  N   UNL     1       2.971   4.912  19.724  0.00  0.00    +0.000 NA
ATOM      5  C   UNL     1       1.792   4.429  19.278  0.00  0.00    +0.000 A 
ATOM      6  C   UNL     1       1.607   3.686  18.119  0.00  0.00    +0.000 A 
ATOM      7  C   UNL     1       2.705   3.389  17.315  0.00  0.00    +0.000 A 
ATOM      8  C   UNL     1       3.930   3.889  17.755  0.00  0.00    +0.000 A 
ATOM      9  N   UNL     1       5.194   3.817  17.219  0.00  0.00    +0.000 N 
ATOM     10  H   UNL     1       5.434   3.380  16.339  0.00  0.00    +0.000 HD
ENDROOT
BRANCH   1  11
ATOM     11  C   UNL     1       7.519   4.627  17.638  0.00  0.00    +0.000 C 
BRANCH  11  12
ATOM     12  N   UNL     1       7.617   4.788  16.196  0.00  0.00    +0.000 NA
ATOM     13  H   UNL     1       7.116   4.023  15.748  0.00  0.00    +0.000 HD
ATOM     14  H   UNL     1       8.595   4.667  15.930  0.00  0.00    +0.000 HD
ENDBRANCH  11  12
ENDBRANCH   1  11
TORSDOF 2
ENDMDL
