MODEL 1
REMARK VINA RESULT:      -8.9      0.000      0.000
REMARK  Name = 
REMARK  6 active torsions:
REMARK  status: ('A' for Active; 'I' for Inactive)
REMARK    1  A    between atoms: C_2  and  C_19
REMARK    2  A    between atoms: N_3  and  C_4
REMARK    3  A    between atoms: C_4  and  C_5
REMARK    4  A    between atoms: C_5  and  C_6
REMARK    5  A    between atoms: C_6  and  C_7
REMARK    6  A    between atoms: C_6  and  C_13
REMARK                            x       y       z     vdW  Elec       q    Type
REMARK                         _______ _______ _______ _____ _____    ______ ____
ROOT
ATOM      1  C   UNL     1       2.239   8.854  18.019  0.00  0.00    +0.000 C 
ENDROOT
BRANCH   1   4
ATOM      2  O   UNL     1       1.634  11.507  18.814  0.00  0.00    +0.000 OA
ATOM      3  C   UNL     1       0.715  10.728  18.577  0.00  0.00    +0.000 C 
ATOM      4  N   UNL     1       0.917   9.426  18.190  0.00  0.00    +0.000 N 
ATOM      5  H   UNL     1       0.108   8.836  17.999  0.00  0.00    +0.000 HD
BRANCH   3   6
ATOM      6  C   UNL     1      -0.710  11.139  18.720  0.00  0.00    +0.000 A 
ATOM      7  C   UNL     1      -1.035  12.013  19.690  0.00  0.00    +0.000 A 
ATOM      8  N   UNL     1      -2.305  12.464  19.979  0.00  0.00    +0.000 NA
ATOM      9  C   UNL     1      -3.238  11.989  19.230  0.00  0.00    +0.000 A 
ATOM     10  S   UNL     1      -4.945  12.372  19.382  0.00  0.00    +0.000 S 
ATOM     11  C   UNL     1      -5.327  11.323  18.043  0.00  0.00    +0.000 A 
ATOM     12  C   UNL     1      -4.229  10.748  17.541  0.00  0.00    +0.000 A 
ATOM     13  N   UNL     1      -3.065  11.104  18.190  0.00  0.00    +0.000 N 
ATOM     14  C   UNL     1      -1.816  10.624  17.869  0.00  0.00    +0.000 A 
ATOM     15  O   UNL     1      -1.603   9.815  16.965  0.00  0.00    +0.000 OA
ENDBRANCH   3   6
ENDBRANCH   1   4
BRANCH   1  16
ATOM     16  C   UNL     1       2.440   7.641  18.926  0.00  0.00    +0.000 C 
BRANCH  16  17
ATOM     17  C   UNL     1       2.820   6.350  18.158  0.00  0.00    +0.000 C 
BRANCH  17  18
ATOM     18  C   UNL     1       4.329   6.159  18.066  0.00  0.00    +0.000 A 
ATOM     19  C   UNL     1       5.039   5.465  19.059  0.00  0.00    +0.000 A 
ATOM     20  C   UNL     1       6.428   5.343  18.988  0.00  0.00    +0.000 A 
ATOM     21  C   UNL     1       7.128   5.907  17.923  0.00  0.00    +0.000 A 
ATOM     22  C   UNL     1       6.439   6.592  16.925  0.00  0.00    +0.000 A 
ATOM     23  C   UNL     1       5.049   6.717  16.994  0.00  0.00    +0.000 A 
ENDBRANCH  17  18
BRANCH  17  24
ATOM     24  C   UNL     1       2.106   5.106  18.701  0.00  0.00    +0.000 A 
ATOM     25  C   UNL     1       1.734   5.056  20.056  0.00  0.00    +0.000 A 
ATOM     26  C   UNL     1       1.132   3.916  20.593  0.00  0.00    +0.000 A 
ATOM     27  C   UNL     1       0.882   2.809  19.784  0.00  0.00    +0.000 A 
ATOM     28  C   UNL     1       1.212   2.851  18.434  0.00  0.00    +0.000 A 
ATOM     29  C   UNL     1       1.809   3.993  17.895  0.00  0.00    +0.000 A 
ENDBRANCH  17  24
ENDBRANCH  16  17
ENDBRANCH   1  16
TORSDOF 6
ENDMDL
MODEL 2
REMARK VINA RESULT:      -8.8      1.893      2.614
REMARK  Name = 
REMARK  6 active torsions:
REMARK  status: ('A' for Active; 'I' for Inactive)
REMARK    1  A    between atoms: C_2  and  C_19
REMARK    2  A    between atoms: N_3  and  C_4
REMARK    3  A    between atoms: C_4  and  C_5
REMARK    4  A    between atoms: C_5  and  C_6
REMARK    5  A    between atoms: C_6  and  C_7
REMARK    6  A    between atoms: C_6  and  C_13
REMARK                            x       y       z     vdW  Elec       q    Type
REMARK                         _______ _______ _______ _____ _____    ______ ____
ROOT
ATOM      1  C   UNL     1       2.457   8.365  17.630  0.00  0.00    +0.000 C 
ENDROOT
BRANCH   1   4
ATOM      2  O   UNL     1       2.241  11.166  18.013  0.00  0.00    +0.000 OA
ATOM      3  C   UNL     1       1.433  10.421  18.563  0.00  0.00    +0.000 C 
ATOM      4  N   UNL     1       1.466   9.055  18.434  0.00  0.00    +0.000 N 
ATOM      5  H   UNL     1       0.758   8.497  18.911  0.00  0.00    +0.000 HD
BRANCH   3   6
ATOM      6  C   UNL     1       0.356  10.956  19.444  0.00  0.00    +0.000 A 
ATOM      7  C   UNL     1      -0.518  11.840  18.931  0.00  0.00    +0.000 A 
ATOM      8  N   UNL     1      -1.543  12.455  19.617  0.00  0.00    +0.000 NA
ATOM      9  C   UNL     1      -1.645  12.125  20.858  0.00  0.00    +0.000 A 
ATOM     10  S   UNL     1      -2.840  12.764  21.974  0.00  0.00    +0.000 S 
ATOM     11  C   UNL     1      -2.194  11.788  23.267  0.00  0.00    +0.000 A 
ATOM     12  C   UNL     1      -1.160  11.048  22.852  0.00  0.00    +0.000 A 
ATOM     13  N   UNL     1      -0.842  11.227  21.522  0.00  0.00    +0.000 N 
ATOM     14  C   UNL     1       0.196  10.592  20.877  0.00  0.00    +0.000 A 
ATOM     15  O   UNL     1       0.960   9.797  21.424  0.00  0.00    +0.000 OA
ENDBRANCH   3   6
ENDBRANCH   1   4
BRANCH   1  16
ATOM     16  C   UNL     1       3.217   7.330  18.456  0.00  0.00    +0.000 C 
BRANCH  16  17
ATOM     17  C   UNL     1       3.242   5.920  17.812  0.00  0.00    +0.000 C 
BRANCH  17  18
ATOM     18  C   UNL     1       4.663   5.428  17.561  0.00  0.00    +0.000 A 
ATOM     19  C   UNL     1       5.638   5.469  18.570  0.00  0.00    +0.000 A 
ATOM     20  C   UNL     1       6.948   5.063  18.311  0.00  0.00    +0.000 A 
ATOM     21  C   UNL     1       7.303   4.606  17.044  0.00  0.00    +0.000 A 
ATOM     22  C   UNL     1       6.346   4.551  16.033  0.00  0.00    +0.000 A 
ATOM     23  C   UNL     1       5.034   4.958  16.288  0.00  0.00    +0.000 A 
ENDBRANCH  17  18
BRANCH  17  24
ATOM     24  C   UNL     1       2.398   4.900  18.585  0.00  0.00    +0.000 A 
ATOM     25  C   UNL     1       1.915   3.757  17.924  0.00  0.00    +0.000 A 
ATOM     26  C   UNL     1       1.098   2.837  18.586  0.00  0.00    +0.000 A 
ATOM     27  C   UNL     1       0.754   3.039  19.921  0.00  0.00    +0.000 A 
ATOM     28  C   UNL     1       1.248   4.146  20.601  0.00  0.00    +0.000 A 
ATOM     29  C   UNL     1       2.070   5.064  19.942  0.00  0.00    +0.000 A 
ENDBRANCH  17  24
ENDBRANCH  16  17
ENDBRANCH   1  16
TORSDOF 6
ENDMDL
MODEL 3
REMARK VINA RESULT:      -8.8      0.707      1.455
REMARK  Name = 
REMARK  6 active torsions:
REMARK  status: ('A' for Active; 'I' for Inactive)
REMARK    1  A    between atoms: C_2  and  C_19
REMARK    2  A    between atoms: N_3  and  C_4
REMARK    3  A    between atoms: C_4  and  C_5
REMARK    4  A    between atoms: C_5  and  C_6
REMARK    5  A    between atoms: C_6  and  C_7
REMARK    6  A    between atoms: C_6  and  C_13
REMARK                            x       y       z     vdW  Elec       q    Type
REMARK                         _______ _______ _______ _____ _____    ______ ____
ROOT
ATOM      1  C   UNL     1       2.356   8.485  17.830  0.00  0.00    +0.000 C 
ENDROOT
BRANCH   1   4
ATOM      2  O   UNL     1       2.116  11.270  18.301  0.00  0.00    +0.000 OA
ATOM      3  C   UNL     1       1.119  10.558  18.391  0.00  0.00    +0.000 C 
ATOM      4  N   UNL     1       1.145   9.201  18.183  0.00  0.00    +0.000 N 
ATOM      5  H   UNL     1       0.278   8.671  18.265  0.00  0.00    +0.000 HD
BRANCH   3   6
ATOM      6  C   UNL     1      -0.209  11.122  18.766  0.00  0.00    +0.000 A 
ATOM      7  C   UNL     1      -0.276  11.985  19.795  0.00  0.00    +0.000 A 
ATOM      8  N   UNL     1      -1.424  12.565  20.290  0.00  0.00    +0.000 NA
ATOM      9  C   UNL     1      -2.510  12.232  19.684  0.00  0.00    +0.000 A 
ATOM     10  S   UNL     1      -4.116  12.800  20.111  0.00  0.00    +0.000 S 
ATOM     11  C   UNL     1      -4.820  11.858  18.823  0.00  0.00    +0.000 A 
ATOM     12  C   UNL     1      -3.887  11.185  18.142  0.00  0.00    +0.000 A 
ATOM     13  N   UNL     1      -2.604  11.378  18.609  0.00  0.00    +0.000 N 
ATOM     14  C   UNL     1      -1.484  10.773  18.085  0.00  0.00    +0.000 A 
ATOM     15  O   UNL     1      -1.509   9.984  17.140  0.00  0.00    +0.000 OA
ENDBRANCH   3   6
ENDBRANCH   1   4
BRANCH   1  16
ATOM     16  C   UNL     1       2.533   7.236  18.692  0.00  0.00    +0.000 C 
BRANCH  16  17
ATOM     17  C   UNL     1       3.149   6.037  17.927  0.00  0.00    +0.000 C 
BRANCH  17  18
ATOM     18  C   UNL     1       4.670   6.009  18.033  0.00  0.00    +0.000 A 
ATOM     19  C   UNL     1       5.482   6.450  16.976  0.00  0.00    +0.000 A 
ATOM     20  C   UNL     1       6.873   6.371  17.066  0.00  0.00    +0.000 A 
ATOM     21  C   UNL     1       7.473   5.856  18.213  0.00  0.00    +0.000 A 
ATOM     22  C   UNL     1       6.682   5.421  19.275  0.00  0.00    +0.000 A 
ATOM     23  C   UNL     1       5.290   5.498  19.187  0.00  0.00    +0.000 A 
ENDBRANCH  17  18
BRANCH  17  24
ATOM     24  C   UNL     1       2.511   4.697  18.312  0.00  0.00    +0.000 A 
ATOM     25  C   UNL     1       2.780   3.554  17.539  0.00  0.00    +0.000 A 
ATOM     26  C   UNL     1       2.171   2.331  17.830  0.00  0.00    +0.000 A 
ATOM     27  C   UNL     1       1.289   2.226  18.904  0.00  0.00    +0.000 A 
ATOM     28  C   UNL     1       1.035   3.337  19.701  0.00  0.00    +0.000 A 
ATOM     29  C   UNL     1       1.648   4.559  19.413  0.00  0.00    +0.000 A 
ENDBRANCH  17  24
ENDBRANCH  16  17
ENDBRANCH   1  16
TORSDOF 6
ENDMDL
MODEL 4
REMARK VINA RESULT:      -8.7      0.800      3.480
REMARK  Name = 
REMARK  6 active torsions:
REMARK  status: ('A' for Active; 'I' for Inactive)
REMARK    1  A    between atoms: C_2  and  C_19
REMARK    2  A    between atoms: N_3  and  C_4
REMARK    3  A    between atoms: C_4  and  C_5
REMARK    4  A    between atoms: C_5  and  C_6
REMARK    5  A    between atoms: C_6  and  C_7
REMARK    6  A    between atoms: C_6  and  C_13
REMARK                            x       y       z     vdW  Elec       q    Type
REMARK                         _______ _______ _______ _____ _____    ______ ____
ROOT
ATOM      1  C   UNL     1       2.471   8.968  17.835  0.00  0.00    +0.000 C 
ENDROOT
BRANCH   1   4
ATOM      2  O   UNL     1       0.936   9.346  20.188  0.00  0.00    +0.000 OA
ATOM      3  C   UNL     1       0.516   9.786  19.121  0.00  0.00    +0.000 C 
ATOM      4  N   UNL     1       1.192   9.645  17.935  0.00  0.00    +0.000 N 
ATOM      5  H   UNL     1       0.789  10.043  17.086  0.00  0.00    +0.000 HD
BRANCH   3   6
ATOM      6  C   UNL     1      -0.793  10.493  19.032  0.00  0.00    +0.000 A 
ATOM      7  C   UNL     1      -1.128  11.355  20.009  0.00  0.00    +0.000 A 
ATOM      8  N   UNL     1      -2.310  12.058  20.097  0.00  0.00    +0.000 NA
ATOM      9  C   UNL     1      -3.143  11.849  19.137  0.00  0.00    +0.000 A 
ATOM     10  S   UNL     1      -4.728  12.590  19.001  0.00  0.00    +0.000 S 
ATOM     11  C   UNL     1      -5.028  11.738  17.509  0.00  0.00    +0.000 A 
ATOM     12  C   UNL     1      -3.990  10.966  17.169  0.00  0.00    +0.000 A 
ATOM     13  N   UNL     1      -2.941  11.014  18.062  0.00  0.00    +0.000 N 
ATOM     14  C   UNL     1      -1.777  10.290  17.936  0.00  0.00    +0.000 A 
ATOM     15  O   UNL     1      -1.549   9.512  17.009  0.00  0.00    +0.000 OA
ENDBRANCH   3   6
ENDBRANCH   1   4
BRANCH   1  16
ATOM     16  C   UNL     1       2.289   7.479  17.545  0.00  0.00    +0.000 C 
BRANCH  16  17
ATOM     17  C   UNL     1       3.093   6.559  18.498  0.00  0.00    +0.000 C 
BRANCH  17  18
ATOM     18  C   UNL     1       2.271   5.367  18.974  0.00  0.00    +0.000 A 
ATOM     19  C   UNL     1       1.946   5.199  20.330  0.00  0.00    +0.000 A 
ATOM     20  C   UNL     1       1.237   4.076  20.759  0.00  0.00    +0.000 A 
ATOM     21  C   UNL     1       0.837   3.106  19.842  0.00  0.00    +0.000 A 
ATOM     22  C   UNL     1       1.144   3.261  18.491  0.00  0.00    +0.000 A 
ATOM     23  C   UNL     1       1.855   4.383  18.059  0.00  0.00    +0.000 A 
ENDBRANCH  17  18
BRANCH  17  24
ATOM     24  C   UNL     1       4.448   6.141  17.915  0.00  0.00    +0.000 A 
ATOM     25  C   UNL     1       5.421   5.579  18.760  0.00  0.00    +0.000 A 
ATOM     26  C   UNL     1       6.685   5.239  18.271  0.00  0.00    +0.000 A 
ATOM     27  C   UNL     1       6.995   5.446  16.928  0.00  0.00    +0.000 A 
ATOM     28  C   UNL     1       6.035   5.969  16.070  0.00  0.00    +0.000 A 
ATOM     29  C   UNL     1       4.770   6.305  16.557  0.00  0.00    +0.000 A 
ENDBRANCH  17  24
ENDBRANCH  16  17
ENDBRANCH   1  16
TORSDOF 6
ENDMDL
MODEL 5
REMARK VINA RESULT:      -8.7      3.240      5.696
REMARK  Name = 
REMARK  6 active torsions:
REMARK  status: ('A' for Active; 'I' for Inactive)
REMARK    1  A    between atoms: C_2  and  C_19
REMARK    2  A    between atoms: N_3  and  C_4
REMARK    3  A    between atoms: C_4  and  C_5
REMARK    4  A    between atoms: C_5  and  C_6
REMARK    5  A    between atoms: C_6  and  C_7
REMARK    6  A    between atoms: C_6  and  C_13
REMARK                            x       y       z     vdW  Elec       q    Type
REMARK                         _______ _______ _______ _____ _____    ______ ____
ROOT
ATOM      1  C   UNL     1       3.714   3.931  17.406  0.00  0.00    +0.000 C 
ENDROOT
BRANCH   1   4
ATOM      2  O   UNL     1       4.410   5.493  19.667  0.00  0.00    +0.000 OA
ATOM      3  C   UNL     1       3.422   5.802  19.006  0.00  0.00    +0.000 C 
ATOM      4  N   UNL     1       3.012   5.100  17.899  0.00  0.00    +0.000 N 
ATOM      5  H   UNL     1       2.187   5.418  17.391  0.00  0.00    +0.000 HD
BRANCH   3   6
ATOM      6  C   UNL     1       2.569   6.965  19.379  0.00  0.00    +0.000 A 
ATOM      7  C   UNL     1       1.974   6.968  20.585  0.00  0.00    +0.000 A 
ATOM      8  N   UNL     1       1.128   7.944  21.067  0.00  0.00    +0.000 NA
ATOM      9  C   UNL     1       0.916   8.928  20.265  0.00  0.00    +0.000 A 
ATOM     10  S   UNL     1      -0.129  10.297  20.606  0.00  0.00    +0.000 S 
ATOM     11  C   UNL     1       0.228  10.992  19.047  0.00  0.00    +0.000 A 
ATOM     12  C   UNL     1       1.075  10.226  18.351  0.00  0.00    +0.000 A 
ATOM     13  N   UNL     1       1.462   9.079  19.011  0.00  0.00    +0.000 N 
ATOM     14  C   UNL     1       2.308   8.127  18.488  0.00  0.00    +0.000 A 
ATOM     15  O   UNL     1       2.809   8.196  17.366  0.00  0.00    +0.000 OA
ENDBRANCH   3   6
ENDBRANCH   1   4
BRANCH   1  16
ATOM     16  C   UNL     1       4.275   4.170  16.006  0.00  0.00    +0.000 C 
BRANCH  16  17
ATOM     17  C   UNL     1       5.820   4.073  15.933  0.00  0.00    +0.000 C 
BRANCH  17  18
ATOM     18  C   UNL     1       6.333   4.156  14.500  0.00  0.00    +0.000 A 
ATOM     19  C   UNL     1       7.401   5.000  14.155  0.00  0.00    +0.000 A 
ATOM     20  C   UNL     1       7.828   5.104  12.830  0.00  0.00    +0.000 A 
ATOM     21  C   UNL     1       7.199   4.365  11.831  0.00  0.00    +0.000 A 
ATOM     22  C   UNL     1       6.143   3.516  12.156  0.00  0.00    +0.000 A 
ATOM     23  C   UNL     1       5.713   3.410  13.481  0.00  0.00    +0.000 A 
ENDBRANCH  17  18
BRANCH  17  24
ATOM     24  C   UNL     1       6.521   5.069  16.864  0.00  0.00    +0.000 A 
ATOM     25  C   UNL     1       6.328   6.449  16.675  0.00  0.00    +0.000 A 
ATOM     26  C   UNL     1       6.995   7.383  17.471  0.00  0.00    +0.000 A 
ATOM     27  C   UNL     1       7.861   6.955  18.475  0.00  0.00    +0.000 A 
ATOM     28  C   UNL     1       8.041   5.595  18.699  0.00  0.00    +0.000 A 
ATOM     29  C   UNL     1       7.370   4.660  17.907  0.00  0.00    +0.000 A 
ENDBRANCH  17  24
ENDBRANCH  16  17
ENDBRANCH   1  16
TORSDOF 6
ENDMDL
MODEL 6
REMARK VINA RESULT:      -8.7      0.989      1.005
REMARK  Name = 
REMARK  6 active torsions:
REMARK  status: ('A' for Active; 'I' for Inactive)
REMARK    1  A    between atoms: C_2  and  C_19
REMARK    2  A    between atoms: N_3  and  C_4
REMARK    3  A    between atoms: C_4  and  C_5
REMARK    4  A    between atoms: C_5  and  C_6
REMARK    5  A    between atoms: C_6  and  C_7
REMARK    6  A    between atoms: C_6  and  C_13
REMARK                            x       y       z     vdW  Elec       q    Type
REMARK                         _______ _______ _______ _____ _____    ______ ____
ROOT
ATOM      1  C   UNL     1       2.497   8.346  17.705  0.00  0.00    +0.000 C 
ENDROOT
BRANCH   1   4
ATOM      2  O   UNL     1       2.317  11.154  18.046  0.00  0.00    +0.000 OA
ATOM      3  C   UNL     1       1.332  10.458  18.275  0.00  0.00    +0.000 C 
ATOM      4  N   UNL     1       1.332   9.092  18.139  0.00  0.00    +0.000 N 
ATOM      5  H   UNL     1       0.475   8.575  18.338  0.00  0.00    +0.000 HD
BRANCH   3   6
ATOM      6  C   UNL     1       0.052  11.054  18.751  0.00  0.00    +0.000 A 
ATOM      7  C   UNL     1       0.074  11.850  19.835  0.00  0.00    +0.000 A 
ATOM      8  N   UNL     1      -1.020  12.446  20.424  0.00  0.00    +0.000 NA
ATOM      9  C   UNL     1      -2.148  12.201  19.854  0.00  0.00    +0.000 A 
ATOM     10  S   UNL     1      -3.703  12.809  20.397  0.00  0.00    +0.000 S 
ATOM     11  C   UNL     1      -4.512  11.986  19.089  0.00  0.00    +0.000 A 
ATOM     12  C   UNL     1      -3.645  11.318  18.321  0.00  0.00    +0.000 A 
ATOM     13  N   UNL     1      -2.334  11.424  18.734  0.00  0.00    +0.000 N 
ATOM     14  C   UNL     1      -1.270  10.806  18.116  0.00  0.00    +0.000 A 
ATOM     15  O   UNL     1      -1.377  10.083  17.126  0.00  0.00    +0.000 OA
ENDBRANCH   3   6
ENDBRANCH   1   4
BRANCH   1  16
ATOM     16  C   UNL     1       2.826   7.215  18.677  0.00  0.00    +0.000 C 
BRANCH  16  17
ATOM     17  C   UNL     1       2.937   5.826  17.999  0.00  0.00    +0.000 C 
BRANCH  17  18
ATOM     18  C   UNL     1       4.386   5.409  17.777  0.00  0.00    +0.000 A 
ATOM     19  C   UNL     1       5.352   5.564  18.784  0.00  0.00    +0.000 A 
ATOM     20  C   UNL     1       6.686   5.225  18.550  0.00  0.00    +0.000 A 
ATOM     21  C   UNL     1       7.074   4.722  17.310  0.00  0.00    +0.000 A 
ATOM     22  C   UNL     1       6.127   4.554  16.302  0.00  0.00    +0.000 A 
ATOM     23  C   UNL     1       4.792   4.893  16.533  0.00  0.00    +0.000 A 
ENDBRANCH  17  18
BRANCH  17  24
ATOM     24  C   UNL     1       2.121   4.747  18.721  0.00  0.00    +0.000 A 
ATOM     25  C   UNL     1       1.981   4.804  20.119  0.00  0.00    +0.000 A 
ATOM     26  C   UNL     1       1.291   3.807  20.812  0.00  0.00    +0.000 A 
ATOM     27  C   UNL     1       0.721   2.740  20.120  0.00  0.00    +0.000 A 
ATOM     28  C   UNL     1       0.820   2.683  18.734  0.00  0.00    +0.000 A 
ATOM     29  C   UNL     1       1.505   3.682  18.040  0.00  0.00    +0.000 A 
ENDBRANCH  17  24
ENDBRANCH  16  17
ENDBRANCH   1  16
TORSDOF 6
ENDMDL
MODEL 7
REMARK VINA RESULT:      -8.7      0.541      1.030
REMARK  Name = 
REMARK  6 active torsions:
REMARK  status: ('A' for Active; 'I' for Inactive)
REMARK    1  A    between atoms: C_2  and  C_19
REMARK    2  A    between atoms: N_3  and  C_4
REMARK    3  A    between atoms: C_4  and  C_5
REMARK    4  A    between atoms: C_5  and  C_6
REMARK    5  A    between atoms: C_6  and  C_7
REMARK    6  A    between atoms: C_6  and  C_13
REMARK                            x       y       z     vdW  Elec       q    Type
REMARK                         _______ _______ _______ _____ _____    ______ ____
ROOT
ATOM      1  C   UNL     1       2.428   8.633  18.069  0.00  0.00    +0.000 C 
ENDROOT
BRANCH   1   4
ATOM      2  O   UNL     1       2.052  11.417  18.455  0.00  0.00    +0.000 OA
ATOM      3  C   UNL     1       1.082  10.666  18.521  0.00  0.00    +0.000 C 
ATOM      4  N   UNL     1       1.174   9.307  18.350  0.00  0.00    +0.000 N 
ATOM      5  H   UNL     1       0.326   8.743  18.409  0.00  0.00    +0.000 HD
BRANCH   3   6
ATOM      6  C   UNL     1      -0.283  11.183  18.822  0.00  0.00    +0.000 A 
ATOM      7  C   UNL     1      -0.429  12.075  19.818  0.00  0.00    +0.000 A 
ATOM      8  N   UNL     1      -1.620  12.620  20.247  0.00  0.00    +0.000 NA
ATOM      9  C   UNL     1      -2.665  12.219  19.610  0.00  0.00    +0.000 A 
ATOM     10  S   UNL     1      -4.310  12.729  19.953  0.00  0.00    +0.000 S 
ATOM     11  C   UNL     1      -4.920  11.715  18.671  0.00  0.00    +0.000 A 
ATOM     12  C   UNL     1      -3.931  11.061  18.051  0.00  0.00    +0.000 A 
ATOM     13  N   UNL     1      -2.678  11.326  18.563  0.00  0.00    +0.000 N 
ATOM     14  C   UNL     1      -1.513  10.755  18.105  0.00  0.00    +0.000 A 
ATOM     15  O   UNL     1      -1.465   9.935  17.187  0.00  0.00    +0.000 OA
ENDBRANCH   3   6
ENDBRANCH   1   4
BRANCH   1  16
ATOM     16  C   UNL     1       2.580   7.370  18.914  0.00  0.00    +0.000 C 
BRANCH  16  17
ATOM     17  C   UNL     1       2.866   6.096  18.079  0.00  0.00    +0.000 C 
BRANCH  17  18
ATOM     18  C   UNL     1       4.358   5.872  17.866  0.00  0.00    +0.000 A 
ATOM     19  C   UNL     1       4.931   5.942  16.585  0.00  0.00    +0.000 A 
ATOM     20  C   UNL     1       6.290   5.684  16.398  0.00  0.00    +0.000 A 
ATOM     21  C   UNL     1       7.098   5.358  17.485  0.00  0.00    +0.000 A 
ATOM     22  C   UNL     1       6.548   5.292  18.763  0.00  0.00    +0.000 A 
ATOM     23  C   UNL     1       5.189   5.548  18.954  0.00  0.00    +0.000 A 
ENDBRANCH  17  18
BRANCH  17  24
ATOM     24  C   UNL     1       2.161   4.853  18.634  0.00  0.00    +0.000 A 
ATOM     25  C   UNL     1       1.695   4.855  19.960  0.00  0.00    +0.000 A 
ATOM     26  C   UNL     1       1.098   3.719  20.513  0.00  0.00    +0.000 A 
ATOM     27  C   UNL     1       0.948   2.565  19.748  0.00  0.00    +0.000 A 
ATOM     28  C   UNL     1       1.373   2.553  18.424  0.00  0.00    +0.000 A 
ATOM     29  C   UNL     1       1.965   3.690  17.869  0.00  0.00    +0.000 A 
ENDBRANCH  17  24
ENDBRANCH  16  17
ENDBRANCH   1  16
TORSDOF 6
ENDMDL
MODEL 8
REMARK VINA RESULT:      -8.7      3.325      5.814
REMARK  Name = 
REMARK  6 active torsions:
REMARK  status: ('A' for Active; 'I' for Inactive)
REMARK    1  A    between atoms: C_2  and  C_19
REMARK    2  A    between atoms: N_3  and  C_4
REMARK    3  A    between atoms: C_4  and  C_5
REMARK    4  A    between atoms: C_5  and  C_6
REMARK    5  A    between atoms: C_6  and  C_7
REMARK    6  A    between atoms: C_6  and  C_13
REMARK                            x       y       z     vdW  Elec       q    Type
REMARK                         _______ _______ _______ _____ _____    ______ ____
ROOT
ATOM      1  C   UNL     1       3.377   3.492  17.151  0.00  0.00    +0.000 C 
ENDROOT
BRANCH   1   4
ATOM      2  O   UNL     1       3.511   4.419  19.826  0.00  0.00    +0.000 OA
ATOM      3  C   UNL     1       3.016   5.142  18.965  0.00  0.00    +0.000 C 
ATOM      4  N   UNL     1       2.909   4.772  17.648  0.00  0.00    +0.000 N 
ATOM      5  H   UNL     1       2.496   5.425  16.983  0.00  0.00    +0.000 HD
BRANCH   3   6
ATOM      6  C   UNL     1       2.464   6.485  19.300  0.00  0.00    +0.000 A 
ATOM      7  C   UNL     1       1.873   6.660  20.495  0.00  0.00    +0.000 A 
ATOM      8  N   UNL     1       1.281   7.821  20.942  0.00  0.00    +0.000 NA
ATOM      9  C   UNL     1       1.323   8.809  20.117  0.00  0.00    +0.000 A 
ATOM     10  S   UNL     1       0.635  10.397  20.412  0.00  0.00    +0.000 S 
ATOM     11  C   UNL     1       1.167  10.948  18.845  0.00  0.00    +0.000 A 
ATOM     12  C   UNL     1       1.813   9.984  18.180  0.00  0.00    +0.000 A 
ATOM     13  N   UNL     1       1.904   8.793  18.869  0.00  0.00    +0.000 N 
ATOM     14  C   UNL     1       2.502   7.654  18.381  0.00  0.00    +0.000 A 
ATOM     15  O   UNL     1       3.018   7.574  17.266  0.00  0.00    +0.000 OA
ENDBRANCH   3   6
ENDBRANCH   1   4
BRANCH   1  16
ATOM     16  C   UNL     1       4.874   3.528  16.850  0.00  0.00    +0.000 C 
BRANCH  16  17
ATOM     17  C   UNL     1       5.337   4.837  16.161  0.00  0.00    +0.000 C 
BRANCH  17  18
ATOM     18  C   UNL     1       6.282   5.646  17.042  0.00  0.00    +0.000 A 
ATOM     19  C   UNL     1       6.490   7.017  16.821  0.00  0.00    +0.000 A 
ATOM     20  C   UNL     1       7.397   7.735  17.603  0.00  0.00    +0.000 A 
ATOM     21  C   UNL     1       8.105   7.097  18.619  0.00  0.00    +0.000 A 
ATOM     22  C   UNL     1       7.905   5.739  18.857  0.00  0.00    +0.000 A 
ATOM     23  C   UNL     1       6.999   5.017  18.076  0.00  0.00    +0.000 A 
ENDBRANCH  17  18
BRANCH  17  24
ATOM     24  C   UNL     1       5.905   4.600  14.757  0.00  0.00    +0.000 A 
ATOM     25  C   UNL     1       5.201   3.785  13.854  0.00  0.00    +0.000 A 
ATOM     26  C   UNL     1       5.718   3.504  12.587  0.00  0.00    +0.000 A 
ATOM     27  C   UNL     1       6.944   4.040  12.197  0.00  0.00    +0.000 A 
ATOM     28  C   UNL     1       7.640   4.875  13.064  0.00  0.00    +0.000 A 
ATOM     29  C   UNL     1       7.121   5.160  14.329  0.00  0.00    +0.000 A 
ENDBRANCH  17  24
ENDBRANCH  16  17
ENDBRANCH   1  16
TORSDOF 6
ENDMDL
MODEL 9
REMARK VINA RESULT:      -8.6      1.077      1.987
REMARK  Name = 
REMARK  6 active torsions:
REMARK  status: ('A' for Active; 'I' for Inactive)
REMARK    1  A    between atoms: C_2  and  C_19
REMARK    2  A    between atoms: N_3  and  C_4
REMARK    3  A    between atoms: C_4  and  C_5
REMARK    4  A    between atoms: C_5  and  C_6
REMARK    5  A    between atoms: C_6  and  C_7
REMARK    6  A    between atoms: C_6  and  C_13
REMARK                            x       y       z     vdW  Elec       q    Type
REMARK                         _______ _______ _______ _____ _____    ______ ____
ROOT
ATOM      1  C   UNL     1       2.329   8.825  17.792  0.00  0.00    +0.000 C 
ENDROOT
BRANCH   1   4
ATOM      2  O   UNL     1       1.003  10.547  19.613  0.00  0.00    +0.000 OA
ATOM      3  C   UNL     1       0.395  10.131  18.629  0.00  0.00    +0.000 C 
ATOM      4  N   UNL     1       0.959   9.293  17.700  0.00  0.00    +0.000 N 
ATOM      5  H   UNL     1       0.399   8.992  16.902  0.00  0.00    +0.000 HD
BRANCH   3   6
ATOM      6  C   UNL     1      -1.030  10.493  18.385  0.00  0.00    +0.000 A 
ATOM      7  C   UNL     1      -1.631  10.030  17.274  0.00  0.00    +0.000 A 
ATOM      8  N   UNL     1      -2.924  10.301  16.882  0.00  0.00    +0.000 NA
ATOM      9  C   UNL     1      -3.588  11.064  17.679  0.00  0.00    +0.000 A 
ATOM     10  S   UNL     1      -5.244  11.589  17.423  0.00  0.00    +0.000 S 
ATOM     11  C   UNL     1      -5.214  12.498  18.912  0.00  0.00    +0.000 A 
ATOM     12  C   UNL     1      -4.033  12.388  19.529  0.00  0.00    +0.000 A 
ATOM     13  N   UNL     1      -3.122  11.601  18.857  0.00  0.00    +0.000 N 
ATOM     14  C   UNL     1      -1.835  11.361  19.284  0.00  0.00    +0.000 A 
ATOM     15  O   UNL     1      -1.356  11.830  20.316  0.00  0.00    +0.000 OA
ENDBRANCH   3   6
ENDBRANCH   1   4
BRANCH   1  16
ATOM     16  C   UNL     1       2.446   7.634  18.741  0.00  0.00    +0.000 C 
BRANCH  16  17
ATOM     17  C   UNL     1       2.783   6.302  18.024  0.00  0.00    +0.000 C 
BRANCH  17  18
ATOM     18  C   UNL     1       4.283   6.116  17.832  0.00  0.00    +0.000 A 
ATOM     19  C   UNL     1       4.897   6.373  16.595  0.00  0.00    +0.000 A 
ATOM     20  C   UNL     1       6.264   6.150  16.418  0.00  0.00    +0.000 A 
ATOM     21  C   UNL     1       7.039   5.673  17.473  0.00  0.00    +0.000 A 
ATOM     22  C   UNL     1       6.447   5.420  18.710  0.00  0.00    +0.000 A 
ATOM     23  C   UNL     1       5.080   5.641  18.889  0.00  0.00    +0.000 A 
ENDBRANCH  17  18
BRANCH  17  24
ATOM     24  C   UNL     1       2.124   5.088  18.690  0.00  0.00    +0.000 A 
ATOM     25  C   UNL     1       1.859   3.938  17.926  0.00  0.00    +0.000 A 
ATOM     26  C   UNL     1       1.210   2.836  18.489  0.00  0.00    +0.000 A 
ATOM     27  C   UNL     1       0.821   2.861  19.826  0.00  0.00    +0.000 A 
ATOM     28  C   UNL     1       1.103   3.976  20.607  0.00  0.00    +0.000 A 
ATOM     29  C   UNL     1       1.757   5.076  20.047  0.00  0.00    +0.000 A 
ENDBRANCH  17  24
ENDBRANCH  16  17
ENDBRANCH   1  16
TORSDOF 6
ENDMDL
