MODEL 1
REMARK VINA RESULT:      -7.4      0.000      0.000
REMARK  Name = 
REMARK  2 active torsions:
REMARK  status: ('A' for Active; 'I' for Inactive)
REMARK    1  A    between atoms: C_1  and  O_2
REMARK    2  A    between atoms: O_2  and  C_3
REMARK                            x       y       z     vdW  Elec       q    Type
REMARK                         _______ _______ _______ _____ _____    ______ ____
ROOT
ATOM      1  C   UNL     1       6.228   5.093  15.660  0.00  0.00    +0.000 C 
ATOM      2  C   UNL     1       6.000   3.918  16.260  0.00  0.00    +0.000 C 
ATOM      3  C   UNL     1       4.810   3.694  17.097  0.00  0.00    +0.000 C 
ATOM      4  O   UNL     1       4.358   2.560  17.195  0.00  0.00    +0.000 OA
ATOM      5  C   UNL     1       4.178   4.875  17.723  0.00  0.00    +0.000 A 
ATOM      6  C   UNL     1       4.349   6.088  17.053  0.00  0.00    +0.000 A 
ATOM      7  C   UNL     1       3.678   7.224  17.492  0.00  0.00    +0.000 A 
ATOM      8  C   UNL     1       2.848   7.138  18.608  0.00  0.00    +0.000 A 
ATOM      9  C   UNL     1       2.682   5.955  19.315  0.00  0.00    +0.000 A 
ATOM     10  N   UNL     1       1.873   6.012  20.373  0.00  0.00    +0.000 NA
ATOM     11  C   UNL     1       1.730   4.893  21.087  0.00  0.00    +0.000 A 
ATOM     12  N   UNL     1       2.338   3.735  20.845  0.00  0.00    +0.000 NA
ATOM     13  C   UNL     1       3.148   3.698  19.775  0.00  0.00    +0.000 A 
ATOM     14  N   UNL     1       3.871   2.513  19.692  0.00  0.00    +0.000 N 
ATOM     15  C   UNL     1       3.361   4.795  18.906  0.00  0.00    +0.000 A 
ATOM     16  C   UNL     1       5.248   6.201  15.884  0.00  0.00    +0.000 C 
ATOM     17  O   UNL     1       5.205   7.190  15.164  0.00  0.00    +0.000 OA
ATOM     18  H   UNL     1       3.481   1.852  20.357  0.00  0.00    +0.000 HD
ATOM     19  H   UNL     1       3.886   2.131  18.742  0.00  0.00    +0.000 HD
ENDROOT
BRANCH   1  21
ATOM     20  C   UNL     1       7.262   4.795  13.516  0.00  0.00    +0.000 C 
ATOM     21  O   UNL     1       7.278   5.380  14.812  0.00  0.00    +0.000 OA
ENDBRANCH   1  21
TORSDOF 1
ENDMDL
MODEL 2
REMARK VINA RESULT:      -6.7      1.653      2.207
REMARK  Name = 
REMARK  2 active torsions:
REMARK  status: ('A' for Active; 'I' for Inactive)
REMARK    1  A    between atoms: C_1  and  O_2
REMARK    2  A    between atoms: O_2  and  C_3
REMARK                            x       y       z     vdW  Elec       q    Type
REMARK                         _______ _______ _______ _____ _____    ______ ____
ROOT
ATOM      1  C   UNL     1       5.672   6.505  17.210  0.00  0.00    +0.000 C 
ATOM      2  C   UNL     1       5.975   5.208  17.351  0.00  0.00    +0.000 C 
ATOM      3  C   UNL     1       5.019   4.246  17.923  0.00  0.00    +0.000 C 
ATOM      4  O   UNL     1       5.083   3.071  17.583  0.00  0.00    +0.000 OA
ATOM      5  C   UNL     1       3.977   4.771  18.834  0.00  0.00    +0.000 A 
ATOM      6  C   UNL     1       3.604   6.101  18.633  0.00  0.00    +0.000 A 
ATOM      7  C   UNL     1       2.539   6.637  19.349  0.00  0.00    +0.000 A 
ATOM      8  C   UNL     1       1.863   5.839  20.269  0.00  0.00    +0.000 A 
ATOM      9  C   UNL     1       2.231   4.523  20.513  0.00  0.00    +0.000 A 
ATOM     10  N   UNL     1       1.513   3.874  21.431  0.00  0.00    +0.000 NA
ATOM     11  C   UNL     1       1.874   2.619  21.706  0.00  0.00    +0.000 A 
ATOM     12  N   UNL     1       2.899   1.968  21.160  0.00  0.00    +0.000 NA
ATOM     13  C   UNL     1       3.609   2.639  20.240  0.00  0.00    +0.000 A 
ATOM     14  N   UNL     1       4.756   1.956  19.846  0.00  0.00    +0.000 N 
ATOM     15  C   UNL     1       3.314   3.958  19.819  0.00  0.00    +0.000 A 
ATOM     16  C   UNL     1       4.329   6.969  17.680  0.00  0.00    +0.000 C 
ATOM     17  O   UNL     1       3.852   8.042  17.334  0.00  0.00    +0.000 OA
ATOM     18  H   UNL     1       4.700   1.007  20.202  0.00  0.00    +0.000 HD
ATOM     19  H   UNL     1       4.891   1.975  18.831  0.00  0.00    +0.000 HD
ENDROOT
BRANCH   1  21
ATOM     20  C   UNL     1       7.576   7.950  17.390  0.00  0.00    +0.000 C 
ATOM     21  O   UNL     1       6.474   7.467  16.633  0.00  0.00    +0.000 OA
ENDBRANCH   1  21
TORSDOF 1
ENDMDL
MODEL 3
REMARK VINA RESULT:      -6.6      3.117      5.910
REMARK  Name = 
REMARK  2 active torsions:
REMARK  status: ('A' for Active; 'I' for Inactive)
REMARK    1  A    between atoms: C_1  and  O_2
REMARK    2  A    between atoms: O_2  and  C_3
REMARK                            x       y       z     vdW  Elec       q    Type
REMARK                         _______ _______ _______ _____ _____    ______ ____
ROOT
ATOM      1  C   UNL     1       1.986   6.640  19.940  0.00  0.00    +0.000 C 
ATOM      2  C   UNL     1       2.607   7.517  19.140  0.00  0.00    +0.000 C 
ATOM      3  C   UNL     1       3.217   7.105  17.865  0.00  0.00    +0.000 C 
ATOM      4  O   UNL     1       3.302   7.921  16.957  0.00  0.00    +0.000 OA
ATOM      5  C   UNL     1       3.635   5.692  17.728  0.00  0.00    +0.000 A 
ATOM      6  C   UNL     1       2.932   4.768  18.503  0.00  0.00    +0.000 A 
ATOM      7  C   UNL     1       3.162   3.407  18.337  0.00  0.00    +0.000 A 
ATOM      8  C   UNL     1       4.105   2.982  17.403  0.00  0.00    +0.000 A 
ATOM      9  C   UNL     1       4.843   3.877  16.641  0.00  0.00    +0.000 A 
ATOM     10  N   UNL     1       5.724   3.341  15.796  0.00  0.00    +0.000 NA
ATOM     11  C   UNL     1       6.468   4.186  15.080  0.00  0.00    +0.000 A 
ATOM     12  N   UNL     1       6.421   5.514  15.152  0.00  0.00    +0.000 NA
ATOM     13  C   UNL     1       5.528   6.034  16.008  0.00  0.00    +0.000 A 
ATOM     14  N   UNL     1       5.660   7.412  16.148  0.00  0.00    +0.000 N 
ATOM     15  C   UNL     1       4.645   5.260  16.798  0.00  0.00    +0.000 A 
ATOM     16  C   UNL     1       1.949   5.204  19.518  0.00  0.00    +0.000 C 
ATOM     17  O   UNL     1       1.171   4.399  20.012  0.00  0.00    +0.000 OA
ATOM     18  H   UNL     1       6.280   7.749  15.418  0.00  0.00    +0.000 HD
ATOM     19  H   UNL     1       4.756   7.893  16.130  0.00  0.00    +0.000 HD
ENDROOT
BRANCH   1  21
ATOM     20  C   UNL     1       1.042   8.303  21.386  0.00  0.00    +0.000 C 
ATOM     21  O   UNL     1       1.334   6.938  21.118  0.00  0.00    +0.000 OA
ENDBRANCH   1  21
TORSDOF 1
ENDMDL
MODEL 4
REMARK VINA RESULT:      -6.4     10.717     12.121
REMARK  Name = 
REMARK  2 active torsions:
REMARK  status: ('A' for Active; 'I' for Inactive)
REMARK    1  A    between atoms: C_1  and  O_2
REMARK    2  A    between atoms: O_2  and  C_3
REMARK                            x       y       z     vdW  Elec       q    Type
REMARK                         _______ _______ _______ _____ _____    ______ ____
ROOT
ATOM      1  C   UNL     1       9.956  11.410  18.930  0.00  0.00    +0.000 C 
ATOM      2  C   UNL     1      10.239  11.907  17.719  0.00  0.00    +0.000 C 
ATOM      3  C   UNL     1      10.880  13.223  17.553  0.00  0.00    +0.000 C 
ATOM      4  O   UNL     1      11.573  13.425  16.564  0.00  0.00    +0.000 OA
ATOM      5  C   UNL     1      10.707  14.214  18.638  0.00  0.00    +0.000 A 
ATOM      6  C   UNL     1      10.492  13.692  19.915  0.00  0.00    +0.000 A 
ATOM      7  C   UNL     1      10.456  14.542  21.014  0.00  0.00    +0.000 A 
ATOM      8  C   UNL     1      10.624  15.912  20.824  0.00  0.00    +0.000 A 
ATOM      9  C   UNL     1      10.808  16.464  19.564  0.00  0.00    +0.000 A 
ATOM     10  N   UNL     1      10.940  17.791  19.518  0.00  0.00    +0.000 NA
ATOM     11  C   UNL     1      11.082  18.344  18.312  0.00  0.00    +0.000 A 
ATOM     12  N   UNL     1      11.082  17.690  17.153  0.00  0.00    +0.000 NA
ATOM     13  C   UNL     1      10.947  16.356  17.221  0.00  0.00    +0.000 A 
ATOM     14  N   UNL     1      10.787  15.771  15.969  0.00  0.00    +0.000 N 
ATOM     15  C   UNL     1      10.831  15.632  18.432  0.00  0.00    +0.000 A 
ATOM     16  C   UNL     1      10.284  12.243  20.129  0.00  0.00    +0.000 C 
ATOM     17  O   UNL     1      10.340  11.770  21.257  0.00  0.00    +0.000 OA
ATOM     18  H   UNL     1      11.003  16.465  15.261  0.00  0.00    +0.000 HD
ATOM     19  H   UNL     1      11.356  14.926  15.858  0.00  0.00    +0.000 HD
ENDROOT
BRANCH   1  21
ATOM     20  C   UNL     1       8.513   9.626  18.233  0.00  0.00    +0.000 C 
ATOM     21  O   UNL     1       9.414  10.168  19.189  0.00  0.00    +0.000 OA
ENDBRANCH   1  21
TORSDOF 1
ENDMDL
MODEL 5
REMARK VINA RESULT:      -6.4      2.486      3.617
REMARK  Name = 
REMARK  2 active torsions:
REMARK  status: ('A' for Active; 'I' for Inactive)
REMARK    1  A    between atoms: C_1  and  O_2
REMARK    2  A    between atoms: O_2  and  C_3
REMARK                            x       y       z     vdW  Elec       q    Type
REMARK                         _______ _______ _______ _____ _____    ______ ____
ROOT
ATOM      1  C   UNL     1       6.250   6.446  17.576  0.00  0.00    +0.000 C 
ATOM      2  C   UNL     1       5.015   6.789  17.188  0.00  0.00    +0.000 C 
ATOM      3  C   UNL     1       3.817   6.186  17.795  0.00  0.00    +0.000 C 
ATOM      4  O   UNL     1       2.777   6.831  17.824  0.00  0.00    +0.000 OA
ATOM      5  C   UNL     1       3.956   4.845  18.406  0.00  0.00    +0.000 A 
ATOM      6  C   UNL     1       5.228   4.520  18.883  0.00  0.00    +0.000 A 
ATOM      7  C   UNL     1       5.420   3.341  19.594  0.00  0.00    +0.000 A 
ATOM      8  C   UNL     1       4.339   2.490  19.812  0.00  0.00    +0.000 A 
ATOM      9  C   UNL     1       3.070   2.770  19.322  0.00  0.00    +0.000 A 
ATOM     10  N   UNL     1       2.126   1.865  19.586  0.00  0.00    +0.000 NA
ATOM     11  C   UNL     1       0.908   2.099  19.094  0.00  0.00    +0.000 A 
ATOM     12  N   UNL     1       0.561   3.144  18.347  0.00  0.00    +0.000 NA
ATOM     13  C   UNL     1       1.525   4.043  18.092  0.00  0.00    +0.000 A 
ATOM     14  N   UNL     1       1.127   5.007  17.172  0.00  0.00    +0.000 N 
ATOM     15  C   UNL     1       2.848   3.945  18.585  0.00  0.00    +0.000 A 
ATOM     16  C   UNL     1       6.391   5.399  18.636  0.00  0.00    +0.000 C 
ATOM     17  O   UNL     1       7.434   5.234  19.256  0.00  0.00    +0.000 OA
ATOM     18  H   UNL     1       0.123   4.930  17.041  0.00  0.00    +0.000 HD
ATOM     19  H   UNL     1       1.402   5.952  17.455  0.00  0.00    +0.000 HD
ENDROOT
BRANCH   1  21
ATOM     20  C   UNL     1       7.799   8.276  17.603  0.00  0.00    +0.000 C 
ATOM     21  O   UNL     1       7.427   6.995  17.112  0.00  0.00    +0.000 OA
ENDBRANCH   1  21
TORSDOF 1
ENDMDL
MODEL 6
REMARK VINA RESULT:      -6.3      2.901      5.336
REMARK  Name = 
REMARK  2 active torsions:
REMARK  status: ('A' for Active; 'I' for Inactive)
REMARK    1  A    between atoms: C_1  and  O_2
REMARK    2  A    between atoms: O_2  and  C_3
REMARK                            x       y       z     vdW  Elec       q    Type
REMARK                         _______ _______ _______ _____ _____    ______ ____
ROOT
ATOM      1  C   UNL     1       2.102   3.891  20.524  0.00  0.00    +0.000 C 
ATOM      2  C   UNL     1       3.028   3.092  19.978  0.00  0.00    +0.000 C 
ATOM      3  C   UNL     1       4.113   3.626  19.138  0.00  0.00    +0.000 C 
ATOM      4  O   UNL     1       5.178   3.023  19.089  0.00  0.00    +0.000 OA
ATOM      5  C   UNL     1       3.879   4.914  18.449  0.00  0.00    +0.000 A 
ATOM      6  C   UNL     1       2.972   5.780  19.062  0.00  0.00    +0.000 A 
ATOM      7  C   UNL     1       2.793   7.065  18.561  0.00  0.00    +0.000 A 
ATOM      8  C   UNL     1       3.516   7.468  17.441  0.00  0.00    +0.000 A 
ATOM      9  C   UNL     1       4.401   6.620  16.790  0.00  0.00    +0.000 A 
ATOM     10  N   UNL     1       5.017   7.123  15.720  0.00  0.00    +0.000 NA
ATOM     11  C   UNL     1       5.845   6.311  15.059  0.00  0.00    +0.000 A 
ATOM     12  N   UNL     1       6.091   5.039  15.364  0.00  0.00    +0.000 NA
ATOM     13  C   UNL     1       5.460   4.551  16.443  0.00  0.00    +0.000 A 
ATOM     14  N   UNL     1       5.638   3.179  16.591  0.00  0.00    +0.000 N 
ATOM     15  C   UNL     1       4.590   5.309  17.262  0.00  0.00    +0.000 A 
ATOM     16  C   UNL     1       2.177   5.357  20.236  0.00  0.00    +0.000 C 
ATOM     17  O   UNL     1       1.576   6.186  20.907  0.00  0.00    +0.000 OA
ATOM     18  H   UNL     1       6.370   2.880  15.954  0.00  0.00    +0.000 HD
ATOM     19  H   UNL     1       5.846   2.916  17.559  0.00  0.00    +0.000 HD
ENDROOT
BRANCH   1  21
ATOM     20  C   UNL     1       1.296   2.327  22.154  0.00  0.00    +0.000 C 
ATOM     21  O   UNL     1       1.087   3.494  21.370  0.00  0.00    +0.000 OA
ENDBRANCH   1  21
TORSDOF 1
ENDMDL
MODEL 7
REMARK VINA RESULT:      -6.3      2.712      4.574
REMARK  Name = 
REMARK  2 active torsions:
REMARK  status: ('A' for Active; 'I' for Inactive)
REMARK    1  A    between atoms: C_1  and  O_2
REMARK    2  A    between atoms: O_2  and  C_3
REMARK                            x       y       z     vdW  Elec       q    Type
REMARK                         _______ _______ _______ _____ _____    ______ ____
ROOT
ATOM      1  C   UNL     1       4.215   3.563  19.573  0.00  0.00    +0.000 C 
ATOM      2  C   UNL     1       3.310   4.009  20.453  0.00  0.00    +0.000 C 
ATOM      3  C   UNL     1       2.405   5.127  20.133  0.00  0.00    +0.000 C 
ATOM      4  O   UNL     1       1.310   5.179  20.678  0.00  0.00    +0.000 OA
ATOM      5  C   UNL     1       2.848   6.098  19.108  0.00  0.00    +0.000 A 
ATOM      6  C   UNL     1       3.731   5.609  18.144  0.00  0.00    +0.000 A 
ATOM      7  C   UNL     1       4.092   6.409  17.065  0.00  0.00    +0.000 A 
ATOM      8  C   UNL     1       3.573   7.698  16.967  0.00  0.00    +0.000 A 
ATOM      9  C   UNL     1       2.718   8.223  17.926  0.00  0.00    +0.000 A 
ATOM     10  N   UNL     1       2.307   9.476  17.722  0.00  0.00    +0.000 NA
ATOM     11  C   UNL     1       1.513  10.011  18.652  0.00  0.00    +0.000 A 
ATOM     12  N   UNL     1       1.115   9.412  19.772  0.00  0.00    +0.000 NA
ATOM     13  C   UNL     1       1.541   8.153  19.958  0.00  0.00    +0.000 A 
ATOM     14  N   UNL     1       1.224   7.663  21.222  0.00  0.00    +0.000 N 
ATOM     15  C   UNL     1       2.350   7.446  19.037  0.00  0.00    +0.000 A 
ATOM     16  C   UNL     1       4.312   4.252  18.248  0.00  0.00    +0.000 C 
ATOM     17  O   UNL     1       4.882   3.748  17.290  0.00  0.00    +0.000 OA
ATOM     18  H   UNL     1       0.567   8.302  21.657  0.00  0.00    +0.000 HD
ATOM     19  H   UNL     1       0.859   6.707  21.188  0.00  0.00    +0.000 HD
ENDROOT
BRANCH   1  21
ATOM     20  C   UNL     1       4.792   1.611  20.841  0.00  0.00    +0.000 C 
ATOM     21  O   UNL     1       5.062   2.489  19.756  0.00  0.00    +0.000 OA
ENDBRANCH   1  21
TORSDOF 1
ENDMDL
MODEL 8
REMARK VINA RESULT:      -6.2      2.245      3.194
REMARK  Name = 
REMARK  2 active torsions:
REMARK  status: ('A' for Active; 'I' for Inactive)
REMARK    1  A    between atoms: C_1  and  O_2
REMARK    2  A    between atoms: O_2  and  C_3
REMARK                            x       y       z     vdW  Elec       q    Type
REMARK                         _______ _______ _______ _____ _____    ______ ____
ROOT
ATOM      1  C   UNL     1       7.295   6.615  17.396  0.00  0.00    +0.000 C 
ATOM      2  C   UNL     1       6.888   6.420  18.657  0.00  0.00    +0.000 C 
ATOM      3  C   UNL     1       6.025   5.285  19.025  0.00  0.00    +0.000 C 
ATOM      4  O   UNL     1       6.089   4.834  20.162  0.00  0.00    +0.000 OA
ATOM      5  C   UNL     1       5.169   4.701  17.969  0.00  0.00    +0.000 A 
ATOM      6  C   UNL     1       5.636   4.835  16.659  0.00  0.00    +0.000 A 
ATOM      7  C   UNL     1       4.969   4.200  15.618  0.00  0.00    +0.000 A 
ATOM      8  C   UNL     1       3.833   3.444  15.894  0.00  0.00    +0.000 A 
ATOM      9  C   UNL     1       3.326   3.318  17.180  0.00  0.00    +0.000 A 
ATOM     10  N   UNL     1       2.222   2.579  17.306  0.00  0.00    +0.000 NA
ATOM     11  C   UNL     1       1.699   2.476  18.530  0.00  0.00    +0.000 A 
ATOM     12  N   UNL     1       2.171   3.061  19.628  0.00  0.00    +0.000 NA
ATOM     13  C   UNL     1       3.282   3.800  19.479  0.00  0.00    +0.000 A 
ATOM     14  N   UNL     1       3.609   4.510  20.630  0.00  0.00    +0.000 N 
ATOM     15  C   UNL     1       3.967   3.963  18.252  0.00  0.00    +0.000 A 
ATOM     16  C   UNL     1       6.825   5.657  16.347  0.00  0.00    +0.000 C 
ATOM     17  O   UNL     1       7.364   5.573  15.251  0.00  0.00    +0.000 OA
ATOM     18  H   UNL     1       3.041   4.159  21.395  0.00  0.00    +0.000 HD
ATOM     19  H   UNL     1       4.609   4.461  20.847  0.00  0.00    +0.000 HD
ENDROOT
BRANCH   1  21
ATOM     20  C   UNL     1       8.134   8.845  17.668  0.00  0.00    +0.000 C 
ATOM     21  O   UNL     1       8.149   7.609  16.965  0.00  0.00    +0.000 OA
ENDBRANCH   1  21
TORSDOF 1
ENDMDL
MODEL 9
REMARK VINA RESULT:      -6.2      1.656      2.963
REMARK  Name = 
REMARK  2 active torsions:
REMARK  status: ('A' for Active; 'I' for Inactive)
REMARK    1  A    between atoms: C_1  and  O_2
REMARK    2  A    between atoms: O_2  and  C_3
REMARK                            x       y       z     vdW  Elec       q    Type
REMARK                         _______ _______ _______ _____ _____    ______ ____
ROOT
ATOM      1  C   UNL     1       5.470   5.369  16.017  0.00  0.00    +0.000 C 
ATOM      2  C   UNL     1       5.200   6.173  17.054  0.00  0.00    +0.000 C 
ATOM      3  C   UNL     1       4.702   5.645  18.335  0.00  0.00    +0.000 C 
ATOM      4  O   UNL     1       4.949   6.257  19.366  0.00  0.00    +0.000 OA
ATOM      5  C   UNL     1       3.983   4.352  18.313  0.00  0.00    +0.000 A 
ATOM      6  C   UNL     1       4.323   3.480  17.276  0.00  0.00    +0.000 A 
ATOM      7  C   UNL     1       3.801   2.192  17.254  0.00  0.00    +0.000 A 
ATOM      8  C   UNL     1       2.932   1.790  18.265  0.00  0.00    +0.000 A 
ATOM      9  C   UNL     1       2.549   2.643  19.291  0.00  0.00    +0.000 A 
ATOM     10  N   UNL     1       1.698   2.140  20.186  0.00  0.00    +0.000 NA
ATOM     11  C   UNL     1       1.290   2.957  21.160  0.00  0.00    +0.000 A 
ATOM     12  N   UNL     1       1.643   4.232  21.302  0.00  0.00    +0.000 NA
ATOM     13  C   UNL     1       2.499   4.719  20.391  0.00  0.00    +0.000 A 
ATOM     14  N   UNL     1       2.682   6.094  20.509  0.00  0.00    +0.000 N 
ATOM     15  C   UNL     1       3.046   3.957  19.331  0.00  0.00    +0.000 A 
ATOM     16  C   UNL     1       5.224   3.902  16.181  0.00  0.00    +0.000 C 
ATOM     17  O   UNL     1       5.705   3.071  15.421  0.00  0.00    +0.000 OA
ATOM     18  H   UNL     1       2.274   6.396  21.388  0.00  0.00    +0.000 HD
ATOM     19  H   UNL     1       3.667   6.363  20.436  0.00  0.00    +0.000 HD
ENDROOT
BRANCH   1  21
ATOM     20  C   UNL     1       7.211   5.159  14.383  0.00  0.00    +0.000 C 
ATOM     21  O   UNL     1       5.994   5.760  14.803  0.00  0.00    +0.000 OA
ENDBRANCH   1  21
TORSDOF 1
ENDMDL
