MODEL 1
REMARK VINA RESULT:      -6.3      0.000      0.000
REMARK  Name = 
REMARK  6 active torsions:
REMARK  status: ('A' for Active; 'I' for Inactive)
REMARK    1  A    between atoms: C_1  and  C_2
REMARK    2  A    between atoms: C_3  and  C_4
REMARK    3  A    between atoms: C_6  and  C_7
REMARK    4  A    between atoms: C_7  and  O_9
REMARK    5  A    between atoms: O_9  and  C_10
REMARK    6  A    between atoms: C_14  and  O_15
REMARK                            x       y       z     vdW  Elec       q    Type
REMARK                         _______ _______ _______ _____ _____    ______ ____
ROOT
ATOM      1  C   UNL     1       4.874   4.981  18.453  0.00  0.00    +0.000 C 
ATOM      2  C   UNL     1       4.381   3.811  17.630  0.00  0.00    +0.000 C 
ATOM      3  C   UNL     1       3.953   2.633  18.141  0.00  0.00    +0.000 C 
ATOM      4  C   UNL     1       4.486   4.101  16.137  0.00  0.00    +0.000 C 
ATOM      5  C   UNL     1       5.916   4.503  15.741  0.00  0.00    +0.000 C 
ATOM      6  C   UNL     1       6.446   5.669  16.584  0.00  0.00    +0.000 C 
ATOM      7  C   UNL     1       6.330   5.355  18.077  0.00  0.00    +0.000 C 
ENDROOT
BRANCH   1  10
ATOM      8  C   UNL     1       2.292   8.410  17.790  0.00  0.00    +0.000 C 
ATOM      9  C   UNL     1       3.195   7.210  18.022  0.00  0.00    +0.000 C 
ATOM     10  C   UNL     1       3.971   6.181  18.221  0.00  0.00    +0.000 C 
ENDBRANCH   1  10
BRANCH   3  11
ATOM     11  C   UNL     1       3.852   2.353  19.607  0.00  0.00    +0.000 C 
ATOM     12  O   UNL     1       4.783   2.077  20.325  0.00  0.00    +0.000 OA
BRANCH  11  13
ATOM     13  O   UNL     1       2.560   2.437  20.040  0.00  0.00    +0.000 OA
ATOM     14  C   UNL     1       2.511   2.812  21.425  0.00  0.00    +0.000 C 
ENDBRANCH  11  13
ENDBRANCH   3  11
BRANCH   7  15
ATOM     15  O   UNL     1       7.242   4.298  18.411  0.00  0.00    +0.000 OA
ATOM     16  H   UNL     1       6.721   3.502  18.614  0.00  0.00    +0.000 HD
ENDBRANCH   7  15
TORSDOF 4
ENDMDL
MODEL 2
REMARK VINA RESULT:      -6.3      1.334      1.846
REMARK  Name = 
REMARK  6 active torsions:
REMARK  status: ('A' for Active; 'I' for Inactive)
REMARK    1  A    between atoms: C_1  and  C_2
REMARK    2  A    between atoms: C_3  and  C_4
REMARK    3  A    between atoms: C_6  and  C_7
REMARK    4  A    between atoms: C_7  and  O_9
REMARK    5  A    between atoms: O_9  and  C_10
REMARK    6  A    between atoms: C_14  and  O_15
REMARK                            x       y       z     vdW  Elec       q    Type
REMARK                         _______ _______ _______ _____ _____    ______ ____
ROOT
ATOM      1  C   UNL     1       3.508   4.685  18.708  0.00  0.00    +0.000 C 
ATOM      2  C   UNL     1       3.278   3.816  17.490  0.00  0.00    +0.000 C 
ATOM      3  C   UNL     1       2.428   2.764  17.442  0.00  0.00    +0.000 C 
ATOM      4  C   UNL     1       4.177   4.234  16.333  0.00  0.00    +0.000 C 
ATOM      5  C   UNL     1       5.659   4.243  16.746  0.00  0.00    +0.000 C 
ATOM      6  C   UNL     1       5.908   5.095  17.995  0.00  0.00    +0.000 C 
ATOM      7  C   UNL     1       4.996   4.656  19.142  0.00  0.00    +0.000 C 
ENDROOT
BRANCH   1  10
ATOM      8  C   UNL     1       2.352   8.774  17.808  0.00  0.00    +0.000 C 
ATOM      9  C   UNL     1       2.756   7.343  18.123  0.00  0.00    +0.000 C 
ATOM     10  C   UNL     1       3.104   6.116  18.393  0.00  0.00    +0.000 C 
ENDBRANCH   1  10
BRANCH   3  11
ATOM     11  C   UNL     1       1.547   2.357  18.581  0.00  0.00    +0.000 C 
ATOM     12  O   UNL     1       0.342   2.280  18.531  0.00  0.00    +0.000 OA
BRANCH  11  13
ATOM     13  O   UNL     1       2.278   2.088  19.702  0.00  0.00    +0.000 OA
ATOM     14  C   UNL     1       1.594   2.546  20.878  0.00  0.00    +0.000 C 
ENDBRANCH  11  13
ENDBRANCH   3  11
BRANCH   7  15
ATOM     15  O   UNL     1       5.384   3.347  19.583  0.00  0.00    +0.000 OA
ATOM     16  H   UNL     1       4.607   2.920  19.984  0.00  0.00    +0.000 HD
ENDBRANCH   7  15
TORSDOF 4
ENDMDL
MODEL 3
REMARK VINA RESULT:      -6.1      1.390      1.563
REMARK  Name = 
REMARK  6 active torsions:
REMARK  status: ('A' for Active; 'I' for Inactive)
REMARK    1  A    between atoms: C_1  and  C_2
REMARK    2  A    between atoms: C_3  and  C_4
REMARK    3  A    between atoms: C_6  and  C_7
REMARK    4  A    between atoms: C_7  and  O_9
REMARK    5  A    between atoms: O_9  and  C_10
REMARK    6  A    between atoms: C_14  and  O_15
REMARK                            x       y       z     vdW  Elec       q    Type
REMARK                         _______ _______ _______ _____ _____    ______ ____
ROOT
ATOM      1  C   UNL     1       4.198   5.226  18.341  0.00  0.00    +0.000 C 
ATOM      2  C   UNL     1       4.259   4.489  17.021  0.00  0.00    +0.000 C 
ATOM      3  C   UNL     1       3.710   3.273  16.790  0.00  0.00    +0.000 C 
ATOM      4  C   UNL     1       5.077   5.260  15.992  0.00  0.00    +0.000 C 
ATOM      5  C   UNL     1       6.484   5.584  16.520  0.00  0.00    +0.000 C 
ATOM      6  C   UNL     1       6.445   6.307  17.872  0.00  0.00    +0.000 C 
ATOM      7  C   UNL     1       5.620   5.514  18.887  0.00  0.00    +0.000 C 
ENDROOT
BRANCH   1  10
ATOM      8  C   UNL     1       2.078   8.980  17.805  0.00  0.00    +0.000 C 
ATOM      9  C   UNL     1       2.820   7.667  17.993  0.00  0.00    +0.000 C 
ATOM     10  C   UNL     1       3.457   6.540  18.153  0.00  0.00    +0.000 C 
ENDBRANCH   1  10
BRANCH   3  11
ATOM     11  C   UNL     1       2.908   2.519  17.803  0.00  0.00    +0.000 C 
ATOM     12  O   UNL     1       3.350   1.680  18.551  0.00  0.00    +0.000 OA
BRANCH  11  13
ATOM     13  O   UNL     1       1.595   2.892  17.773  0.00  0.00    +0.000 OA
ATOM     14  C   UNL     1       1.073   3.026  19.104  0.00  0.00    +0.000 C 
ENDBRANCH  11  13
ENDBRANCH   3  11
BRANCH   7  15
ATOM     15  O   UNL     1       6.309   4.297  19.211  0.00  0.00    +0.000 OA
ATOM     16  H   UNL     1       7.240   4.399  18.950  0.00  0.00    +0.000 HD
ENDBRANCH   7  15
TORSDOF 4
ENDMDL
MODEL 4
REMARK VINA RESULT:      -5.9      2.932      5.240
REMARK  Name = 
REMARK  6 active torsions:
REMARK  status: ('A' for Active; 'I' for Inactive)
REMARK    1  A    between atoms: C_1  and  C_2
REMARK    2  A    between atoms: C_3  and  C_4
REMARK    3  A    between atoms: C_6  and  C_7
REMARK    4  A    between atoms: C_7  and  O_9
REMARK    5  A    between atoms: O_9  and  C_10
REMARK    6  A    between atoms: C_14  and  O_15
REMARK                            x       y       z     vdW  Elec       q    Type
REMARK                         _______ _______ _______ _____ _____    ______ ____
ROOT
ATOM      1  C   UNL     1       6.164   6.404  16.754  0.00  0.00    +0.000 C 
ATOM      2  C   UNL     1       6.908   5.090  16.847  0.00  0.00    +0.000 C 
ATOM      3  C   UNL     1       7.251   4.321  15.787  0.00  0.00    +0.000 C 
ATOM      4  C   UNL     1       7.170   4.703  18.297  0.00  0.00    +0.000 C 
ATOM      5  C   UNL     1       5.869   4.670  19.115  0.00  0.00    +0.000 C 
ATOM      6  C   UNL     1       5.084   5.984  19.011  0.00  0.00    +0.000 C 
ATOM      7  C   UNL     1       4.833   6.351  17.547  0.00  0.00    +0.000 C 
ENDROOT
BRANCH   1  10
ATOM      8  C   UNL     1       8.653   9.593  18.336  0.00  0.00    +0.000 C 
ATOM      9  C   UNL     1       7.782   8.477  17.782  0.00  0.00    +0.000 C 
ATOM     10  C   UNL     1       7.035   7.520  17.307  0.00  0.00    +0.000 C 
ENDBRANCH   1  10
BRANCH   3  11
ATOM     11  C   UNL     1       6.992   4.705  14.365  0.00  0.00    +0.000 C 
ATOM     12  O   UNL     1       7.639   5.508  13.735  0.00  0.00    +0.000 OA
BRANCH  11  13
ATOM     13  O   UNL     1       5.914   4.036  13.859  0.00  0.00    +0.000 OA
ATOM     14  C   UNL     1       6.203   3.521  12.550  0.00  0.00    +0.000 C 
ENDBRANCH  11  13
ENDBRANCH   3  11
BRANCH   7  15
ATOM     15  O   UNL     1       3.922   5.404  16.971  0.00  0.00    +0.000 OA
ATOM     16  H   UNL     1       3.950   4.592  17.506  0.00  0.00    +0.000 HD
ENDBRANCH   7  15
TORSDOF 4
ENDMDL
MODEL 5
REMARK VINA RESULT:      -5.8      1.215      1.384
REMARK  Name = 
REMARK  6 active torsions:
REMARK  status: ('A' for Active; 'I' for Inactive)
REMARK    1  A    between atoms: C_1  and  C_2
REMARK    2  A    between atoms: C_3  and  C_4
REMARK    3  A    between atoms: C_6  and  C_7
REMARK    4  A    between atoms: C_7  and  O_9
REMARK    5  A    between atoms: O_9  and  C_10
REMARK    6  A    between atoms: C_14  and  O_15
REMARK                            x       y       z     vdW  Elec       q    Type
REMARK                         _______ _______ _______ _____ _____    ______ ____
ROOT
ATOM      1  C   UNL     1       4.399   4.779  19.336  0.00  0.00    +0.000 C 
ATOM      2  C   UNL     1       3.655   3.571  18.810  0.00  0.00    +0.000 C 
ATOM      3  C   UNL     1       3.462   2.422  19.501  0.00  0.00    +0.000 C 
ATOM      4  C   UNL     1       3.200   3.782  17.372  0.00  0.00    +0.000 C 
ATOM      5  C   UNL     1       4.378   4.157  16.458  0.00  0.00    +0.000 C 
ATOM      6  C   UNL     1       5.163   5.363  16.988  0.00  0.00    +0.000 C 
ATOM      7  C   UNL     1       5.609   5.126  18.433  0.00  0.00    +0.000 C 
ENDROOT
BRANCH   1  10
ATOM      8  C   UNL     1       1.702   8.181  19.498  0.00  0.00    +0.000 C 
ATOM      9  C   UNL     1       2.646   6.990  19.441  0.00  0.00    +0.000 C 
ATOM     10  C   UNL     1       3.455   5.969  19.393  0.00  0.00    +0.000 C 
ENDBRANCH   1  10
BRANCH   3  11
ATOM     11  C   UNL     1       3.910   2.219  20.914  0.00  0.00    +0.000 C 
ATOM     12  O   UNL     1       4.985   1.774  21.242  0.00  0.00    +0.000 OA
BRANCH  11  13
ATOM     13  O   UNL     1       2.941   2.591  21.800  0.00  0.00    +0.000 OA
ATOM     14  C   UNL     1       1.643   2.532  21.190  0.00  0.00    +0.000 C 
ENDBRANCH  11  13
ENDBRANCH   3  11
BRANCH   7  15
ATOM     15  O   UNL     1       6.595   4.084  18.460  0.00  0.00    +0.000 OA
ATOM     16  H   UNL     1       7.466   4.488  18.302  0.00  0.00    +0.000 HD
ENDBRANCH   7  15
TORSDOF 4
ENDMDL
MODEL 6
REMARK VINA RESULT:      -5.8      2.048      3.464
REMARK  Name = 
REMARK  6 active torsions:
REMARK  status: ('A' for Active; 'I' for Inactive)
REMARK    1  A    between atoms: C_1  and  C_2
REMARK    2  A    between atoms: C_3  and  C_4
REMARK    3  A    between atoms: C_6  and  C_7
REMARK    4  A    between atoms: C_7  and  O_9
REMARK    5  A    between atoms: O_9  and  C_10
REMARK    6  A    between atoms: C_14  and  O_15
REMARK                            x       y       z     vdW  Elec       q    Type
REMARK                         _______ _______ _______ _____ _____    ______ ____
ROOT
ATOM      1  C   UNL     1       4.651   4.880  16.671  0.00  0.00    +0.000 C 
ATOM      2  C   UNL     1       5.389   4.213  17.811  0.00  0.00    +0.000 C 
ATOM      3  C   UNL     1       4.834   3.336  18.681  0.00  0.00    +0.000 C 
ATOM      4  C   UNL     1       6.829   4.702  17.903  0.00  0.00    +0.000 C 
ATOM      5  C   UNL     1       6.897   6.235  18.010  0.00  0.00    +0.000 C 
ATOM      6  C   UNL     1       6.131   6.931  16.878  0.00  0.00    +0.000 C 
ATOM      7  C   UNL     1       4.689   6.424  16.808  0.00  0.00    +0.000 C 
ENDROOT
BRANCH   1  10
ATOM      8  C   UNL     1       6.471   3.726  12.899  0.00  0.00    +0.000 C 
ATOM      9  C   UNL     1       5.834   4.130  14.219  0.00  0.00    +0.000 C 
ATOM     10  C   UNL     1       5.288   4.477  15.351  0.00  0.00    +0.000 C 
ENDBRANCH   1  10
BRANCH   3  11
ATOM     11  C   UNL     1       3.420   2.858  18.588  0.00  0.00    +0.000 C 
ATOM     12  O   UNL     1       3.070   1.826  18.065  0.00  0.00    +0.000 OA
BRANCH  11  13
ATOM     13  O   UNL     1       2.557   3.745  19.164  0.00  0.00    +0.000 OA
ATOM     14  C   UNL     1       1.409   3.955  18.328  0.00  0.00    +0.000 C 
ENDBRANCH  11  13
ENDBRANCH   3  11
BRANCH   7  15
ATOM     15  O   UNL     1       3.975   6.860  17.973  0.00  0.00    +0.000 OA
ATOM     16  H   UNL     1       4.259   7.768  18.179  0.00  0.00    +0.000 HD
ENDBRANCH   7  15
TORSDOF 4
ENDMDL
MODEL 7
REMARK VINA RESULT:      -5.7      1.838      4.158
REMARK  Name = 
REMARK  6 active torsions:
REMARK  status: ('A' for Active; 'I' for Inactive)
REMARK    1  A    between atoms: C_1  and  C_2
REMARK    2  A    between atoms: C_3  and  C_4
REMARK    3  A    between atoms: C_6  and  C_7
REMARK    4  A    between atoms: C_7  and  O_9
REMARK    5  A    between atoms: O_9  and  C_10
REMARK    6  A    between atoms: C_14  and  O_15
REMARK                            x       y       z     vdW  Elec       q    Type
REMARK                         _______ _______ _______ _____ _____    ______ ____
ROOT
ATOM      1  C   UNL     1       3.683   5.578  17.818  0.00  0.00    +0.000 C 
ATOM      2  C   UNL     1       4.299   5.290  19.170  0.00  0.00    +0.000 C 
ATOM      3  C   UNL     1       5.629   5.195  19.408  0.00  0.00    +0.000 C 
ATOM      4  C   UNL     1       3.229   5.055  20.229  0.00  0.00    +0.000 C 
ATOM      5  C   UNL     1       2.256   3.942  19.807  0.00  0.00    +0.000 C 
ATOM      6  C   UNL     1       1.641   4.200  18.426  0.00  0.00    +0.000 C 
ATOM      7  C   UNL     1       2.735   4.433  17.381  0.00  0.00    +0.000 C 
ENDROOT
BRANCH   1  10
ATOM      8  C   UNL     1       1.452   9.300  18.007  0.00  0.00    +0.000 C 
ATOM      9  C   UNL     1       2.233   7.998  17.941  0.00  0.00    +0.000 C 
ATOM     10  C   UNL     1       2.902   6.880  17.884  0.00  0.00    +0.000 C 
ENDBRANCH   1  10
BRANCH   3  11
ATOM     11  C   UNL     1       6.677   5.427  18.365  0.00  0.00    +0.000 C 
ATOM     12  O   UNL     1       7.262   6.470  18.191  0.00  0.00    +0.000 OA
BRANCH  11  13
ATOM     13  O   UNL     1       6.888   4.305  17.617  0.00  0.00    +0.000 OA
ATOM     14  C   UNL     1       6.977   4.634  16.222  0.00  0.00    +0.000 C 
ENDBRANCH  11  13
ENDBRANCH   3  11
BRANCH   7  15
ATOM     15  O   UNL     1       3.457   3.211  17.170  0.00  0.00    +0.000 OA
ATOM     16  H   UNL     1       3.460   3.023  16.216  0.00  0.00    +0.000 HD
ENDBRANCH   7  15
TORSDOF 4
ENDMDL
MODEL 8
REMARK VINA RESULT:      -5.7      1.924      4.434
REMARK  Name = 
REMARK  6 active torsions:
REMARK  status: ('A' for Active; 'I' for Inactive)
REMARK    1  A    between atoms: C_1  and  C_2
REMARK    2  A    between atoms: C_3  and  C_4
REMARK    3  A    between atoms: C_6  and  C_7
REMARK    4  A    between atoms: C_7  and  O_9
REMARK    5  A    between atoms: O_9  and  C_10
REMARK    6  A    between atoms: C_14  and  O_15
REMARK                            x       y       z     vdW  Elec       q    Type
REMARK                         _______ _______ _______ _____ _____    ______ ____
ROOT
ATOM      1  C   UNL     1       4.454   4.943  17.084  0.00  0.00    +0.000 C 
ATOM      2  C   UNL     1       5.837   4.962  17.697  0.00  0.00    +0.000 C 
ATOM      3  C   UNL     1       6.992   4.867  16.998  0.00  0.00    +0.000 C 
ATOM      4  C   UNL     1       5.769   5.037  19.218  0.00  0.00    +0.000 C 
ATOM      5  C   UNL     1       4.912   3.901  19.800  0.00  0.00    +0.000 C 
ATOM      6  C   UNL     1       3.515   3.847  19.171  0.00  0.00    +0.000 C 
ATOM      7  C   UNL     1       3.610   3.771  17.645  0.00  0.00    +0.000 C 
ENDROOT
BRANCH   1  10
ATOM      8  C   UNL     1       2.442   8.698  17.934  0.00  0.00    +0.000 C 
ATOM      9  C   UNL     1       3.146   7.384  17.637  0.00  0.00    +0.000 C 
ATOM     10  C   UNL     1       3.750   6.257  17.382  0.00  0.00    +0.000 C 
ENDBRANCH   1  10
BRANCH   3  11
ATOM     11  C   UNL     1       7.055   4.793  15.505  0.00  0.00    +0.000 C 
ATOM     12  O   UNL     1       7.623   5.589  14.796  0.00  0.00    +0.000 OA
BRANCH  11  13
ATOM     13  O   UNL     1       6.374   3.708  15.033  0.00  0.00    +0.000 OA
ATOM     14  C   UNL     1       6.137   3.830  13.622  0.00  0.00    +0.000 C 
ENDBRANCH  11  13
ENDBRANCH   3  11
BRANCH   7  15
ATOM     15  O   UNL     1       4.164   2.502  17.267  0.00  0.00    +0.000 OA
ATOM     16  H   UNL     1       5.001   2.383  17.748  0.00  0.00    +0.000 HD
ENDBRANCH   7  15
TORSDOF 4
ENDMDL
MODEL 9
REMARK VINA RESULT:      -5.7      2.086      3.059
REMARK  Name = 
REMARK  6 active torsions:
REMARK  status: ('A' for Active; 'I' for Inactive)
REMARK    1  A    between atoms: C_1  and  C_2
REMARK    2  A    between atoms: C_3  and  C_4
REMARK    3  A    between atoms: C_6  and  C_7
REMARK    4  A    between atoms: C_7  and  O_9
REMARK    5  A    between atoms: O_9  and  C_10
REMARK    6  A    between atoms: C_14  and  O_15
REMARK                            x       y       z     vdW  Elec       q    Type
REMARK                         _______ _______ _______ _____ _____    ______ ____
ROOT
ATOM      1  C   UNL     1       6.107   5.465  17.485  0.00  0.00    +0.000 C 
ATOM      2  C   UNL     1       4.752   5.877  16.952  0.00  0.00    +0.000 C 
ATOM      3  C   UNL     1       3.574   5.652  17.580  0.00  0.00    +0.000 C 
ATOM      4  C   UNL     1       4.869   6.523  15.577  0.00  0.00    +0.000 C 
ATOM      5  C   UNL     1       5.610   5.609  14.587  0.00  0.00    +0.000 C 
ATOM      6  C   UNL     1       6.974   5.158  15.121  0.00  0.00    +0.000 C 
ATOM      7  C   UNL     1       6.829   4.512  16.500  0.00  0.00    +0.000 C 
ENDROOT
BRANCH   1  10
ATOM      8  C   UNL     1       8.548   9.003  18.114  0.00  0.00    +0.000 C 
ATOM      9  C   UNL     1       7.694   7.765  17.894  0.00  0.00    +0.000 C 
ATOM     10  C   UNL     1       6.961   6.703  17.705  0.00  0.00    +0.000 C 
ENDBRANCH   1  10
BRANCH   3  11
ATOM     11  C   UNL     1       3.462   5.016  18.930  0.00  0.00    +0.000 C 
ATOM     12  O   UNL     1       3.593   5.596  19.982  0.00  0.00    +0.000 OA
BRANCH  11  13
ATOM     13  O   UNL     1       3.201   3.680  18.829  0.00  0.00    +0.000 OA
ATOM     14  C   UNL     1       4.247   2.909  19.439  0.00  0.00    +0.000 C 
ENDBRANCH  11  13
ENDBRANCH   3  11
BRANCH   7  15
ATOM     15  O   UNL     1       6.126   3.268  16.370  0.00  0.00    +0.000 OA
ATOM     16  H   UNL     1       5.828   2.995  17.255  0.00  0.00    +0.000 HD
ENDBRANCH   7  15
TORSDOF 4
ENDMDL
