MODEL 1
REMARK VINA RESULT:      -7.5      0.000      0.000
REMARK  Name = 
REMARK  2 active torsions:
REMARK  status: ('A' for Active; 'I' for Inactive)
REMARK    1  A    between atoms: C_2  and  C_3
REMARK    2  A    between atoms: C_2  and  C_12
REMARK                            x       y       z     vdW  Elec       q    Type
REMARK                         _______ _______ _______ _____ _____    ______ ____
ROOT
ATOM      1  C   UNL     1       4.184   3.282  18.377  0.00  0.00    +0.000 A 
ATOM      2  C   UNL     1       3.769   2.097  17.797  0.00  0.00    +0.000 A 
ATOM      3  N   UNL     1       2.492   1.833  18.228  0.00  0.00    +0.000 N 
ATOM      4  C   UNL     1       2.055   2.835  19.064  0.00  0.00    +0.000 A 
ATOM      5  C   UNL     1       0.829   2.999  19.719  0.00  0.00    +0.000 A 
ATOM      6  C   UNL     1       0.662   4.143  20.507  0.00  0.00    +0.000 A 
ATOM      7  C   UNL     1       1.682   5.083  20.635  0.00  0.00    +0.000 A 
ATOM      8  C   UNL     1       2.903   4.898  19.981  0.00  0.00    +0.000 A 
ATOM      9  C   UNL     1       3.098   3.753  19.180  0.00  0.00    +0.000 A 
ATOM     10  H   UNL     1       1.942   1.025  17.971  0.00  0.00    +0.000 HD
ENDROOT
BRANCH   1  12
ATOM     11  O   UNL     1       6.181   4.169  19.199  0.00  0.00    +0.000 OA
ATOM     12  C   UNL     1       5.480   3.943  18.212  0.00  0.00    +0.000 C 
BRANCH  12  13
ATOM     13  C   UNL     1       5.954   4.328  16.804  0.00  0.00    +0.000 C 
ATOM     14  C   UNL     1       7.363   4.945  16.847  0.00  0.00    +0.000 C 
ATOM     15  C   UNL     1       7.350   6.365  17.422  0.00  0.00    +0.000 C 
ATOM     16  N   UNL     1       6.431   7.233  16.684  0.00  0.00    +0.000 NA
ATOM     17  C   UNL     1       5.068   6.708  16.717  0.00  0.00    +0.000 C 
ATOM     18  C   UNL     1       4.992   5.306  16.111  0.00  0.00    +0.000 C 
ATOM     19  H   UNL     1       6.745   7.307  15.716  0.00  0.00    +0.000 HD
ENDBRANCH  12  13
ENDBRANCH   1  12
TORSDOF 2
ENDMDL
MODEL 2
REMARK VINA RESULT:      -7.4      2.724      3.669
REMARK  Name = 
REMARK  2 active torsions:
REMARK  status: ('A' for Active; 'I' for Inactive)
REMARK    1  A    between atoms: C_2  and  C_3
REMARK    2  A    between atoms: C_2  and  C_12
REMARK                            x       y       z     vdW  Elec       q    Type
REMARK                         _______ _______ _______ _____ _____    ______ ____
ROOT
ATOM      1  C   UNL     1       3.441   5.834  18.468  0.00  0.00    +0.000 A 
ATOM      2  C   UNL     1       3.336   5.243  19.714  0.00  0.00    +0.000 A 
ATOM      3  N   UNL     1       2.621   6.085  20.529  0.00  0.00    +0.000 N 
ATOM      4  C   UNL     1       2.236   7.208  19.832  0.00  0.00    +0.000 A 
ATOM      5  C   UNL     1       1.486   8.317  20.243  0.00  0.00    +0.000 A 
ATOM      6  C   UNL     1       1.236   9.317  19.297  0.00  0.00    +0.000 A 
ATOM      7  C   UNL     1       1.720   9.213  17.996  0.00  0.00    +0.000 A 
ATOM      8  C   UNL     1       2.476   8.104  17.607  0.00  0.00    +0.000 A 
ATOM      9  C   UNL     1       2.742   7.080  18.540  0.00  0.00    +0.000 A 
ATOM     10  H   UNL     1       2.399   5.913  21.500  0.00  0.00    +0.000 HD
ENDROOT
BRANCH   1  12
ATOM     11  O   UNL     1       3.798   4.208  16.831  0.00  0.00    +0.000 OA
ATOM     12  C   UNL     1       4.128   5.302  17.290  0.00  0.00    +0.000 C 
BRANCH  12  13
ATOM     13  C   UNL     1       5.242   6.129  16.632  0.00  0.00    +0.000 C 
ATOM     14  C   UNL     1       5.761   5.438  15.358  0.00  0.00    +0.000 C 
ATOM     15  C   UNL     1       6.620   4.211  15.680  0.00  0.00    +0.000 C 
ATOM     16  N   UNL     1       7.732   4.554  16.568  0.00  0.00    +0.000 NA
ATOM     17  C   UNL     1       7.248   5.123  17.823  0.00  0.00    +0.000 C 
ATOM     18  C   UNL     1       6.419   6.385  17.585  0.00  0.00    +0.000 C 
ATOM     19  H   UNL     1       8.339   5.227  16.099  0.00  0.00    +0.000 HD
ENDBRANCH  12  13
ENDBRANCH   1  12
TORSDOF 2
ENDMDL
MODEL 3
REMARK VINA RESULT:      -7.4      1.666      5.493
REMARK  Name = 
REMARK  2 active torsions:
REMARK  status: ('A' for Active; 'I' for Inactive)
REMARK    1  A    between atoms: C_2  and  C_3
REMARK    2  A    between atoms: C_2  and  C_12
REMARK                            x       y       z     vdW  Elec       q    Type
REMARK                         _______ _______ _______ _____ _____    ______ ____
ROOT
ATOM      1  C   UNL     1       4.868   4.889  18.721  0.00  0.00    +0.000 A 
ATOM      2  C   UNL     1       5.999   5.154  19.473  0.00  0.00    +0.000 A 
ATOM      3  N   UNL     1       7.090   5.090  18.642  0.00  0.00    +0.000 N 
ATOM      4  C   UNL     1       6.692   4.810  17.355  0.00  0.00    +0.000 A 
ATOM      5  C   UNL     1       7.446   4.668  16.184  0.00  0.00    +0.000 A 
ATOM      6  C   UNL     1       6.757   4.391  14.998  0.00  0.00    +0.000 A 
ATOM      7  C   UNL     1       5.371   4.257  14.987  0.00  0.00    +0.000 A 
ATOM      8  C   UNL     1       4.636   4.391  16.168  0.00  0.00    +0.000 A 
ATOM      9  C   UNL     1       5.306   4.672  17.377  0.00  0.00    +0.000 A 
ATOM     10  H   UNL     1       8.050   5.232  18.924  0.00  0.00    +0.000 HD
ENDROOT
BRANCH   1  12
ATOM     11  O   UNL     1       2.680   5.696  18.826  0.00  0.00    +0.000 OA
ATOM     12  C   UNL     1       3.483   4.838  19.193  0.00  0.00    +0.000 C 
BRANCH  12  13
ATOM     13  C   UNL     1       3.048   3.699  20.126  0.00  0.00    +0.000 C 
ATOM     14  C   UNL     1       3.733   2.376  19.737  0.00  0.00    +0.000 C 
ATOM     15  C   UNL     1       3.147   1.784  18.452  0.00  0.00    +0.000 C 
ATOM     16  N   UNL     1       1.699   1.600  18.558  0.00  0.00    +0.000 NA
ATOM     17  C   UNL     1       1.026   2.867  18.832  0.00  0.00    +0.000 C 
ATOM     18  C   UNL     1       1.525   3.498  20.132  0.00  0.00    +0.000 C 
ATOM     19  H   UNL     1       1.500   0.938  19.308  0.00  0.00    +0.000 HD
ENDBRANCH  12  13
ENDBRANCH   1  12
TORSDOF 2
ENDMDL
MODEL 4
REMARK VINA RESULT:      -7.3      1.882      5.437
REMARK  Name = 
REMARK  2 active torsions:
REMARK  status: ('A' for Active; 'I' for Inactive)
REMARK    1  A    between atoms: C_2  and  C_3
REMARK    2  A    between atoms: C_2  and  C_12
REMARK                            x       y       z     vdW  Elec       q    Type
REMARK                         _______ _______ _______ _____ _____    ______ ____
ROOT
ATOM      1  C   UNL     1       4.531   3.484  18.246  0.00  0.00    +0.000 A 
ATOM      2  C   UNL     1       5.214   3.952  19.355  0.00  0.00    +0.000 A 
ATOM      3  N   UNL     1       6.262   4.724  18.918  0.00  0.00    +0.000 N 
ATOM      4  C   UNL     1       6.264   4.789  17.543  0.00  0.00    +0.000 A 
ATOM      5  C   UNL     1       7.123   5.466  16.669  0.00  0.00    +0.000 A 
ATOM      6  C   UNL     1       6.869   5.358  15.297  0.00  0.00    +0.000 A 
ATOM      7  C   UNL     1       5.802   4.601  14.821  0.00  0.00    +0.000 A 
ATOM      8  C   UNL     1       4.962   3.923  15.708  0.00  0.00    +0.000 A 
ATOM      9  C   UNL     1       5.194   4.015  17.096  0.00  0.00    +0.000 A 
ATOM     10  H   UNL     1       6.937   5.186  19.511  0.00  0.00    +0.000 HD
ENDROOT
BRANCH   1  12
ATOM     11  O   UNL     1       3.479   1.412  18.466  0.00  0.00    +0.000 OA
ATOM     12  C   UNL     1       3.353   2.615  18.234  0.00  0.00    +0.000 C 
BRANCH  12  13
ATOM     13  C   UNL     1       1.973   3.222  17.949  0.00  0.00    +0.000 C 
ATOM     14  C   UNL     1       1.936   4.712  18.337  0.00  0.00    +0.000 C 
ATOM     15  C   UNL     1       1.905   4.908  19.856  0.00  0.00    +0.000 C 
ATOM     16  N   UNL     1       0.784   4.191  20.465  0.00  0.00    +0.000 NA
ATOM     17  C   UNL     1       0.859   2.760  20.185  0.00  0.00    +0.000 C 
ATOM     18  C   UNL     1       0.845   2.480  18.682  0.00  0.00    +0.000 C 
ATOM     19  H   UNL     1      -0.092   4.566  20.099  0.00  0.00    +0.000 HD
ENDBRANCH  12  13
ENDBRANCH   1  12
TORSDOF 2
ENDMDL
MODEL 5
REMARK VINA RESULT:      -7.3      0.900      1.381
REMARK  Name = 
REMARK  2 active torsions:
REMARK  status: ('A' for Active; 'I' for Inactive)
REMARK    1  A    between atoms: C_2  and  C_3
REMARK    2  A    between atoms: C_2  and  C_12
REMARK                            x       y       z     vdW  Elec       q    Type
REMARK                         _______ _______ _______ _____ _____    ______ ____
ROOT
ATOM      1  C   UNL     1       4.079   3.358  18.187  0.00  0.00    +0.000 A 
ATOM      2  C   UNL     1       3.792   2.144  17.590  0.00  0.00    +0.000 A 
ATOM      3  N   UNL     1       2.694   1.608  18.217  0.00  0.00    +0.000 N 
ATOM      4  C   UNL     1       2.244   2.460  19.200  0.00  0.00    +0.000 A 
ATOM      5  C   UNL     1       1.158   2.341  20.075  0.00  0.00    +0.000 A 
ATOM      6  C   UNL     1       0.932   3.388  20.975  0.00  0.00    +0.000 A 
ATOM      7  C   UNL     1       1.761   4.506  20.999  0.00  0.00    +0.000 A 
ATOM      8  C   UNL     1       2.848   4.603  20.125  0.00  0.00    +0.000 A 
ATOM      9  C   UNL     1       3.098   3.561  19.207  0.00  0.00    +0.000 A 
ATOM     10  H   UNL     1       2.267   0.719  17.993  0.00  0.00    +0.000 HD
ENDROOT
BRANCH   1  12
ATOM     11  O   UNL     1       6.226   4.225  18.486  0.00  0.00    +0.000 OA
ATOM     12  C   UNL     1       5.172   4.273  17.852  0.00  0.00    +0.000 C 
BRANCH  12  13
ATOM     13  C   UNL     1       4.991   5.269  16.698  0.00  0.00    +0.000 C 
ATOM     14  C   UNL     1       5.421   4.644  15.358  0.00  0.00    +0.000 C 
ATOM     15  C   UNL     1       6.943   4.519  15.246  0.00  0.00    +0.000 C 
ATOM     16  N   UNL     1       7.603   5.810  15.444  0.00  0.00    +0.000 NA
ATOM     17  C   UNL     1       7.280   6.371  16.753  0.00  0.00    +0.000 C 
ATOM     18  C   UNL     1       5.773   6.572  16.922  0.00  0.00    +0.000 C 
ATOM     19  H   UNL     1       7.302   6.455  14.712  0.00  0.00    +0.000 HD
ENDBRANCH  12  13
ENDBRANCH   1  12
TORSDOF 2
ENDMDL
MODEL 6
REMARK VINA RESULT:      -7.3      1.619      5.623
REMARK  Name = 
REMARK  2 active torsions:
REMARK  status: ('A' for Active; 'I' for Inactive)
REMARK    1  A    between atoms: C_2  and  C_3
REMARK    2  A    between atoms: C_2  and  C_12
REMARK                            x       y       z     vdW  Elec       q    Type
REMARK                         _______ _______ _______ _____ _____    ______ ____
ROOT
ATOM      1  C   UNL     1       5.256   4.599  18.722  0.00  0.00    +0.000 A 
ATOM      2  C   UNL     1       6.298   5.292  19.314  0.00  0.00    +0.000 A 
ATOM      3  N   UNL     1       7.200   5.628  18.335  0.00  0.00    +0.000 N 
ATOM      4  C   UNL     1       6.758   5.186  17.108  0.00  0.00    +0.000 A 
ATOM      5  C   UNL     1       7.332   5.313  15.838  0.00  0.00    +0.000 A 
ATOM      6  C   UNL     1       6.637   4.765  14.754  0.00  0.00    +0.000 A 
ATOM      7  C   UNL     1       5.419   4.115  14.936  0.00  0.00    +0.000 A 
ATOM      8  C   UNL     1       4.866   3.988  16.213  0.00  0.00    +0.000 A 
ATOM      9  C   UNL     1       5.546   4.532  17.323  0.00  0.00    +0.000 A 
ATOM     10  H   UNL     1       8.064   6.131  18.481  0.00  0.00    +0.000 HD
ENDROOT
BRANCH   1  12
ATOM     11  O   UNL     1       4.152   2.939  19.937  0.00  0.00    +0.000 OA
ATOM     12  C   UNL     1       4.078   4.037  19.384  0.00  0.00    +0.000 C 
BRANCH  12  13
ATOM     13  C   UNL     1       2.769   4.838  19.395  0.00  0.00    +0.000 C 
ATOM     14  C   UNL     1       2.107   4.793  20.784  0.00  0.00    +0.000 C 
ATOM     15  C   UNL     1       1.480   3.427  21.077  0.00  0.00    +0.000 C 
ATOM     16  N   UNL     1       0.521   3.043  20.039  0.00  0.00    +0.000 NA
ATOM     17  C   UNL     1       1.159   2.988  18.726  0.00  0.00    +0.000 C 
ATOM     18  C   UNL     1       1.769   4.336  18.341  0.00  0.00    +0.000 C 
ATOM     19  H   UNL     1      -0.241   3.723  20.020  0.00  0.00    +0.000 HD
ENDBRANCH  12  13
ENDBRANCH   1  12
TORSDOF 2
ENDMDL
MODEL 7
REMARK VINA RESULT:      -7.2      2.962      5.016
REMARK  Name = 
REMARK  2 active torsions:
REMARK  status: ('A' for Active; 'I' for Inactive)
REMARK    1  A    between atoms: C_2  and  C_3
REMARK    2  A    between atoms: C_2  and  C_12
REMARK                            x       y       z     vdW  Elec       q    Type
REMARK                         _______ _______ _______ _____ _____    ______ ____
ROOT
ATOM      1  C   UNL     1       2.696   6.204  19.590  0.00  0.00    +0.000 A 
ATOM      2  C   UNL     1       2.123   6.041  20.839  0.00  0.00    +0.000 A 
ATOM      3  N   UNL     1       1.428   7.185  21.144  0.00  0.00    +0.000 N 
ATOM      4  C   UNL     1       1.517   8.086  20.108  0.00  0.00    +0.000 A 
ATOM      5  C   UNL     1       0.962   9.363  19.967  0.00  0.00    +0.000 A 
ATOM      6  C   UNL     1       1.216  10.055  18.777  0.00  0.00    +0.000 A 
ATOM      7  C   UNL     1       1.997   9.491  17.772  0.00  0.00    +0.000 A 
ATOM      8  C   UNL     1       2.553   8.219  17.934  0.00  0.00    +0.000 A 
ATOM      9  C   UNL     1       2.312   7.500  19.124  0.00  0.00    +0.000 A 
ATOM     10  H   UNL     1       0.918   7.350  22.000  0.00  0.00    +0.000 HD
ENDROOT
BRANCH   1  12
ATOM     11  O   UNL     1       4.651   4.960  19.305  0.00  0.00    +0.000 OA
ATOM     12  C   UNL     1       3.535   5.245  18.869  0.00  0.00    +0.000 C 
BRANCH  12  13
ATOM     13  C   UNL     1       3.001   4.595  17.585  0.00  0.00    +0.000 C 
ATOM     14  C   UNL     1       1.517   4.215  17.737  0.00  0.00    +0.000 C 
ATOM     15  C   UNL     1       1.327   2.996  18.644  0.00  0.00    +0.000 C 
ATOM     16  N   UNL     1       2.104   1.850  18.170  0.00  0.00    +0.000 NA
ATOM     17  C   UNL     1       3.529   2.166  18.113  0.00  0.00    +0.000 C 
ATOM     18  C   UNL     1       3.804   3.349  17.183  0.00  0.00    +0.000 C 
ATOM     19  H   UNL     1       1.776   1.583  17.241  0.00  0.00    +0.000 HD
ENDBRANCH  12  13
ENDBRANCH   1  12
TORSDOF 2
ENDMDL
MODEL 8
REMARK VINA RESULT:      -7.2      1.771      5.140
REMARK  Name = 
REMARK  2 active torsions:
REMARK  status: ('A' for Active; 'I' for Inactive)
REMARK    1  A    between atoms: C_2  and  C_3
REMARK    2  A    between atoms: C_2  and  C_12
REMARK                            x       y       z     vdW  Elec       q    Type
REMARK                         _______ _______ _______ _____ _____    ______ ____
ROOT
ATOM      1  C   UNL     1       4.520   4.032  17.029  0.00  0.00    +0.000 A 
ATOM      2  C   UNL     1       4.692   4.323  15.687  0.00  0.00    +0.000 A 
ATOM      3  N   UNL     1       5.749   5.190  15.569  0.00  0.00    +0.000 N 
ATOM      4  C   UNL     1       6.288   5.456  16.807  0.00  0.00    +0.000 A 
ATOM      5  C   UNL     1       7.375   6.261  17.169  0.00  0.00    +0.000 A 
ATOM      6  C   UNL     1       7.706   6.332  18.526  0.00  0.00    +0.000 A 
ATOM      7  C   UNL     1       6.977   5.628  19.482  0.00  0.00    +0.000 A 
ATOM      8  C   UNL     1       5.888   4.838  19.103  0.00  0.00    +0.000 A 
ATOM      9  C   UNL     1       5.533   4.749  17.740  0.00  0.00    +0.000 A 
ATOM     10  H   UNL     1       6.094   5.580  14.702  0.00  0.00    +0.000 HD
ENDROOT
BRANCH   1  12
ATOM     11  O   UNL     1       3.837   2.078  18.106  0.00  0.00    +0.000 OA
ATOM     12  C   UNL     1       3.506   3.161  17.623  0.00  0.00    +0.000 C 
BRANCH  12  13
ATOM     13  C   UNL     1       2.042   3.622  17.652  0.00  0.00    +0.000 C 
ATOM     14  C   UNL     1       1.933   5.078  18.139  0.00  0.00    +0.000 C 
ATOM     15  C   UNL     1       2.184   5.199  19.645  0.00  0.00    +0.000 C 
ATOM     16  N   UNL     1       1.286   4.333  20.410  0.00  0.00    +0.000 NA
ATOM     17  C   UNL     1       1.448   2.934  20.025  0.00  0.00    +0.000 C 
ATOM     18  C   UNL     1       1.164   2.724  18.537  0.00  0.00    +0.000 C 
ATOM     19  H   UNL     1       0.321   4.623  20.245  0.00  0.00    +0.000 HD
ENDBRANCH  12  13
ENDBRANCH   1  12
TORSDOF 2
ENDMDL
MODEL 9
REMARK VINA RESULT:      -7.1      2.041      5.308
REMARK  Name = 
REMARK  2 active torsions:
REMARK  status: ('A' for Active; 'I' for Inactive)
REMARK    1  A    between atoms: C_2  and  C_3
REMARK    2  A    between atoms: C_2  and  C_12
REMARK                            x       y       z     vdW  Elec       q    Type
REMARK                         _______ _______ _______ _____ _____    ______ ____
ROOT
ATOM      1  C   UNL     1       3.772   4.425  17.748  0.00  0.00    +0.000 A 
ATOM      2  C   UNL     1       3.851   3.920  16.462  0.00  0.00    +0.000 A 
ATOM      3  N   UNL     1       5.163   3.969  16.062  0.00  0.00    +0.000 N 
ATOM      4  C   UNL     1       5.949   4.478  17.070  0.00  0.00    +0.000 A 
ATOM      5  C   UNL     1       7.332   4.693  17.121  0.00  0.00    +0.000 A 
ATOM      6  C   UNL     1       7.864   5.220  18.303  0.00  0.00    +0.000 A 
ATOM      7  C   UNL     1       7.045   5.520  19.388  0.00  0.00    +0.000 A 
ATOM      8  C   UNL     1       5.665   5.308  19.316  0.00  0.00    +0.000 A 
ATOM      9  C   UNL     1       5.103   4.778  18.136  0.00  0.00    +0.000 A 
ATOM     10  H   UNL     1       5.512   3.673  15.161  0.00  0.00    +0.000 HD
ENDROOT
BRANCH   1  12
ATOM     11  O   UNL     1       2.154   5.701  18.843  0.00  0.00    +0.000 OA
ATOM     12  C   UNL     1       2.569   4.575  18.568  0.00  0.00    +0.000 C 
BRANCH  12  13
ATOM     13  C   UNL     1       1.832   3.322  19.058  0.00  0.00    +0.000 C 
ATOM     14  C   UNL     1       1.032   3.618  20.339  0.00  0.00    +0.000 C 
ATOM     15  C   UNL     1       1.943   3.775  21.561  0.00  0.00    +0.000 C 
ATOM     16  N   UNL     1       2.795   2.600  21.748  0.00  0.00    +0.000 NA
ATOM     17  C   UNL     1       3.631   2.362  20.574  0.00  0.00    +0.000 C 
ATOM     18  C   UNL     1       2.787   2.146  19.318  0.00  0.00    +0.000 C 
ATOM     19  H   UNL     1       2.206   1.783  21.919  0.00  0.00    +0.000 HD
ENDBRANCH  12  13
ENDBRANCH   1  12
TORSDOF 2
ENDMDL
