MODEL 1
REMARK VINA RESULT:      -8.5      0.000      0.000
REMARK  Name = 
REMARK  7 active torsions:
REMARK  status: ('A' for Active; 'I' for Inactive)
REMARK    1  A    between atoms: C_1  and  O_2
REMARK    2  A    between atoms: O_2  and  C_3
REMARK    3  A    between atoms: C_8  and  O_9
REMARK    4  A    between atoms: O_9  and  C_10
REMARK    5  A    between atoms: C_13  and  C_14
REMARK    6  A    between atoms: N_17  and  C_18
REMARK    7  A    between atoms: C_18  and  C_19
REMARK                            x       y       z     vdW  Elec       q    Type
REMARK                         _______ _______ _______ _____ _____    ______ ____
ROOT
ATOM      1  C   UNL     1       5.498   4.661  16.572  0.00  0.00    +0.000 A 
ATOM      2  C   UNL     1       4.463   3.699  16.500  0.00  0.00    +0.000 A 
ATOM      3  C   UNL     1       4.118   2.993  17.640  0.00  0.00    +0.000 A 
ATOM      4  C   UNL     1       4.779   3.190  18.819  0.00  0.00    +0.000 A 
ATOM      5  C   UNL     1       5.835   4.093  18.931  0.00  0.00    +0.000 A 
ATOM      6  C   UNL     1       6.202   4.849  17.790  0.00  0.00    +0.000 A 
ATOM      7  C   UNL     1       4.157   2.374  19.838  0.00  0.00    +0.000 C 
ATOM      8  O   UNL     1       4.586   2.242  20.970  0.00  0.00    +0.000 OA
ATOM      9  C   UNL     1       2.864   1.806  19.301  0.00  0.00    +0.000 C 
ATOM     10  C   UNL     1       3.080   1.926  17.768  0.00  0.00    +0.000 C 
ENDROOT
BRANCH   9  11
ATOM     11  C   UNL     1       1.520   2.545  19.704  0.00  0.00    +0.000 C 
ATOM     12  C   UNL     1       0.964   3.590  18.707  0.00  0.00    +0.000 C 
ATOM     13  C   UNL     1       1.730   4.913  18.765  0.00  0.00    +0.000 C 
ATOM     14  N   UNL     1       1.713   5.499  20.127  0.00  0.00    +0.000 NA
ATOM     15  C   UNL     1       2.193   4.547  21.162  0.00  0.00    +0.000 C 
ATOM     16  C   UNL     1       1.474   3.188  21.101  0.00  0.00    +0.000 C 
BRANCH  14  17
ATOM     17  C   UNL     1       2.578   6.703  20.164  0.00  0.00    +0.000 C 
BRANCH  17  18
ATOM     18  C   UNL     1       1.857   7.944  19.699  0.00  0.00    +0.000 A 
ATOM     19  C   UNL     1       2.017   8.395  18.382  0.00  0.00    +0.000 A 
ATOM     20  C   UNL     1       1.344   9.543  17.949  0.00  0.00    +0.000 A 
ATOM     21  C   UNL     1       0.511  10.244  18.824  0.00  0.00    +0.000 A 
ATOM     22  C   UNL     1       0.348   9.799  20.139  0.00  0.00    +0.000 A 
ATOM     23  C   UNL     1       1.018   8.654  20.578  0.00  0.00    +0.000 A 
ENDBRANCH  17  18
ENDBRANCH  14  17
ENDBRANCH   9  11
BRANCH   1  25
ATOM     24  C   UNL     1       6.563   5.013  14.424  0.00  0.00    +0.000 C 
ATOM     25  O   UNL     1       5.817   5.439  15.506  0.00  0.00    +0.000 OA
ENDBRANCH   1  25
BRANCH   6  26
ATOM     26  O   UNL     1       7.200   5.772  17.829  0.00  0.00    +0.000 OA
ATOM     27  C   UNL     1       7.893   6.166  18.959  0.00  0.00    +0.000 C 
ENDBRANCH   6  26
TORSDOF 5
ENDMDL
MODEL 2
REMARK VINA RESULT:      -8.3      0.446      1.024
REMARK  Name = 
REMARK  7 active torsions:
REMARK  status: ('A' for Active; 'I' for Inactive)
REMARK    1  A    between atoms: C_1  and  O_2
REMARK    2  A    between atoms: O_2  and  C_3
REMARK    3  A    between atoms: C_8  and  O_9
REMARK    4  A    between atoms: O_9  and  C_10
REMARK    5  A    between atoms: C_13  and  C_14
REMARK    6  A    between atoms: N_17  and  C_18
REMARK    7  A    between atoms: C_18  and  C_19
REMARK                            x       y       z     vdW  Elec       q    Type
REMARK                         _______ _______ _______ _____ _____    ______ ____
ROOT
ATOM      1  C   UNL     1       5.587   4.590  16.330  0.00  0.00    +0.000 A 
ATOM      2  C   UNL     1       4.552   3.625  16.324  0.00  0.00    +0.000 A 
ATOM      3  C   UNL     1       4.218   2.988  17.508  0.00  0.00    +0.000 A 
ATOM      4  C   UNL     1       4.891   3.255  18.666  0.00  0.00    +0.000 A 
ATOM      5  C   UNL     1       5.947   4.163  18.715  0.00  0.00    +0.000 A 
ATOM      6  C   UNL     1       6.302   4.850  17.527  0.00  0.00    +0.000 A 
ATOM      7  C   UNL     1       4.278   2.501  19.738  0.00  0.00    +0.000 C 
ATOM      8  O   UNL     1       4.718   2.437  20.872  0.00  0.00    +0.000 OA
ATOM      9  C   UNL     1       2.980   1.902  19.249  0.00  0.00    +0.000 C 
ATOM     10  C   UNL     1       3.182   1.931  17.709  0.00  0.00    +0.000 C 
ENDROOT
BRANCH   9  11
ATOM     11  C   UNL     1       1.640   2.664  19.620  0.00  0.00    +0.000 C 
ATOM     12  C   UNL     1       1.050   3.613  18.550  0.00  0.00    +0.000 C 
ATOM     13  C   UNL     1       1.804   4.942  18.472  0.00  0.00    +0.000 C 
ATOM     14  N   UNL     1       1.816   5.644  19.778  0.00  0.00    +0.000 NA
ATOM     15  C   UNL     1       2.330   4.791  20.879  0.00  0.00    +0.000 C 
ATOM     16  C   UNL     1       1.623   3.427  20.955  0.00  0.00    +0.000 C 
BRANCH  14  17
ATOM     17  C   UNL     1       2.670   6.854  19.687  0.00  0.00    +0.000 C 
BRANCH  17  18
ATOM     18  C   UNL     1       1.863   8.115  19.499  0.00  0.00    +0.000 A 
ATOM     19  C   UNL     1       1.175   8.674  20.583  0.00  0.00    +0.000 A 
ATOM     20  C   UNL     1       0.431   9.847  20.411  0.00  0.00    +0.000 A 
ATOM     21  C   UNL     1       0.371  10.465  19.160  0.00  0.00    +0.000 A 
ATOM     22  C   UNL     1       1.055   9.911  18.074  0.00  0.00    +0.000 A 
ATOM     23  C   UNL     1       1.798   8.740  18.240  0.00  0.00    +0.000 A 
ENDBRANCH  17  18
ENDBRANCH  14  17
ENDBRANCH   9  11
BRANCH   1  25
ATOM     24  C   UNL     1       6.786   4.888  14.245  0.00  0.00    +0.000 C 
ATOM     25  O   UNL     1       5.896   5.303  15.216  0.00  0.00    +0.000 OA
ENDBRANCH   1  25
BRANCH   6  26
ATOM     26  O   UNL     1       7.301   5.773  17.502  0.00  0.00    +0.000 OA
ATOM     27  C   UNL     1       7.154   7.128  17.736  0.00  0.00    +0.000 C 
ENDBRANCH   6  26
TORSDOF 5
ENDMDL
MODEL 3
REMARK VINA RESULT:      -8.0      1.339      1.963
REMARK  Name = 
REMARK  7 active torsions:
REMARK  status: ('A' for Active; 'I' for Inactive)
REMARK    1  A    between atoms: C_1  and  O_2
REMARK    2  A    between atoms: O_2  and  C_3
REMARK    3  A    between atoms: C_8  and  O_9
REMARK    4  A    between atoms: O_9  and  C_10
REMARK    5  A    between atoms: C_13  and  C_14
REMARK    6  A    between atoms: N_17  and  C_18
REMARK    7  A    between atoms: C_18  and  C_19
REMARK                            x       y       z     vdW  Elec       q    Type
REMARK                         _______ _______ _______ _____ _____    ______ ____
ROOT
ATOM      1  C   UNL     1       6.460   5.142  15.680  0.00  0.00    +0.000 A 
ATOM      2  C   UNL     1       5.520   4.090  15.790  0.00  0.00    +0.000 A 
ATOM      3  C   UNL     1       4.959   3.814  17.026  0.00  0.00    +0.000 A 
ATOM      4  C   UNL     1       5.321   4.519  18.138  0.00  0.00    +0.000 A 
ATOM      5  C   UNL     1       6.275   5.534  18.092  0.00  0.00    +0.000 A 
ATOM      6  C   UNL     1       6.854   5.859  16.840  0.00  0.00    +0.000 A 
ATOM      7  C   UNL     1       4.524   4.059  19.254  0.00  0.00    +0.000 C 
ATOM      8  O   UNL     1       4.687   4.412  20.408  0.00  0.00    +0.000 OA
ATOM      9  C   UNL     1       3.420   3.163  18.743  0.00  0.00    +0.000 C 
ATOM     10  C   UNL     1       3.977   2.738  17.356  0.00  0.00    +0.000 C 
ENDROOT
BRANCH   9  11
ATOM     11  C   UNL     1       1.983   3.808  18.560  0.00  0.00    +0.000 C 
ATOM     12  C   UNL     1       1.914   5.187  17.860  0.00  0.00    +0.000 C 
ATOM     13  C   UNL     1       2.329   6.330  18.788  0.00  0.00    +0.000 C 
ATOM     14  N   UNL     1       1.494   6.375  20.013  0.00  0.00    +0.000 NA
ATOM     15  C   UNL     1       1.466   5.075  20.731  0.00  0.00    +0.000 C 
ATOM     16  C   UNL     1       1.097   3.896  19.814  0.00  0.00    +0.000 C 
BRANCH  14  17
ATOM     17  C   UNL     1       2.019   7.408  20.939  0.00  0.00    +0.000 C 
BRANCH  17  18
ATOM     18  C   UNL     1       1.121   8.617  21.021  0.00  0.00    +0.000 A 
ATOM     19  C   UNL     1       0.517   8.959  22.239  0.00  0.00    +0.000 A 
ATOM     20  C   UNL     1      -0.312  10.084  22.317  0.00  0.00    +0.000 A 
ATOM     21  C   UNL     1      -0.543  10.869  21.185  0.00  0.00    +0.000 A 
ATOM     22  C   UNL     1       0.056  10.533  19.968  0.00  0.00    +0.000 A 
ATOM     23  C   UNL     1       0.884   9.411  19.884  0.00  0.00    +0.000 A 
ENDBRANCH  17  18
ENDBRANCH  14  17
ENDBRANCH   9  11
BRANCH   1  25
ATOM     24  C   UNL     1       6.997   4.700  13.359  0.00  0.00    +0.000 C 
ATOM     25  O   UNL     1       6.975   5.509  14.479  0.00  0.00    +0.000 OA
ENDBRANCH   1  25
BRANCH   6  26
ATOM     26  O   UNL     1       7.769   6.858  16.708  0.00  0.00    +0.000 OA
ATOM     27  C   UNL     1       7.855   7.984  17.506  0.00  0.00    +0.000 C 
ENDBRANCH   6  26
TORSDOF 5
ENDMDL
MODEL 4
REMARK VINA RESULT:      -7.9      1.192      1.472
REMARK  Name = 
REMARK  7 active torsions:
REMARK  status: ('A' for Active; 'I' for Inactive)
REMARK    1  A    between atoms: C_1  and  O_2
REMARK    2  A    between atoms: O_2  and  C_3
REMARK    3  A    between atoms: C_8  and  O_9
REMARK    4  A    between atoms: O_9  and  C_10
REMARK    5  A    between atoms: C_13  and  C_14
REMARK    6  A    between atoms: N_17  and  C_18
REMARK    7  A    between atoms: C_18  and  C_19
REMARK                            x       y       z     vdW  Elec       q    Type
REMARK                         _______ _______ _______ _____ _____    ______ ____
ROOT
ATOM      1  C   UNL     1       6.335   4.995  15.763  0.00  0.00    +0.000 A 
ATOM      2  C   UNL     1       5.414   3.922  15.817  0.00  0.00    +0.000 A 
ATOM      3  C   UNL     1       4.881   3.552  17.040  0.00  0.00    +0.000 A 
ATOM      4  C   UNL     1       5.252   4.185  18.192  0.00  0.00    +0.000 A 
ATOM      5  C   UNL     1       6.189   5.217  18.199  0.00  0.00    +0.000 A 
ATOM      6  C   UNL     1       6.740   5.637  16.963  0.00  0.00    +0.000 A 
ATOM      7  C   UNL     1       4.483   3.636  19.287  0.00  0.00    +0.000 C 
ATOM      8  O   UNL     1       4.662   3.913  20.460  0.00  0.00    +0.000 OA
ATOM      9  C   UNL     1       3.384   2.759  18.735  0.00  0.00    +0.000 C 
ATOM     10  C   UNL     1       3.921   2.440  17.313  0.00  0.00    +0.000 C 
ENDROOT
BRANCH   9  11
ATOM     11  C   UNL     1       1.934   3.391  18.622  0.00  0.00    +0.000 C 
ATOM     12  C   UNL     1       1.767   4.606  17.678  0.00  0.00    +0.000 C 
ATOM     13  C   UNL     1       2.302   5.899  18.295  0.00  0.00    +0.000 C 
ATOM     14  N   UNL     1       1.642   6.205  19.588  0.00  0.00    +0.000 NA
ATOM     15  C   UNL     1       1.716   5.074  20.547  0.00  0.00    +0.000 C 
ATOM     16  C   UNL     1       1.228   3.747  19.941  0.00  0.00    +0.000 C 
BRANCH  14  17
ATOM     17  C   UNL     1       2.286   7.387  20.210  0.00  0.00    +0.000 C 
BRANCH  17  18
ATOM     18  C   UNL     1       1.307   8.505  20.473  0.00  0.00    +0.000 A 
ATOM     19  C   UNL     1       1.053   9.462  19.481  0.00  0.00    +0.000 A 
ATOM     20  C   UNL     1       0.141  10.495  19.723  0.00  0.00    +0.000 A 
ATOM     21  C   UNL     1      -0.519  10.579  20.951  0.00  0.00    +0.000 A 
ATOM     22  C   UNL     1      -0.269   9.629  21.944  0.00  0.00    +0.000 A 
ATOM     23  C   UNL     1       0.641   8.595  21.709  0.00  0.00    +0.000 A 
ENDBRANCH  17  18
ENDBRANCH  14  17
ENDBRANCH   9  11
BRANCH   1  25
ATOM     24  C   UNL     1       6.975   4.676  13.448  0.00  0.00    +0.000 C 
ATOM     25  O   UNL     1       6.823   5.451  14.581  0.00  0.00    +0.000 OA
ENDBRANCH   1  25
BRANCH   6  26
ATOM     26  O   UNL     1       7.636   6.658  16.884  0.00  0.00    +0.000 OA
ATOM     27  C   UNL     1       7.489   7.907  17.457  0.00  0.00    +0.000 C 
ENDBRANCH   6  26
TORSDOF 5
ENDMDL
MODEL 5
REMARK VINA RESULT:      -7.3      2.299      5.650
REMARK  Name = 
REMARK  7 active torsions:
REMARK  status: ('A' for Active; 'I' for Inactive)
REMARK    1  A    between atoms: C_1  and  O_2
REMARK    2  A    between atoms: O_2  and  C_3
REMARK    3  A    between atoms: C_8  and  O_9
REMARK    4  A    between atoms: O_9  and  C_10
REMARK    5  A    between atoms: C_13  and  C_14
REMARK    6  A    between atoms: N_17  and  C_18
REMARK    7  A    between atoms: C_18  and  C_19
REMARK                            x       y       z     vdW  Elec       q    Type
REMARK                         _______ _______ _______ _____ _____    ______ ____
ROOT
ATOM      1  C   UNL     1       1.828   7.435  20.302  0.00  0.00    +0.000 A 
ATOM      2  C   UNL     1       1.384   6.185  20.795  0.00  0.00    +0.000 A 
ATOM      3  C   UNL     1       1.317   5.105  19.931  0.00  0.00    +0.000 A 
ATOM      4  C   UNL     1       1.641   5.237  18.610  0.00  0.00    +0.000 A 
ATOM      5  C   UNL     1       2.040   6.456  18.066  0.00  0.00    +0.000 A 
ATOM      6  C   UNL     1       2.142   7.579  18.926  0.00  0.00    +0.000 A 
ATOM      7  C   UNL     1       1.545   3.939  17.981  0.00  0.00    +0.000 C 
ATOM      8  O   UNL     1       1.662   3.744  16.784  0.00  0.00    +0.000 OA
ATOM      9  C   UNL     1       1.374   2.879  19.045  0.00  0.00    +0.000 C 
ATOM     10  C   UNL     1       0.855   3.719  20.244  0.00  0.00    +0.000 C 
ENDROOT
BRANCH   9  11
ATOM     11  C   UNL     1       2.667   2.074  19.485  0.00  0.00    +0.000 C 
ATOM     12  C   UNL     1       3.435   2.596  20.723  0.00  0.00    +0.000 C 
ATOM     13  C   UNL     1       4.289   3.824  20.401  0.00  0.00    +0.000 C 
ATOM     14  N   UNL     1       5.262   3.549  19.317  0.00  0.00    +0.000 NA
ATOM     15  C   UNL     1       4.616   3.000  18.097  0.00  0.00    +0.000 C 
ATOM     16  C   UNL     1       3.713   1.791  18.393  0.00  0.00    +0.000 C 
BRANCH  14  17
ATOM     17  C   UNL     1       5.969   4.800  18.949  0.00  0.00    +0.000 C 
BRANCH  17  18
ATOM     18  C   UNL     1       6.061   4.991  17.456  0.00  0.00    +0.000 A 
ATOM     19  C   UNL     1       5.107   5.772  16.789  0.00  0.00    +0.000 A 
ATOM     20  C   UNL     1       5.196   5.954  15.404  0.00  0.00    +0.000 A 
ATOM     21  C   UNL     1       6.232   5.360  14.680  0.00  0.00    +0.000 A 
ATOM     22  C   UNL     1       7.186   4.580  15.340  0.00  0.00    +0.000 A 
ATOM     23  C   UNL     1       7.103   4.394  16.722  0.00  0.00    +0.000 A 
ENDBRANCH  17  18
ENDBRANCH  14  17
ENDBRANCH   9  11
BRANCH   1  25
ATOM     24  C   UNL     1       1.020   8.991  21.975  0.00  0.00    +0.000 C 
ATOM     25  O   UNL     1       1.993   8.502  21.125  0.00  0.00    +0.000 OA
ENDBRANCH   1  25
BRANCH   6  26
ATOM     26  O   UNL     1       2.554   8.794  18.476  0.00  0.00    +0.000 OA
ATOM     27  C   UNL     1       1.741   9.777  17.942  0.00  0.00    +0.000 C 
ENDBRANCH   6  26
TORSDOF 5
ENDMDL
MODEL 6
REMARK VINA RESULT:      -7.3      3.315      7.938
REMARK  Name = 
REMARK  7 active torsions:
REMARK  status: ('A' for Active; 'I' for Inactive)
REMARK    1  A    between atoms: C_1  and  O_2
REMARK    2  A    between atoms: O_2  and  C_3
REMARK    3  A    between atoms: C_8  and  O_9
REMARK    4  A    between atoms: O_9  and  C_10
REMARK    5  A    between atoms: C_13  and  C_14
REMARK    6  A    between atoms: N_17  and  C_18
REMARK    7  A    between atoms: C_18  and  C_19
REMARK                            x       y       z     vdW  Elec       q    Type
REMARK                         _______ _______ _______ _____ _____    ______ ____
ROOT
ATOM      1  C   UNL     1       1.052   9.425  21.847  0.00  0.00    +0.000 A 
ATOM      2  C   UNL     1       1.378   8.092  21.502  0.00  0.00    +0.000 A 
ATOM      3  C   UNL     1       1.736   7.803  20.195  0.00  0.00    +0.000 A 
ATOM      4  C   UNL     1       1.748   8.775  19.236  0.00  0.00    +0.000 A 
ATOM      5  C   UNL     1       1.391  10.093  19.515  0.00  0.00    +0.000 A 
ATOM      6  C   UNL     1       1.040  10.430  20.846  0.00  0.00    +0.000 A 
ATOM      7  C   UNL     1       2.226   8.195  18.000  0.00  0.00    +0.000 C 
ATOM      8  O   UNL     1       2.246   8.777  16.930  0.00  0.00    +0.000 OA
ATOM      9  C   UNL     1       2.775   6.815  18.275  0.00  0.00    +0.000 C 
ATOM     10  C   UNL     1       2.089   6.468  19.625  0.00  0.00    +0.000 C 
ENDROOT
BRANCH   9  11
ATOM     11  C   UNL     1       4.346   6.672  18.430  0.00  0.00    +0.000 C 
ATOM     12  C   UNL     1       5.211   7.036  17.200  0.00  0.00    +0.000 C 
ATOM     13  C   UNL     1       5.198   5.937  16.135  0.00  0.00    +0.000 C 
ATOM     14  N   UNL     1       5.665   4.639  16.679  0.00  0.00    +0.000 NA
ATOM     15  C   UNL     1       4.916   4.228  17.894  0.00  0.00    +0.000 C 
ATOM     16  C   UNL     1       4.871   5.329  18.967  0.00  0.00    +0.000 C 
BRANCH  14  17
ATOM     17  C   UNL     1       5.506   3.580  15.652  0.00  0.00    +0.000 C 
BRANCH  17  18
ATOM     18  C   UNL     1       6.174   3.939  14.348  0.00  0.00    +0.000 A 
ATOM     19  C   UNL     1       7.267   4.816  14.338  0.00  0.00    +0.000 A 
ATOM     20  C   UNL     1       7.890   5.144  13.129  0.00  0.00    +0.000 A 
ATOM     21  C   UNL     1       7.427   4.602  11.927  0.00  0.00    +0.000 A 
ATOM     22  C   UNL     1       6.337   3.727  11.931  0.00  0.00    +0.000 A 
ATOM     23  C   UNL     1       5.711   3.396  13.135  0.00  0.00    +0.000 A 
ENDBRANCH  17  18
ENDBRANCH  14  17
ENDBRANCH   9  11
BRANCH   1  25
ATOM     24  C   UNL     1      -0.496   9.862  23.660  0.00  0.00    +0.000 C 
ATOM     25  O   UNL     1       0.777   9.776  23.129  0.00  0.00    +0.000 OA
ENDBRANCH   1  25
BRANCH   6  26
ATOM     26  O   UNL     1       0.711  11.701  21.203  0.00  0.00    +0.000 OA
ATOM     27  C   UNL     1      -0.260  12.482  20.604  0.00  0.00    +0.000 C 
ENDBRANCH   6  26
TORSDOF 5
ENDMDL
MODEL 7
REMARK VINA RESULT:      -7.2      3.522      7.367
REMARK  Name = 
REMARK  7 active torsions:
REMARK  status: ('A' for Active; 'I' for Inactive)
REMARK    1  A    between atoms: C_1  and  O_2
REMARK    2  A    between atoms: O_2  and  C_3
REMARK    3  A    between atoms: C_8  and  O_9
REMARK    4  A    between atoms: O_9  and  C_10
REMARK    5  A    between atoms: C_13  and  C_14
REMARK    6  A    between atoms: N_17  and  C_18
REMARK    7  A    between atoms: C_18  and  C_19
REMARK                            x       y       z     vdW  Elec       q    Type
REMARK                         _______ _______ _______ _____ _____    ______ ____
ROOT
ATOM      1  C   UNL     1      -0.827  10.943  18.331  0.00  0.00    +0.000 A 
ATOM      2  C   UNL     1       0.206  10.106  17.846  0.00  0.00    +0.000 A 
ATOM      3  C   UNL     1       0.926   9.336  18.744  0.00  0.00    +0.000 A 
ATOM      4  C   UNL     1       0.674   9.395  20.085  0.00  0.00    +0.000 A 
ATOM      5  C   UNL     1      -0.302  10.236  20.617  0.00  0.00    +0.000 A 
ATOM      6  C   UNL     1      -1.073  11.023  19.726  0.00  0.00    +0.000 A 
ATOM      7  C   UNL     1       1.524   8.436  20.756  0.00  0.00    +0.000 C 
ATOM      8  O   UNL     1       1.617   8.328  21.966  0.00  0.00    +0.000 OA
ATOM      9  C   UNL     1       2.186   7.550  19.727  0.00  0.00    +0.000 C 
ATOM     10  C   UNL     1       2.062   8.414  18.442  0.00  0.00    +0.000 C 
ENDROOT
BRANCH   9  11
ATOM     11  C   UNL     1       1.540   6.125  19.469  0.00  0.00    +0.000 C 
ATOM     12  C   UNL     1       1.797   5.032  20.533  0.00  0.00    +0.000 C 
ATOM     13  C   UNL     1       3.202   4.435  20.424  0.00  0.00    +0.000 C 
ATOM     14  N   UNL     1       3.453   3.860  19.080  0.00  0.00    +0.000 NA
ATOM     15  C   UNL     1       3.189   4.831  17.988  0.00  0.00    +0.000 C 
ATOM     16  C   UNL     1       1.800   5.484  18.094  0.00  0.00    +0.000 C 
BRANCH  14  17
ATOM     17  C   UNL     1       4.865   3.419  18.981  0.00  0.00    +0.000 C 
BRANCH  17  18
ATOM     18  C   UNL     1       5.745   4.447  18.313  0.00  0.00    +0.000 A 
ATOM     19  C   UNL     1       6.423   5.398  19.087  0.00  0.00    +0.000 A 
ATOM     20  C   UNL     1       7.243   6.348  18.467  0.00  0.00    +0.000 A 
ATOM     21  C   UNL     1       7.389   6.354  17.078  0.00  0.00    +0.000 A 
ATOM     22  C   UNL     1       6.714   5.409  16.301  0.00  0.00    +0.000 A 
ATOM     23  C   UNL     1       5.893   4.458  16.914  0.00  0.00    +0.000 A 
ENDBRANCH  17  18
ENDBRANCH  14  17
ENDBRANCH   9  11
BRANCH   1  25
ATOM     24  C   UNL     1      -2.602  11.103  16.688  0.00  0.00    +0.000 C 
ATOM     25  O   UNL     1      -1.617  11.654  17.486  0.00  0.00    +0.000 OA
ENDBRANCH   1  25
BRANCH   6  26
ATOM     26  O   UNL     1      -2.065  11.845  20.166  0.00  0.00    +0.000 OA
ATOM     27  C   UNL     1      -1.900  13.144  20.609  0.00  0.00    +0.000 C 
ENDBRANCH   6  26
TORSDOF 5
ENDMDL
MODEL 8
REMARK VINA RESULT:      -7.1      3.650      6.655
REMARK  Name = 
REMARK  7 active torsions:
REMARK  status: ('A' for Active; 'I' for Inactive)
REMARK    1  A    between atoms: C_1  and  O_2
REMARK    2  A    between atoms: O_2  and  C_3
REMARK    3  A    between atoms: C_8  and  O_9
REMARK    4  A    between atoms: O_9  and  C_10
REMARK    5  A    between atoms: C_13  and  C_14
REMARK    6  A    between atoms: N_17  and  C_18
REMARK    7  A    between atoms: C_18  and  C_19
REMARK                            x       y       z     vdW  Elec       q    Type
REMARK                         _______ _______ _______ _____ _____    ______ ____
ROOT
ATOM      1  C   UNL     1       1.939   4.255  19.857  0.00  0.00    +0.000 A 
ATOM      2  C   UNL     1       1.792   5.410  20.661  0.00  0.00    +0.000 A 
ATOM      3  C   UNL     1       1.924   6.659  20.077  0.00  0.00    +0.000 A 
ATOM      4  C   UNL     1       2.223   6.789  18.750  0.00  0.00    +0.000 A 
ATOM      5  C   UNL     1       2.422   5.683  17.926  0.00  0.00    +0.000 A 
ATOM      6  C   UNL     1       2.274   4.389  18.484  0.00  0.00    +0.000 A 
ATOM      7  C   UNL     1       2.225   8.196  18.416  0.00  0.00    +0.000 C 
ATOM      8  O   UNL     1       2.567   8.645  17.336  0.00  0.00    +0.000 OA
ATOM      9  C   UNL     1       1.654   8.985  19.570  0.00  0.00    +0.000 C 
ATOM     10  C   UNL     1       1.831   7.989  20.749  0.00  0.00    +0.000 C 
ENDROOT
BRANCH   9  11
ATOM     11  C   UNL     1       0.133   9.422  19.473  0.00  0.00    +0.000 C 
ATOM     12  C   UNL     1      -0.165  10.803  18.843  0.00  0.00    +0.000 C 
ATOM     13  C   UNL     1       0.123  11.956  19.807  0.00  0.00    +0.000 C 
ATOM     14  N   UNL     1      -0.654  11.828  21.064  0.00  0.00    +0.000 NA
ATOM     15  C   UNL     1      -0.464  10.509  21.720  0.00  0.00    +0.000 C 
ATOM     16  C   UNL     1      -0.700   9.328  20.763  0.00  0.00    +0.000 C 
BRANCH  14  17
ATOM     17  C   UNL     1      -0.242  12.887  22.017  0.00  0.00    +0.000 C 
BRANCH  17  18
ATOM     18  C   UNL     1      -1.364  13.304  22.935  0.00  0.00    +0.000 A 
ATOM     19  C   UNL     1      -2.568  12.585  22.942  0.00  0.00    +0.000 A 
ATOM     20  C   UNL     1      -3.606  12.969  23.798  0.00  0.00    +0.000 A 
ATOM     21  C   UNL     1      -3.451  14.067  24.646  0.00  0.00    +0.000 A 
ATOM     22  C   UNL     1      -2.254  14.789  24.642  0.00  0.00    +0.000 A 
ATOM     23  C   UNL     1      -1.213  14.411  23.790  0.00  0.00    +0.000 A 
ENDBRANCH  17  18
ENDBRANCH  14  17
ENDBRANCH   9  11
BRANCH   1  25
ATOM     24  C   UNL     1       1.729   2.706  21.709  0.00  0.00    +0.000 C 
ATOM     25  O   UNL     1       1.737   3.011  20.362  0.00  0.00    +0.000 OA
ENDBRANCH   1  25
BRANCH   6  26
ATOM     26  O   UNL     1       2.422   3.262  17.737  0.00  0.00    +0.000 OA
ATOM     27  C   UNL     1       3.611   2.597  17.505  0.00  0.00    +0.000 C 
ENDBRANCH   6  26
TORSDOF 5
ENDMDL
MODEL 9
REMARK VINA RESULT:      -7.1      3.483      6.553
REMARK  Name = 
REMARK  7 active torsions:
REMARK  status: ('A' for Active; 'I' for Inactive)
REMARK    1  A    between atoms: C_1  and  O_2
REMARK    2  A    between atoms: O_2  and  C_3
REMARK    3  A    between atoms: C_8  and  O_9
REMARK    4  A    between atoms: O_9  and  C_10
REMARK    5  A    between atoms: C_13  and  C_14
REMARK    6  A    between atoms: N_17  and  C_18
REMARK    7  A    between atoms: C_18  and  C_19
REMARK                            x       y       z     vdW  Elec       q    Type
REMARK                         _______ _______ _______ _____ _____    ______ ____
ROOT
ATOM      1  C   UNL     1       1.627   4.094  19.820  0.00  0.00    +0.000 A 
ATOM      2  C   UNL     1       1.633   5.274  20.601  0.00  0.00    +0.000 A 
ATOM      3  C   UNL     1       1.883   6.489  19.984  0.00  0.00    +0.000 A 
ATOM      4  C   UNL     1       2.153   6.558  18.646  0.00  0.00    +0.000 A 
ATOM      5  C   UNL     1       2.204   5.420  17.843  0.00  0.00    +0.000 A 
ATOM      6  C   UNL     1       1.931   4.162  18.436  0.00  0.00    +0.000 A 
ATOM      7  C   UNL     1       2.300   7.949  18.278  0.00  0.00    +0.000 C 
ATOM      8  O   UNL     1       2.655   8.335  17.179  0.00  0.00    +0.000 OA
ATOM      9  C   UNL     1       1.855   8.820  19.430  0.00  0.00    +0.000 C 
ATOM     10  C   UNL     1       1.958   7.835  20.627  0.00  0.00    +0.000 C 
ENDROOT
BRANCH   9  11
ATOM     11  C   UNL     1       0.389   9.420  19.366  0.00  0.00    +0.000 C 
ATOM     12  C   UNL     1       0.165  10.634  18.433  0.00  0.00    +0.000 C 
ATOM     13  C   UNL     1       0.691  11.937  19.038  0.00  0.00    +0.000 C 
ATOM     14  N   UNL     1       0.067  12.224  20.352  0.00  0.00    +0.000 NA
ATOM     15  C   UNL     1       0.196  11.091  21.304  0.00  0.00    +0.000 C 
ATOM     16  C   UNL     1      -0.283   9.756  20.708  0.00  0.00    +0.000 C 
BRANCH  14  17
ATOM     17  C   UNL     1       0.705  13.418  20.958  0.00  0.00    +0.000 C 
BRANCH  17  18
ATOM     18  C   UNL     1       0.615  14.633  20.068  0.00  0.00    +0.000 A 
ATOM     19  C   UNL     1      -0.629  15.228  19.817  0.00  0.00    +0.000 A 
ATOM     20  C   UNL     1      -0.711  16.358  18.996  0.00  0.00    +0.000 A 
ATOM     21  C   UNL     1       0.443  16.898  18.423  0.00  0.00    +0.000 A 
ATOM     22  C   UNL     1       1.686  16.309  18.669  0.00  0.00    +0.000 A 
ATOM     23  C   UNL     1       1.775  15.180  19.488  0.00  0.00    +0.000 A 
ENDBRANCH  17  18
ENDBRANCH  14  17
ENDBRANCH   9  11
BRANCH   1  25
ATOM     24  C   UNL     1       1.347   2.603  21.711  0.00  0.00    +0.000 C 
ATOM     25  O   UNL     1       1.304   2.890  20.360  0.00  0.00    +0.000 OA
ENDBRANCH   1  25
BRANCH   6  26
ATOM     26  O   UNL     1       1.931   3.010  17.712  0.00  0.00    +0.000 OA
ATOM     27  C   UNL     1       2.979   2.115  17.618  0.00  0.00    +0.000 C 
ENDBRANCH   6  26
TORSDOF 5
ENDMDL
