MODEL 1
REMARK VINA RESULT:      -7.3      0.000      0.000
REMARK  Name = 
REMARK  4 active torsions:
REMARK  status: ('A' for Active; 'I' for Inactive)
REMARK    1  A    between atoms: C_1  and  C_2
REMARK    2  A    between atoms: C_2  and  C_3
REMARK    3  A    between atoms: C_9  and  N_10
REMARK    4  A    between atoms: C_11  and  C_13
REMARK                            x       y       z     vdW  Elec       q    Type
REMARK                         _______ _______ _______ _____ _____    ______ ____
ROOT
ATOM      1  C   UNL     1       2.251   1.902  17.775  0.00  0.00    +0.000 C 
ATOM      2  C   UNL     1       3.116   3.119  18.132  0.00  0.00    +0.000 C 
ATOM      3  C   UNL     1       3.832   2.826  19.469  0.00  0.00    +0.000 C 
ATOM      4  C   UNL     1       2.191   4.340  18.277  0.00  0.00    +0.000 C 
ATOM      5  C   UNL     1       2.988   5.576  18.592  0.00  0.00    +0.000 C 
ATOM      6  O   UNL     1       2.567   6.427  19.374  0.00  0.00    +0.000 OA
ATOM      7  C   UNL     1       4.289   5.751  17.875  0.00  0.00    +0.000 A 
ATOM      8  C   UNL     1       5.004   6.982  17.985  0.00  0.00    +0.000 A 
ATOM      9  C   UNL     1       6.165   7.197  17.359  0.00  0.00    +0.000 A 
ATOM     10  C   UNL     1       6.730   6.106  16.505  0.00  0.00    +0.000 A 
ATOM     11  O   UNL     1       7.788   6.278  15.903  0.00  0.00    +0.000 OA
ATOM     12  O   UNL     1       6.022   4.925  16.438  0.00  0.00    +0.000 OA
ATOM     13  C   UNL     1       4.794   4.758  17.138  0.00  0.00    +0.000 A 
ATOM     14  C   UNL     1       4.152   3.399  17.010  0.00  0.00    +0.000 C 
ENDROOT
BRANCH   9  15
ATOM     15  N   UNL     1       6.893   8.376  17.444  0.00  0.00    +0.000 N 
ATOM     16  C   UNL     1       8.039   8.580  18.197  0.00  0.00    +0.000 C 
ATOM     17  O   UNL     1       8.589   7.744  18.906  0.00  0.00    +0.000 OA
ATOM     18  H   UNL     1       6.492   9.151  16.927  0.00  0.00    +0.000 HD
BRANCH  16  19
ATOM     19  C   UNL     1       8.632   9.938  18.169  0.00  0.00    +0.000 A 
ATOM     20  C   UNL     1       9.816  10.138  18.893  0.00  0.00    +0.000 A 
ATOM     21  C   UNL     1      10.434  11.385  18.902  0.00  0.00    +0.000 A 
ATOM     22  C   UNL     1       9.873  12.436  18.181  0.00  0.00    +0.000 A 
ATOM     23  C   UNL     1       8.703  12.239  17.444  0.00  0.00    +0.000 A 
ATOM     24  C   UNL     1       8.082  10.989  17.428  0.00  0.00    +0.000 A 
ENDBRANCH  16  19
ENDBRANCH   9  15
TORSDOF 2
ENDMDL
MODEL 2
REMARK VINA RESULT:      -7.3      5.096      6.605
REMARK  Name = 
REMARK  4 active torsions:
REMARK  status: ('A' for Active; 'I' for Inactive)
REMARK    1  A    between atoms: C_1  and  C_2
REMARK    2  A    between atoms: C_2  and  C_3
REMARK    3  A    between atoms: C_9  and  N_10
REMARK    4  A    between atoms: C_11  and  C_13
REMARK                            x       y       z     vdW  Elec       q    Type
REMARK                         _______ _______ _______ _____ _____    ______ ____
ROOT
ATOM      1  C   UNL     1       3.734   1.441  18.115  0.00  0.00    +0.000 C 
ATOM      2  C   UNL     1       3.523   2.761  18.870  0.00  0.00    +0.000 C 
ATOM      3  C   UNL     1       4.817   3.080  19.651  0.00  0.00    +0.000 C 
ATOM      4  C   UNL     1       2.344   2.576  19.841  0.00  0.00    +0.000 C 
ATOM      5  C   UNL     1       2.066   3.851  20.588  0.00  0.00    +0.000 C 
ATOM      6  O   UNL     1       1.735   3.840  21.772  0.00  0.00    +0.000 OA
ATOM      7  C   UNL     1       2.156   5.129  19.815  0.00  0.00    +0.000 A 
ATOM      8  C   UNL     1       1.724   6.353  20.409  0.00  0.00    +0.000 A 
ATOM      9  C   UNL     1       1.773   7.522  19.762  0.00  0.00    +0.000 A 
ATOM     10  C   UNL     1       2.292   7.541  18.358  0.00  0.00    +0.000 A 
ATOM     11  O   UNL     1       2.335   8.597  17.730  0.00  0.00    +0.000 OA
ATOM     12  O   UNL     1       2.717   6.343  17.825  0.00  0.00    +0.000 OA
ATOM     13  C   UNL     1       2.646   5.134  18.572  0.00  0.00    +0.000 A 
ATOM     14  C   UNL     1       3.188   3.909  17.880  0.00  0.00    +0.000 C 
ENDROOT
BRANCH   9  15
ATOM     15  N   UNL     1       1.369   8.735  20.305  0.00  0.00    +0.000 N 
ATOM     16  C   UNL     1       0.301   8.933  21.165  0.00  0.00    +0.000 C 
ATOM     17  O   UNL     1      -0.454   8.061  21.583  0.00  0.00    +0.000 OA
ATOM     18  H   UNL     1       1.905   9.534  19.982  0.00  0.00    +0.000 HD
BRANCH  16  19
ATOM     19  C   UNL     1       0.027  10.326  21.591  0.00  0.00    +0.000 A 
ATOM     20  C   UNL     1       0.689  11.351  20.901  0.00  0.00    +0.000 A 
ATOM     21  C   UNL     1       0.470  12.683  21.240  0.00  0.00    +0.000 A 
ATOM     22  C   UNL     1      -0.417  12.994  22.268  0.00  0.00    +0.000 A 
ATOM     23  C   UNL     1      -1.092  11.978  22.947  0.00  0.00    +0.000 A 
ATOM     24  C   UNL     1      -0.879  10.641  22.608  0.00  0.00    +0.000 A 
ENDBRANCH  16  19
ENDBRANCH   9  15
TORSDOF 2
ENDMDL
MODEL 3
REMARK VINA RESULT:      -7.2      1.854      2.582
REMARK  Name = 
REMARK  4 active torsions:
REMARK  status: ('A' for Active; 'I' for Inactive)
REMARK    1  A    between atoms: C_1  and  C_2
REMARK    2  A    between atoms: C_2  and  C_3
REMARK    3  A    between atoms: C_9  and  N_10
REMARK    4  A    between atoms: C_11  and  C_13
REMARK                            x       y       z     vdW  Elec       q    Type
REMARK                         _______ _______ _______ _____ _____    ______ ____
ROOT
ATOM      1  C   UNL     1       3.184   2.525  16.810  0.00  0.00    +0.000 C 
ATOM      2  C   UNL     1       3.902   3.844  17.130  0.00  0.00    +0.000 C 
ATOM      3  C   UNL     1       2.866   4.824  17.727  0.00  0.00    +0.000 C 
ATOM      4  C   UNL     1       4.477   4.407  15.819  0.00  0.00    +0.000 C 
ATOM      5  C   UNL     1       5.226   5.687  16.075  0.00  0.00    +0.000 C 
ATOM      6  O   UNL     1       5.179   6.625  15.281  0.00  0.00    +0.000 OA
ATOM      7  C   UNL     1       6.071   5.749  17.307  0.00  0.00    +0.000 A 
ATOM      8  C   UNL     1       6.950   6.855  17.514  0.00  0.00    +0.000 A 
ATOM      9  C   UNL     1       7.734   6.958  18.591  0.00  0.00    +0.000 A 
ATOM     10  C   UNL     1       7.693   5.865  19.613  0.00  0.00    +0.000 A 
ATOM     11  O   UNL     1       8.414   5.922  20.607  0.00  0.00    +0.000 OA
ATOM     12  O   UNL     1       6.819   4.823  19.389  0.00  0.00    +0.000 OA
ATOM     13  C   UNL     1       6.004   4.779  18.223  0.00  0.00    +0.000 A 
ATOM     14  C   UNL     1       5.063   3.604  18.132  0.00  0.00    +0.000 C 
ENDROOT
BRANCH   9  15
ATOM     15  N   UNL     1       8.598   8.018  18.832  0.00  0.00    +0.000 N 
ATOM     16  C   UNL     1       8.448   9.318  18.375  0.00  0.00    +0.000 C 
ATOM     17  O   UNL     1       7.523   9.733  17.685  0.00  0.00    +0.000 OA
ATOM     18  H   UNL     1       9.428   7.768  19.360  0.00  0.00    +0.000 HD
BRANCH  16  19
ATOM     19  C   UNL     1       9.518  10.283  18.723  0.00  0.00    +0.000 A 
ATOM     20  C   UNL     1       9.654  10.634  20.073  0.00  0.00    +0.000 A 
ATOM     21  C   UNL     1      10.644  11.526  20.473  0.00  0.00    +0.000 A 
ATOM     22  C   UNL     1      11.507  12.067  19.523  0.00  0.00    +0.000 A 
ATOM     23  C   UNL     1      11.388  11.708  18.179  0.00  0.00    +0.000 A 
ATOM     24  C   UNL     1      10.399  10.810  17.774  0.00  0.00    +0.000 A 
ENDBRANCH  16  19
ENDBRANCH   9  15
TORSDOF 2
ENDMDL
MODEL 4
REMARK VINA RESULT:      -7.2      1.865      2.705
REMARK  Name = 
REMARK  4 active torsions:
REMARK  status: ('A' for Active; 'I' for Inactive)
REMARK    1  A    between atoms: C_1  and  C_2
REMARK    2  A    between atoms: C_2  and  C_3
REMARK    3  A    between atoms: C_9  and  N_10
REMARK    4  A    between atoms: C_11  and  C_13
REMARK                            x       y       z     vdW  Elec       q    Type
REMARK                         _______ _______ _______ _____ _____    ______ ____
ROOT
ATOM      1  C   UNL     1       3.334   2.459  16.723  0.00  0.00    +0.000 C 
ATOM      2  C   UNL     1       4.029   3.784  17.066  0.00  0.00    +0.000 C 
ATOM      3  C   UNL     1       2.967   4.748  17.641  0.00  0.00    +0.000 C 
ATOM      4  C   UNL     1       4.630   4.360  15.773  0.00  0.00    +0.000 C 
ATOM      5  C   UNL     1       5.357   5.646  16.053  0.00  0.00    +0.000 C 
ATOM      6  O   UNL     1       5.320   6.588  15.263  0.00  0.00    +0.000 OA
ATOM      7  C   UNL     1       6.171   5.712  17.306  0.00  0.00    +0.000 A 
ATOM      8  C   UNL     1       7.032   6.827  17.540  0.00  0.00    +0.000 A 
ATOM      9  C   UNL     1       7.788   6.933  18.637  0.00  0.00    +0.000 A 
ATOM     10  C   UNL     1       7.734   5.835  19.652  0.00  0.00    +0.000 A 
ATOM     11  O   UNL     1       8.429   5.895  20.664  0.00  0.00    +0.000 OA
ATOM     12  O   UNL     1       6.878   4.784  19.402  0.00  0.00    +0.000 OA
ATOM     13  C   UNL     1       6.092   4.737  18.215  0.00  0.00    +0.000 A 
ATOM     14  C   UNL     1       5.167   3.552  18.095  0.00  0.00    +0.000 C 
ENDROOT
BRANCH   9  15
ATOM     15  N   UNL     1       8.633   8.003  18.904  0.00  0.00    +0.000 N 
ATOM     16  C   UNL     1       8.489   9.299  18.437  0.00  0.00    +0.000 C 
ATOM     17  O   UNL     1       7.585   9.703  17.712  0.00  0.00    +0.000 OA
ATOM     18  H   UNL     1       9.446   7.761  19.463  0.00  0.00    +0.000 HD
BRANCH  16  19
ATOM     19  C   UNL     1       9.537  10.275  18.818  0.00  0.00    +0.000 A 
ATOM     20  C   UNL     1      10.290  10.846  17.784  0.00  0.00    +0.000 A 
ATOM     21  C   UNL     1      11.284  11.779  18.068  0.00  0.00    +0.000 A 
ATOM     22  C   UNL     1      11.523  12.148  19.389  0.00  0.00    +0.000 A 
ATOM     23  C   UNL     1      10.764  11.595  20.423  0.00  0.00    +0.000 A 
ATOM     24  C   UNL     1       9.763  10.663  20.142  0.00  0.00    +0.000 A 
ENDBRANCH  16  19
ENDBRANCH   9  15
TORSDOF 2
ENDMDL
MODEL 5
REMARK VINA RESULT:      -7.1      5.332      7.102
REMARK  Name = 
REMARK  4 active torsions:
REMARK  status: ('A' for Active; 'I' for Inactive)
REMARK    1  A    between atoms: C_1  and  C_2
REMARK    2  A    between atoms: C_2  and  C_3
REMARK    3  A    between atoms: C_9  and  N_10
REMARK    4  A    between atoms: C_11  and  C_13
REMARK                            x       y       z     vdW  Elec       q    Type
REMARK                         _______ _______ _______ _____ _____    ______ ____
ROOT
ATOM      1  C   UNL     1       4.913   3.748  17.366  0.00  0.00    +0.000 C 
ATOM      2  C   UNL     1       4.336   4.856  18.258  0.00  0.00    +0.000 C 
ATOM      3  C   UNL     1       5.451   5.334  19.214  0.00  0.00    +0.000 C 
ATOM      4  C   UNL     1       3.162   4.265  19.058  0.00  0.00    +0.000 C 
ATOM      5  C   UNL     1       2.531   5.317  19.929  0.00  0.00    +0.000 C 
ATOM      6  O   UNL     1       2.120   5.052  21.057  0.00  0.00    +0.000 OA
ATOM      7  C   UNL     1       2.375   6.684  19.343  0.00  0.00    +0.000 A 
ATOM      8  C   UNL     1       1.619   7.676  20.039  0.00  0.00    +0.000 A 
ATOM      9  C   UNL     1       1.440   8.910  19.559  0.00  0.00    +0.000 A 
ATOM     10  C   UNL     1       2.048   9.259  18.237  0.00  0.00    +0.000 A 
ATOM     11  O   UNL     1       1.888  10.381  17.761  0.00  0.00    +0.000 OA
ATOM     12  O   UNL     1       2.786   8.283  17.603  0.00  0.00    +0.000 OA
ATOM     13  C   UNL     1       2.946   6.989  18.175  0.00  0.00    +0.000 A 
ATOM     14  C   UNL     1       3.816   6.036  17.394  0.00  0.00    +0.000 C 
ENDROOT
BRANCH   9  15
ATOM     15  N   UNL     1       0.718   9.904  20.207  0.00  0.00    +0.000 N 
ATOM     16  C   UNL     1       0.821  10.254  21.544  0.00  0.00    +0.000 C 
ATOM     17  O   UNL     1       1.572   9.737  22.364  0.00  0.00    +0.000 OA
ATOM     18  H   UNL     1       0.028  10.365  19.622  0.00  0.00    +0.000 HD
BRANCH  16  19
ATOM     19  C   UNL     1      -0.080  11.325  22.033  0.00  0.00    +0.000 A 
ATOM     20  C   UNL     1      -1.134  10.943  22.875  0.00  0.00    +0.000 A 
ATOM     21  C   UNL     1      -2.012  11.896  23.381  0.00  0.00    +0.000 A 
ATOM     22  C   UNL     1      -1.836  13.238  23.050  0.00  0.00    +0.000 A 
ATOM     23  C   UNL     1      -0.779  13.626  22.225  0.00  0.00    +0.000 A 
ATOM     24  C   UNL     1       0.108  12.674  21.719  0.00  0.00    +0.000 A 
ENDBRANCH  16  19
ENDBRANCH   9  15
TORSDOF 2
ENDMDL
MODEL 6
REMARK VINA RESULT:      -7.1      4.992      7.080
REMARK  Name = 
REMARK  4 active torsions:
REMARK  status: ('A' for Active; 'I' for Inactive)
REMARK    1  A    between atoms: C_1  and  C_2
REMARK    2  A    between atoms: C_2  and  C_3
REMARK    3  A    between atoms: C_9  and  N_10
REMARK    4  A    between atoms: C_11  and  C_13
REMARK                            x       y       z     vdW  Elec       q    Type
REMARK                         _______ _______ _______ _____ _____    ______ ____
ROOT
ATOM      1  C   UNL     1       5.747   3.933  17.003  0.00  0.00    +0.000 C 
ATOM      2  C   UNL     1       5.037   4.951  17.906  0.00  0.00    +0.000 C 
ATOM      3  C   UNL     1       6.076   5.518  18.900  0.00  0.00    +0.000 C 
ATOM      4  C   UNL     1       3.916   4.220  18.665  0.00  0.00    +0.000 C 
ATOM      5  C   UNL     1       3.158   5.177  19.544  0.00  0.00    +0.000 C 
ATOM      6  O   UNL     1       2.754   4.841  20.655  0.00  0.00    +0.000 OA
ATOM      7  C   UNL     1       2.872   6.535  18.986  0.00  0.00    +0.000 A 
ATOM      8  C   UNL     1       2.001   7.424  19.687  0.00  0.00    +0.000 A 
ATOM      9  C   UNL     1       1.703   8.644  19.232  0.00  0.00    +0.000 A 
ATOM     10  C   UNL     1       2.299   9.089  17.933  0.00  0.00    +0.000 A 
ATOM     11  O   UNL     1       2.032  10.200  17.479  0.00  0.00    +0.000 OA
ATOM     12  O   UNL     1       3.150   8.212  17.295  0.00  0.00    +0.000 OA
ATOM     13  C   UNL     1       3.433   6.928  17.839  0.00  0.00    +0.000 A 
ATOM     14  C   UNL     1       4.415   6.092  17.058  0.00  0.00    +0.000 C 
ENDROOT
BRANCH   9  15
ATOM     15  N   UNL     1       0.866   9.540  19.884  0.00  0.00    +0.000 N 
ATOM     16  C   UNL     1       0.725   9.681  21.256  0.00  0.00    +0.000 C 
ATOM     17  O   UNL     1       1.323   9.033  22.108  0.00  0.00    +0.000 OA
ATOM     18  H   UNL     1       0.287  10.097  19.264  0.00  0.00    +0.000 HD
BRANCH  16  19
ATOM     19  C   UNL     1      -0.260  10.679  21.734  0.00  0.00    +0.000 A 
ATOM     20  C   UNL     1      -0.691  11.648  20.817  0.00  0.00    +0.000 A 
ATOM     21  C   UNL     1      -1.624  12.609  21.194  0.00  0.00    +0.000 A 
ATOM     22  C   UNL     1      -2.134  12.602  22.490  0.00  0.00    +0.000 A 
ATOM     23  C   UNL     1      -1.721  11.629  23.403  0.00  0.00    +0.000 A 
ATOM     24  C   UNL     1      -0.789  10.660  23.028  0.00  0.00    +0.000 A 
ENDBRANCH  16  19
ENDBRANCH   9  15
TORSDOF 2
ENDMDL
MODEL 7
REMARK VINA RESULT:      -7.0      4.370      7.119
REMARK  Name = 
REMARK  4 active torsions:
REMARK  status: ('A' for Active; 'I' for Inactive)
REMARK    1  A    between atoms: C_1  and  C_2
REMARK    2  A    between atoms: C_2  and  C_3
REMARK    3  A    between atoms: C_9  and  N_10
REMARK    4  A    between atoms: C_11  and  C_13
REMARK                            x       y       z     vdW  Elec       q    Type
REMARK                         _______ _______ _______ _____ _____    ______ ____
ROOT
ATOM      1  C   UNL     1       7.802   4.319  17.703  0.00  0.00    +0.000 C 
ATOM      2  C   UNL     1       6.404   4.897  17.445  0.00  0.00    +0.000 C 
ATOM      3  C   UNL     1       5.563   3.820  16.724  0.00  0.00    +0.000 C 
ATOM      4  C   UNL     1       6.556   6.142  16.553  0.00  0.00    +0.000 C 
ATOM      5  C   UNL     1       5.216   6.775  16.294  0.00  0.00    +0.000 C 
ATOM      6  O   UNL     1       4.941   7.264  15.200  0.00  0.00    +0.000 OA
ATOM      7  C   UNL     1       4.255   6.833  17.438  0.00  0.00    +0.000 A 
ATOM      8  C   UNL     1       3.046   7.583  17.316  0.00  0.00    +0.000 A 
ATOM      9  C   UNL     1       2.156   7.677  18.309  0.00  0.00    +0.000 A 
ATOM     10  C   UNL     1       2.446   6.976  19.599  0.00  0.00    +0.000 A 
ATOM     11  O   UNL     1       1.655   7.056  20.536  0.00  0.00    +0.000 OA
ATOM     12  O   UNL     1       3.613   6.247  19.673  0.00  0.00    +0.000 OA
ATOM     13  C   UNL     1       4.516   6.180  18.574  0.00  0.00    +0.000 A 
ATOM     14  C   UNL     1       5.729   5.310  18.781  0.00  0.00    +0.000 C 
ENDROOT
BRANCH   9  15
ATOM     15  N   UNL     1       0.967   8.390  18.229  0.00  0.00    +0.000 N 
ATOM     16  C   UNL     1       0.831   9.768  18.296  0.00  0.00    +0.000 C 
ATOM     17  O   UNL     1       1.746  10.573  18.435  0.00  0.00    +0.000 OA
ATOM     18  H   UNL     1       0.137   7.810  18.159  0.00  0.00    +0.000 HD
BRANCH  16  19
ATOM     19  C   UNL     1      -0.545  10.314  18.227  0.00  0.00    +0.000 A 
ATOM     20  C   UNL     1      -0.873  11.343  19.121  0.00  0.00    +0.000 A 
ATOM     21  C   UNL     1      -2.144  11.912  19.105  0.00  0.00    +0.000 A 
ATOM     22  C   UNL     1      -3.090  11.455  18.191  0.00  0.00    +0.000 A 
ATOM     23  C   UNL     1      -2.764  10.442  17.287  0.00  0.00    +0.000 A 
ATOM     24  C   UNL     1      -1.489   9.872  17.296  0.00  0.00    +0.000 A 
ENDBRANCH  16  19
ENDBRANCH   9  15
TORSDOF 2
ENDMDL
MODEL 8
REMARK VINA RESULT:      -7.0      4.410      7.168
REMARK  Name = 
REMARK  4 active torsions:
REMARK  status: ('A' for Active; 'I' for Inactive)
REMARK    1  A    between atoms: C_1  and  C_2
REMARK    2  A    between atoms: C_2  and  C_3
REMARK    3  A    between atoms: C_9  and  N_10
REMARK    4  A    between atoms: C_11  and  C_13
REMARK                            x       y       z     vdW  Elec       q    Type
REMARK                         _______ _______ _______ _____ _____    ______ ____
ROOT
ATOM      1  C   UNL     1       7.681   4.323  17.528  0.00  0.00    +0.000 C 
ATOM      2  C   UNL     1       6.286   4.928  17.311  0.00  0.00    +0.000 C 
ATOM      3  C   UNL     1       5.410   3.871  16.602  0.00  0.00    +0.000 C 
ATOM      4  C   UNL     1       6.438   6.178  16.427  0.00  0.00    +0.000 C 
ATOM      5  C   UNL     1       5.103   6.836  16.206  0.00  0.00    +0.000 C 
ATOM      6  O   UNL     1       4.810   7.340  15.124  0.00  0.00    +0.000 OA
ATOM      7  C   UNL     1       4.172   6.900  17.375  0.00  0.00    +0.000 A 
ATOM      8  C   UNL     1       2.974   7.672  17.290  0.00  0.00    +0.000 A 
ATOM      9  C   UNL     1       2.110   7.772  18.305  0.00  0.00    +0.000 A 
ATOM     10  C   UNL     1       2.420   7.054  19.582  0.00  0.00    +0.000 A 
ATOM     11  O   UNL     1       1.654   7.139  20.539  0.00  0.00    +0.000 OA
ATOM     12  O   UNL     1       3.576   6.304  19.620  0.00  0.00    +0.000 OA
ATOM     13  C   UNL     1       4.450   6.233  18.498  0.00  0.00    +0.000 A 
ATOM     14  C   UNL     1       5.653   5.339  18.667  0.00  0.00    +0.000 C 
ENDROOT
BRANCH   9  15
ATOM     15  N   UNL     1       0.932   8.506  18.261  0.00  0.00    +0.000 N 
ATOM     16  C   UNL     1       0.821   9.884  18.350  0.00  0.00    +0.000 C 
ATOM     17  O   UNL     1       1.753  10.672  18.481  0.00  0.00    +0.000 OA
ATOM     18  H   UNL     1       0.091   7.941  18.202  0.00  0.00    +0.000 HD
BRANCH  16  19
ATOM     19  C   UNL     1      -0.547  10.455  18.320  0.00  0.00    +0.000 A 
ATOM     20  C   UNL     1      -1.460   9.888  17.420  0.00  0.00    +0.000 A 
ATOM     21  C   UNL     1      -2.765  10.366  17.346  0.00  0.00    +0.000 A 
ATOM     22  C   UNL     1      -3.163  11.410  18.177  0.00  0.00    +0.000 A 
ATOM     23  C   UNL     1      -2.263  11.968  19.088  0.00  0.00    +0.000 A 
ATOM     24  C   UNL     1      -0.954  11.489  19.169  0.00  0.00    +0.000 A 
ENDBRANCH  16  19
ENDBRANCH   9  15
TORSDOF 2
ENDMDL
MODEL 9
REMARK VINA RESULT:      -7.0      6.225      9.000
REMARK  Name = 
REMARK  4 active torsions:
REMARK  status: ('A' for Active; 'I' for Inactive)
REMARK    1  A    between atoms: C_1  and  C_2
REMARK    2  A    between atoms: C_2  and  C_3
REMARK    3  A    between atoms: C_9  and  N_10
REMARK    4  A    between atoms: C_11  and  C_13
REMARK                            x       y       z     vdW  Elec       q    Type
REMARK                         _______ _______ _______ _____ _____    ______ ____
ROOT
ATOM      1  C   UNL     1      -2.803  14.632  21.826  0.00  0.00    +0.000 C 
ATOM      2  C   UNL     1      -1.838  13.685  21.100  0.00  0.00    +0.000 C 
ATOM      3  C   UNL     1      -0.694  14.531  20.499  0.00  0.00    +0.000 C 
ATOM      4  C   UNL     1      -2.618  12.970  19.982  0.00  0.00    +0.000 C 
ATOM      5  C   UNL     1      -1.730  11.998  19.254  0.00  0.00    +0.000 C 
ATOM      6  O   UNL     1      -1.818  11.838  18.039  0.00  0.00    +0.000 OA
ATOM      7  C   UNL     1      -0.774  11.196  20.079  0.00  0.00    +0.000 A 
ATOM      8  C   UNL     1      -0.038  10.128  19.482  0.00  0.00    +0.000 A 
ATOM      9  C   UNL     1       0.822   9.374  20.172  0.00  0.00    +0.000 A 
ATOM     10  C   UNL     1       1.012   9.657  21.630  0.00  0.00    +0.000 A 
ATOM     11  O   UNL     1       1.784   8.971  22.297  0.00  0.00    +0.000 OA
ATOM     12  O   UNL     1       0.299  10.707  22.168  0.00  0.00    +0.000 OA
ATOM     13  C   UNL     1      -0.596  11.478  21.373  0.00  0.00    +0.000 A 
ATOM     14  C   UNL     1      -1.273  12.624  22.082  0.00  0.00    +0.000 C 
ENDROOT
BRANCH   9  15
ATOM     15  N   UNL     1       1.560   8.331  19.628  0.00  0.00    +0.000 N 
ATOM     16  C   UNL     1       2.200   8.333  18.399  0.00  0.00    +0.000 C 
ATOM     17  O   UNL     1       2.213   9.263  17.599  0.00  0.00    +0.000 OA
ATOM     18  H   UNL     1       1.572   7.489  20.195  0.00  0.00    +0.000 HD
BRANCH  16  19
ATOM     19  C   UNL     1       2.901   7.089  18.001  0.00  0.00    +0.000 A 
ATOM     20  C   UNL     1       2.233   5.876  18.222  0.00  0.00    +0.000 A 
ATOM     21  C   UNL     1       2.827   4.670  17.862  0.00  0.00    +0.000 A 
ATOM     22  C   UNL     1       4.089   4.674  17.273  0.00  0.00    +0.000 A 
ATOM     23  C   UNL     1       4.752   5.879  17.035  0.00  0.00    +0.000 A 
ATOM     24  C   UNL     1       4.158   7.092  17.390  0.00  0.00    +0.000 A 
ENDBRANCH  16  19
ENDBRANCH   9  15
TORSDOF 2
ENDMDL
