MODEL 1
REMARK VINA RESULT:      -7.2      0.000      0.000
REMARK  Name = 
REMARK  10 active torsions:
REMARK  status: ('A' for Active; 'I' for Inactive)
REMARK    1  A    between atoms: C_1  and  O_2
REMARK    2  A    between atoms: O_2  and  C_3
REMARK    3  A    between atoms: C_3  and  C_5
REMARK    4  A    between atoms: C_5  and  C_6
REMARK    5  A    between atoms: C_5  and  N_10
REMARK    6  A    between atoms: C_6  and  C_7
REMARK    7  A    between atoms: C_7  and  S_8
REMARK    8  A    between atoms: S_8  and  C_9
REMARK    9  A    between atoms: C_20  and  O_21
REMARK   10  A    between atoms: C_22  and  O_23
REMARK                            x       y       z     vdW  Elec       q    Type
REMARK                         _______ _______ _______ _____ _____    ______ ____
ROOT
ATOM      1  N   UNL     1       5.379   6.417  17.749  0.00  0.00    +0.000 NA
ATOM      2  C   UNL     1       4.782   5.428  18.325  0.00  0.00    +0.000 C 
ATOM      3  C   UNL     1       3.291   5.636  18.619  0.00  0.00    +0.000 C 
ATOM      4  O   UNL     1       2.693   6.605  18.168  0.00  0.00    +0.000 OA
ATOM      5  C   UNL     1       2.580   4.669  19.484  0.00  0.00    +0.000 A 
ATOM      6  C   UNL     1       1.228   4.904  19.790  0.00  0.00    +0.000 A 
ATOM      7  C   UNL     1       0.525   4.011  20.595  0.00  0.00    +0.000 A 
ATOM      8  C   UNL     1       1.170   2.887  21.096  0.00  0.00    +0.000 A 
ATOM      9  C   UNL     1       2.513   2.649  20.785  0.00  0.00    +0.000 A 
ATOM     10  C   UNL     1       3.245   3.538  19.974  0.00  0.00    +0.000 A 
ATOM     11  C   UNL     1       4.639   3.288  19.576  0.00  0.00    +0.000 C 
ATOM     12  C   UNL     1       5.343   4.114  18.786  0.00  0.00    +0.000 C 
ENDROOT
BRANCH  11  13
ATOM     13  O   UNL     1       5.280   2.136  20.019  0.00  0.00    +0.000 OA
ATOM     14  H   UNL     1       5.148   1.423  19.374  0.00  0.00    +0.000 HD
ENDBRANCH  11  13
BRANCH  12  15
ATOM     15  O   UNL     1       6.632   3.741  18.426  0.00  0.00    +0.000 OA
ATOM     16  H   UNL     1       6.532   2.910  17.919  0.00  0.00    +0.000 HD
ENDBRANCH  12  15
BRANCH   1  17
ATOM     17  C   UNL     1       6.812   6.379  17.424  0.00  0.00    +0.000 C 
BRANCH  17  18
ATOM     18  C   UNL     1       7.045   5.529  16.166  0.00  0.00    +0.000 C 
ATOM     19  O   UNL     1       7.885   4.644  16.035  0.00  0.00    +0.000 OA
BRANCH  18  21
ATOM     20  C   UNL     1       5.558   4.864  14.472  0.00  0.00    +0.000 C 
ATOM     21  O   UNL     1       6.194   5.931  15.172  0.00  0.00    +0.000 OA
ENDBRANCH  18  21
ENDBRANCH  17  18
BRANCH  17  22
ATOM     22  C   UNL     1       7.293   7.822  17.196  0.00  0.00    +0.000 C 
BRANCH  22  23
ATOM     23  C   UNL     1       8.320   8.304  18.222  0.00  0.00    +0.000 C 
BRANCH  23  24
ATOM     24  S   UNL     1       8.656  10.097  18.091  0.00  0.00    +0.000 S 
ATOM     25  C   UNL     1       9.316  10.374  19.748  0.00  0.00    +0.000 C 
ENDBRANCH  23  24
ENDBRANCH  22  23
ENDBRANCH  17  22
ENDBRANCH   1  17
TORSDOF 8
ENDMDL
MODEL 2
REMARK VINA RESULT:      -6.9      3.093      4.712
REMARK  Name = 
REMARK  10 active torsions:
REMARK  status: ('A' for Active; 'I' for Inactive)
REMARK    1  A    between atoms: C_1  and  O_2
REMARK    2  A    between atoms: O_2  and  C_3
REMARK    3  A    between atoms: C_3  and  C_5
REMARK    4  A    between atoms: C_5  and  C_6
REMARK    5  A    between atoms: C_5  and  N_10
REMARK    6  A    between atoms: C_6  and  C_7
REMARK    7  A    between atoms: C_7  and  S_8
REMARK    8  A    between atoms: S_8  and  C_9
REMARK    9  A    between atoms: C_20  and  O_21
REMARK   10  A    between atoms: C_22  and  O_23
REMARK                            x       y       z     vdW  Elec       q    Type
REMARK                         _______ _______ _______ _____ _____    ______ ____
ROOT
ATOM      1  N   UNL     1       5.039   3.883  15.881  0.00  0.00    +0.000 NA
ATOM      2  C   UNL     1       4.365   4.248  16.918  0.00  0.00    +0.000 C 
ATOM      3  C   UNL     1       3.789   3.108  17.768  0.00  0.00    +0.000 C 
ATOM      4  O   UNL     1       4.113   1.946  17.558  0.00  0.00    +0.000 OA
ATOM      5  C   UNL     1       2.808   3.420  18.831  0.00  0.00    +0.000 A 
ATOM      6  C   UNL     1       2.248   2.359  19.563  0.00  0.00    +0.000 A 
ATOM      7  C   UNL     1       1.327   2.615  20.577  0.00  0.00    +0.000 A 
ATOM      8  C   UNL     1       0.964   3.926  20.857  0.00  0.00    +0.000 A 
ATOM      9  C   UNL     1       1.528   4.983  20.134  0.00  0.00    +0.000 A 
ATOM     10  C   UNL     1       2.460   4.749  19.104  0.00  0.00    +0.000 A 
ATOM     11  C   UNL     1       3.120   5.836  18.364  0.00  0.00    +0.000 C 
ATOM     12  C   UNL     1       4.026   5.630  17.396  0.00  0.00    +0.000 C 
ENDROOT
BRANCH  11  13
ATOM     13  O   UNL     1       2.814   7.157  18.676  0.00  0.00    +0.000 OA
ATOM     14  H   UNL     1       3.605   7.600  19.021  0.00  0.00    +0.000 HD
ENDBRANCH  11  13
BRANCH  12  15
ATOM     15  O   UNL     1       4.629   6.738  16.812  0.00  0.00    +0.000 OA
ATOM     16  H   UNL     1       4.585   7.445  17.486  0.00  0.00    +0.000 HD
ENDBRANCH  12  15
BRANCH   1  17
ATOM     17  C   UNL     1       5.634   4.857  14.955  0.00  0.00    +0.000 C 
BRANCH  17  18
ATOM     18  C   UNL     1       7.151   4.944  15.182  0.00  0.00    +0.000 C 
ATOM     19  O   UNL     1       7.943   5.621  14.535  0.00  0.00    +0.000 OA
BRANCH  18  21
ATOM     20  C   UNL     1       7.705   4.762  17.459  0.00  0.00    +0.000 C 
ATOM     21  O   UNL     1       7.513   4.110  16.206  0.00  0.00    +0.000 OA
ENDBRANCH  18  21
ENDBRANCH  17  18
BRANCH  17  22
ATOM     22  C   UNL     1       5.330   4.405  13.517  0.00  0.00    +0.000 C 
BRANCH  22  23
ATOM     23  C   UNL     1       6.351   3.419  12.946  0.00  0.00    +0.000 C 
BRANCH  23  24
ATOM     24  S   UNL     1       5.640   2.343  11.650  0.00  0.00    +0.000 S 
ATOM     25  C   UNL     1       4.123   3.268  11.327  0.00  0.00    +0.000 C 
ENDBRANCH  23  24
ENDBRANCH  22  23
ENDBRANCH  17  22
ENDBRANCH   1  17
TORSDOF 8
ENDMDL
MODEL 3
REMARK VINA RESULT:      -6.8      2.677      4.434
REMARK  Name = 
REMARK  10 active torsions:
REMARK  status: ('A' for Active; 'I' for Inactive)
REMARK    1  A    between atoms: C_1  and  O_2
REMARK    2  A    between atoms: O_2  and  C_3
REMARK    3  A    between atoms: C_3  and  C_5
REMARK    4  A    between atoms: C_5  and  C_6
REMARK    5  A    between atoms: C_5  and  N_10
REMARK    6  A    between atoms: C_6  and  C_7
REMARK    7  A    between atoms: C_7  and  S_8
REMARK    8  A    between atoms: S_8  and  C_9
REMARK    9  A    between atoms: C_20  and  O_21
REMARK   10  A    between atoms: C_22  and  O_23
REMARK                            x       y       z     vdW  Elec       q    Type
REMARK                         _______ _______ _______ _____ _____    ______ ____
ROOT
ATOM      1  N   UNL     1       5.445   4.440  16.416  0.00  0.00    +0.000 NA
ATOM      2  C   UNL     1       4.581   4.631  17.354  0.00  0.00    +0.000 C 
ATOM      3  C   UNL     1       3.951   3.361  17.942  0.00  0.00    +0.000 C 
ATOM      4  O   UNL     1       4.387   2.254  17.651  0.00  0.00    +0.000 OA
ATOM      5  C   UNL     1       2.785   3.480  18.845  0.00  0.00    +0.000 A 
ATOM      6  C   UNL     1       2.185   2.305  19.331  0.00  0.00    +0.000 A 
ATOM      7  C   UNL     1       1.090   2.380  20.189  0.00  0.00    +0.000 A 
ATOM      8  C   UNL     1       0.594   3.623  20.560  0.00  0.00    +0.000 A 
ATOM      9  C   UNL     1       1.197   4.792  20.084  0.00  0.00    +0.000 A 
ATOM     10  C   UNL     1       2.303   4.743  19.214  0.00  0.00    +0.000 A 
ATOM     11  C   UNL     1       3.000   5.950  18.742  0.00  0.00    +0.000 C 
ATOM     12  C   UNL     1       4.070   5.919  17.932  0.00  0.00    +0.000 C 
ENDROOT
BRANCH  11  13
ATOM     13  O   UNL     1       2.554   7.201  19.155  0.00  0.00    +0.000 OA
ATOM     14  H   UNL     1       2.576   7.817  18.405  0.00  0.00    +0.000 HD
ENDBRANCH  11  13
BRANCH  12  15
ATOM     15  O   UNL     1       4.683   7.122  17.604  0.00  0.00    +0.000 OA
ATOM     16  H   UNL     1       4.199   7.807  18.107  0.00  0.00    +0.000 HD
ENDBRANCH  12  15
BRANCH   1  17
ATOM     17  C   UNL     1       6.117   5.556  15.737  0.00  0.00    +0.000 C 
BRANCH  17  18
ATOM     18  C   UNL     1       7.215   6.139  16.639  0.00  0.00    +0.000 C 
ATOM     19  O   UNL     1       7.596   7.305  16.658  0.00  0.00    +0.000 OA
BRANCH  18  21
ATOM     20  C   UNL     1       7.873   5.471  18.795  0.00  0.00    +0.000 C 
ATOM     21  O   UNL     1       7.754   5.145  17.412  0.00  0.00    +0.000 OA
ENDBRANCH  18  21
ENDBRANCH  17  18
BRANCH  17  22
ATOM     22  C   UNL     1       6.721   5.030  14.425  0.00  0.00    +0.000 C 
BRANCH  22  23
ATOM     23  C   UNL     1       6.131   3.698  13.959  0.00  0.00    +0.000 C 
BRANCH  23  24
ATOM     24  S   UNL     1       6.345   3.424  12.163  0.00  0.00    +0.000 S 
ATOM     25  C   UNL     1       4.607   3.259  11.702  0.00  0.00    +0.000 C 
ENDBRANCH  23  24
ENDBRANCH  22  23
ENDBRANCH  17  22
ENDBRANCH   1  17
TORSDOF 8
ENDMDL
MODEL 4
REMARK VINA RESULT:      -6.8      3.951      6.043
REMARK  Name = 
REMARK  10 active torsions:
REMARK  status: ('A' for Active; 'I' for Inactive)
REMARK    1  A    between atoms: C_1  and  O_2
REMARK    2  A    between atoms: O_2  and  C_3
REMARK    3  A    between atoms: C_3  and  C_5
REMARK    4  A    between atoms: C_5  and  C_6
REMARK    5  A    between atoms: C_5  and  N_10
REMARK    6  A    between atoms: C_6  and  C_7
REMARK    7  A    between atoms: C_7  and  S_8
REMARK    8  A    between atoms: S_8  and  C_9
REMARK    9  A    between atoms: C_20  and  O_21
REMARK   10  A    between atoms: C_22  and  O_23
REMARK                            x       y       z     vdW  Elec       q    Type
REMARK                         _______ _______ _______ _____ _____    ______ ____
ROOT
ATOM      1  N   UNL     1       3.004   5.768  18.959  0.00  0.00    +0.000 NA
ATOM      2  C   UNL     1       2.548   6.969  19.082  0.00  0.00    +0.000 C 
ATOM      3  C   UNL     1       1.792   7.260  20.384  0.00  0.00    +0.000 C 
ATOM      4  O   UNL     1       1.792   6.449  21.302  0.00  0.00    +0.000 OA
ATOM      5  C   UNL     1       1.030   8.521  20.515  0.00  0.00    +0.000 A 
ATOM      6  C   UNL     1       0.296   8.747  21.693  0.00  0.00    +0.000 A 
ATOM      7  C   UNL     1      -0.426   9.927  21.854  0.00  0.00    +0.000 A 
ATOM      8  C   UNL     1      -0.420  10.878  20.841  0.00  0.00    +0.000 A 
ATOM      9  C   UNL     1       0.317  10.656  19.672  0.00  0.00    +0.000 A 
ATOM     10  C   UNL     1       1.054   9.471  19.486  0.00  0.00    +0.000 A 
ATOM     11  C   UNL     1       1.889   9.230  18.298  0.00  0.00    +0.000 C 
ATOM     12  C   UNL     1       2.615   8.117  18.116  0.00  0.00    +0.000 C 
ENDROOT
BRANCH  11  13
ATOM     13  O   UNL     1       1.955  10.200  17.303  0.00  0.00    +0.000 OA
ATOM     14  H   UNL     1       2.805  10.132  16.840  0.00  0.00    +0.000 HD
ENDBRANCH  11  13
BRANCH  12  15
ATOM     15  O   UNL     1       3.415   8.029  16.984  0.00  0.00    +0.000 OA
ATOM     16  H   UNL     1       4.315   8.272  17.280  0.00  0.00    +0.000 HD
ENDBRANCH  12  15
BRANCH   1  17
ATOM     17  C   UNL     1       3.729   5.328  17.759  0.00  0.00    +0.000 C 
BRANCH  17  18
ATOM     18  C   UNL     1       5.232   5.222  18.059  0.00  0.00    +0.000 C 
ATOM     19  O   UNL     1       5.790   4.303  18.650  0.00  0.00    +0.000 OA
BRANCH  18  21
ATOM     20  C   UNL     1       7.289   6.325  17.779  0.00  0.00    +0.000 C 
ATOM     21  O   UNL     1       5.874   6.341  17.601  0.00  0.00    +0.000 OA
ENDBRANCH  18  21
ENDBRANCH  17  18
BRANCH  17  22
ATOM     22  C   UNL     1       3.168   3.963  17.329  0.00  0.00    +0.000 C 
BRANCH  22  23
ATOM     23  C   UNL     1       1.806   3.630  17.940  0.00  0.00    +0.000 C 
BRANCH  23  24
ATOM     24  S   UNL     1       1.859   2.147  19.009  0.00  0.00    +0.000 S 
ATOM     25  C   UNL     1       3.500   1.542  18.558  0.00  0.00    +0.000 C 
ENDBRANCH  23  24
ENDBRANCH  22  23
ENDBRANCH  17  22
ENDBRANCH   1  17
TORSDOF 8
ENDMDL
MODEL 5
REMARK VINA RESULT:      -6.7      4.120      6.263
REMARK  Name = 
REMARK  10 active torsions:
REMARK  status: ('A' for Active; 'I' for Inactive)
REMARK    1  A    between atoms: C_1  and  O_2
REMARK    2  A    between atoms: O_2  and  C_3
REMARK    3  A    between atoms: C_3  and  C_5
REMARK    4  A    between atoms: C_5  and  C_6
REMARK    5  A    between atoms: C_5  and  N_10
REMARK    6  A    between atoms: C_6  and  C_7
REMARK    7  A    between atoms: C_7  and  S_8
REMARK    8  A    between atoms: S_8  and  C_9
REMARK    9  A    between atoms: C_20  and  O_21
REMARK   10  A    between atoms: C_22  and  O_23
REMARK                            x       y       z     vdW  Elec       q    Type
REMARK                         _______ _______ _______ _____ _____    ______ ____
ROOT
ATOM      1  N   UNL     1       2.558   5.917  19.059  0.00  0.00    +0.000 NA
ATOM      2  C   UNL     1       2.221   7.157  19.175  0.00  0.00    +0.000 C 
ATOM      3  C   UNL     1       1.532   7.535  20.493  0.00  0.00    +0.000 C 
ATOM      4  O   UNL     1       1.480   6.738  21.422  0.00  0.00    +0.000 OA
ATOM      5  C   UNL     1       0.898   8.865  20.625  0.00  0.00    +0.000 A 
ATOM      6  C   UNL     1       0.222   9.174  21.818  0.00  0.00    +0.000 A 
ATOM      7  C   UNL     1      -0.380  10.420  21.981  0.00  0.00    +0.000 A 
ATOM      8  C   UNL     1      -0.311  11.353  20.954  0.00  0.00    +0.000 A 
ATOM      9  C   UNL     1       0.369  11.048  19.770  0.00  0.00    +0.000 A 
ATOM     10  C   UNL     1       0.984   9.795  19.582  0.00  0.00    +0.000 A 
ATOM     11  C   UNL     1       1.760   9.462  18.376  0.00  0.00    +0.000 C 
ATOM     12  C   UNL     1       2.371   8.282  18.192  0.00  0.00    +0.000 C 
ENDROOT
BRANCH  11  13
ATOM     13  O   UNL     1       1.891  10.408  17.366  0.00  0.00    +0.000 OA
ATOM     14  H   UNL     1       1.154  10.321  16.741  0.00  0.00    +0.000 HD
ENDBRANCH  11  13
BRANCH  12  15
ATOM     15  O   UNL     1       3.128   8.104  17.040  0.00  0.00    +0.000 OA
ATOM     16  H   UNL     1       3.934   7.629  17.328  0.00  0.00    +0.000 HD
ENDBRANCH  12  15
BRANCH   1  17
ATOM     17  C   UNL     1       3.204   5.395  17.846  0.00  0.00    +0.000 C 
BRANCH  17  18
ATOM     18  C   UNL     1       4.702   5.172  18.102  0.00  0.00    +0.000 C 
ATOM     19  O   UNL     1       5.194   4.321  18.836  0.00  0.00    +0.000 OA
BRANCH  18  21
ATOM     20  C   UNL     1       5.583   5.823  16.022  0.00  0.00    +0.000 C 
ATOM     21  O   UNL     1       5.432   6.103  17.412  0.00  0.00    +0.000 OA
ENDBRANCH  18  21
ENDBRANCH  17  18
BRANCH  17  22
ATOM     22  C   UNL     1       2.520   4.073  17.465  0.00  0.00    +0.000 C 
BRANCH  22  23
ATOM     23  C   UNL     1       1.400   3.654  18.419  0.00  0.00    +0.000 C 
BRANCH  23  24
ATOM     24  S   UNL     1       1.901   2.299  19.540  0.00  0.00    +0.000 S 
ATOM     25  C   UNL     1       1.361   3.022  21.104  0.00  0.00    +0.000 C 
ENDBRANCH  23  24
ENDBRANCH  22  23
ENDBRANCH  17  22
ENDBRANCH   1  17
TORSDOF 8
ENDMDL
MODEL 6
REMARK VINA RESULT:      -6.7      3.846      5.951
REMARK  Name = 
REMARK  10 active torsions:
REMARK  status: ('A' for Active; 'I' for Inactive)
REMARK    1  A    between atoms: C_1  and  O_2
REMARK    2  A    between atoms: O_2  and  C_3
REMARK    3  A    between atoms: C_3  and  C_5
REMARK    4  A    between atoms: C_5  and  C_6
REMARK    5  A    between atoms: C_5  and  N_10
REMARK    6  A    between atoms: C_6  and  C_7
REMARK    7  A    between atoms: C_7  and  S_8
REMARK    8  A    between atoms: S_8  and  C_9
REMARK    9  A    between atoms: C_20  and  O_21
REMARK   10  A    between atoms: C_22  and  O_23
REMARK                            x       y       z     vdW  Elec       q    Type
REMARK                         _______ _______ _______ _____ _____    ______ ____
ROOT
ATOM      1  N   UNL     1       3.164   5.763  18.710  0.00  0.00    +0.000 NA
ATOM      2  C   UNL     1       2.660   6.933  18.914  0.00  0.00    +0.000 C 
ATOM      3  C   UNL     1       1.950   7.123  20.260  0.00  0.00    +0.000 C 
ATOM      4  O   UNL     1       2.027   6.268  21.134  0.00  0.00    +0.000 OA
ATOM      5  C   UNL     1       1.138   8.339  20.488  0.00  0.00    +0.000 A 
ATOM      6  C   UNL     1       0.448   8.470  21.706  0.00  0.00    +0.000 A 
ATOM      7  C   UNL     1      -0.319   9.605  21.958  0.00  0.00    +0.000 A 
ATOM      8  C   UNL     1      -0.401  10.604  20.997  0.00  0.00    +0.000 A 
ATOM      9  C   UNL     1       0.292  10.477  19.788  0.00  0.00    +0.000 A 
ATOM     10  C   UNL     1       1.073   9.339  19.510  0.00  0.00    +0.000 A 
ATOM     11  C   UNL     1       1.865   9.198  18.277  0.00  0.00    +0.000 C 
ATOM     12  C   UNL     1       2.632   8.130  18.007  0.00  0.00    +0.000 C 
ENDROOT
BRANCH  11  13
ATOM     13  O   UNL     1       1.843  10.218  17.332  0.00  0.00    +0.000 OA
ATOM     14  H   UNL     1       1.172  10.022  16.659  0.00  0.00    +0.000 HD
ENDBRANCH  11  13
BRANCH  12  15
ATOM     15  O   UNL     1       3.384   8.138  16.839  0.00  0.00    +0.000 OA
ATOM     16  H   UNL     1       3.942   7.335  16.882  0.00  0.00    +0.000 HD
ENDBRANCH  12  15
BRANCH   1  17
ATOM     17  C   UNL     1       3.854   5.419  17.459  0.00  0.00    +0.000 C 
BRANCH  17  18
ATOM     18  C   UNL     1       5.361   5.684  17.597  0.00  0.00    +0.000 C 
ATOM     19  O   UNL     1       5.915   6.777  17.527  0.00  0.00    +0.000 OA
BRANCH  18  21
ATOM     20  C   UNL     1       7.436   4.580  17.593  0.00  0.00    +0.000 C 
ATOM     21  O   UNL     1       6.024   4.499  17.774  0.00  0.00    +0.000 OA
ENDBRANCH  18  21
ENDBRANCH  17  18
BRANCH  17  22
ATOM     22  C   UNL     1       3.594   3.935  17.156  0.00  0.00    +0.000 C 
BRANCH  22  23
ATOM     23  C   UNL     1       2.187   3.462  17.528  0.00  0.00    +0.000 C 
BRANCH  23  24
ATOM     24  S   UNL     1       2.196   2.220  18.871  0.00  0.00    +0.000 S 
ATOM     25  C   UNL     1       1.037   3.025  19.997  0.00  0.00    +0.000 C 
ENDBRANCH  23  24
ENDBRANCH  22  23
ENDBRANCH  17  22
ENDBRANCH   1  17
TORSDOF 8
ENDMDL
MODEL 7
REMARK VINA RESULT:      -6.6      4.841      7.418
REMARK  Name = 
REMARK  10 active torsions:
REMARK  status: ('A' for Active; 'I' for Inactive)
REMARK    1  A    between atoms: C_1  and  O_2
REMARK    2  A    between atoms: O_2  and  C_3
REMARK    3  A    between atoms: C_3  and  C_5
REMARK    4  A    between atoms: C_5  and  C_6
REMARK    5  A    between atoms: C_5  and  N_10
REMARK    6  A    between atoms: C_6  and  C_7
REMARK    7  A    between atoms: C_7  and  S_8
REMARK    8  A    between atoms: S_8  and  C_9
REMARK    9  A    between atoms: C_20  and  O_21
REMARK   10  A    between atoms: C_22  and  O_23
REMARK                            x       y       z     vdW  Elec       q    Type
REMARK                         _______ _______ _______ _____ _____    ______ ____
ROOT
ATOM      1  N   UNL     1       1.110   9.424  19.133  0.00  0.00    +0.000 NA
ATOM      2  C   UNL     1       1.854   8.371  19.179  0.00  0.00    +0.000 C 
ATOM      3  C   UNL     1       2.791   8.169  17.981  0.00  0.00    +0.000 C 
ATOM      4  O   UNL     1       2.934   9.052  17.143  0.00  0.00    +0.000 OA
ATOM      5  C   UNL     1       3.501   6.881  17.824  0.00  0.00    +0.000 A 
ATOM      6  C   UNL     1       4.312   6.692  16.691  0.00  0.00    +0.000 A 
ATOM      7  C   UNL     1       5.003   5.495  16.514  0.00  0.00    +0.000 A 
ATOM      8  C   UNL     1       4.882   4.489  17.463  0.00  0.00    +0.000 A 
ATOM      9  C   UNL     1       4.081   4.680  18.595  0.00  0.00    +0.000 A 
ATOM     10  C   UNL     1       3.373   5.880  18.795  0.00  0.00    +0.000 A 
ATOM     11  C   UNL     1       2.572   6.141  20.001  0.00  0.00    +0.000 C 
ATOM     12  C   UNL     1       1.910   7.288  20.217  0.00  0.00    +0.000 C 
ENDROOT
BRANCH  11  13
ATOM     13  O   UNL     1       2.491   5.167  20.991  0.00  0.00    +0.000 OA
ATOM     14  H   UNL     1       3.262   4.580  20.931  0.00  0.00    +0.000 HD
ENDBRANCH  11  13
BRANCH  12  15
ATOM     15  O   UNL     1       1.238   7.444  21.424  0.00  0.00    +0.000 OA
ATOM     16  H   UNL     1       0.521   8.085  21.242  0.00  0.00    +0.000 HD
ENDBRANCH  12  15
BRANCH   1  17
ATOM     17  C   UNL     1       0.144   9.743  20.193  0.00  0.00    +0.000 C 
BRANCH  17  18
ATOM     18  C   UNL     1       0.793  10.661  21.240  0.00  0.00    +0.000 C 
ATOM     19  O   UNL     1       1.283  11.766  21.031  0.00  0.00    +0.000 OA
BRANCH  18  21
ATOM     20  C   UNL     1      -0.477  10.064  23.126  0.00  0.00    +0.000 C 
ATOM     21  O   UNL     1       0.785  10.045  22.463  0.00  0.00    +0.000 OA
ENDBRANCH  18  21
ENDBRANCH  17  18
BRANCH  17  22
ATOM     22  C   UNL     1      -1.070  10.433  19.550  0.00  0.00    +0.000 C 
BRANCH  22  23
ATOM     23  C   UNL     1      -1.157  10.249  18.033  0.00  0.00    +0.000 C 
BRANCH  23  24
ATOM     24  S   UNL     1      -2.866   9.940  17.460  0.00  0.00    +0.000 S 
ATOM     25  C   UNL     1      -2.681  10.474  15.745  0.00  0.00    +0.000 C 
ENDBRANCH  23  24
ENDBRANCH  22  23
ENDBRANCH  17  22
ENDBRANCH   1  17
TORSDOF 8
ENDMDL
MODEL 8
REMARK VINA RESULT:      -6.6      2.124      4.195
REMARK  Name = 
REMARK  10 active torsions:
REMARK  status: ('A' for Active; 'I' for Inactive)
REMARK    1  A    between atoms: C_1  and  O_2
REMARK    2  A    between atoms: O_2  and  C_3
REMARK    3  A    between atoms: C_3  and  C_5
REMARK    4  A    between atoms: C_5  and  C_6
REMARK    5  A    between atoms: C_5  and  N_10
REMARK    6  A    between atoms: C_6  and  C_7
REMARK    7  A    between atoms: C_7  and  S_8
REMARK    8  A    between atoms: S_8  and  C_9
REMARK    9  A    between atoms: C_20  and  O_21
REMARK   10  A    between atoms: C_22  and  O_23
REMARK                            x       y       z     vdW  Elec       q    Type
REMARK                         _______ _______ _______ _____ _____    ______ ____
ROOT
ATOM      1  N   UNL     1       6.127   4.699  17.787  0.00  0.00    +0.000 NA
ATOM      2  C   UNL     1       5.009   4.851  18.413  0.00  0.00    +0.000 C 
ATOM      3  C   UNL     1       4.599   3.690  19.328  0.00  0.00    +0.000 C 
ATOM      4  O   UNL     1       5.380   2.777  19.568  0.00  0.00    +0.000 OA
ATOM      5  C   UNL     1       3.234   3.661  19.897  0.00  0.00    +0.000 A 
ATOM      6  C   UNL     1       2.856   2.562  20.687  0.00  0.00    +0.000 A 
ATOM      7  C   UNL     1       1.581   2.505  21.246  0.00  0.00    +0.000 A 
ATOM      8  C   UNL     1       0.685   3.541  21.015  0.00  0.00    +0.000 A 
ATOM      9  C   UNL     1       1.065   4.639  20.235  0.00  0.00    +0.000 A 
ATOM     10  C   UNL     1       2.347   4.719  19.658  0.00  0.00    +0.000 A 
ATOM     11  C   UNL     1       2.802   5.885  18.885  0.00  0.00    +0.000 C 
ATOM     12  C   UNL     1       4.028   5.986  18.349  0.00  0.00    +0.000 C 
ENDROOT
BRANCH  11  13
ATOM     13  O   UNL     1       1.938   6.958  18.697  0.00  0.00    +0.000 OA
ATOM     14  H   UNL     1       1.743   7.057  17.751  0.00  0.00    +0.000 HD
ENDBRANCH  11  13
BRANCH  12  15
ATOM     15  O   UNL     1       4.366   7.163  17.693  0.00  0.00    +0.000 OA
ATOM     16  H   UNL     1       5.172   7.490  18.140  0.00  0.00    +0.000 HD
ENDBRANCH  12  15
BRANCH   1  17
ATOM     17  C   UNL     1       6.644   5.712  16.857  0.00  0.00    +0.000 C 
BRANCH  17  18
ATOM     18  C   UNL     1       7.553   6.700  17.603  0.00  0.00    +0.000 C 
ATOM     19  O   UNL     1       8.184   6.471  18.630  0.00  0.00    +0.000 OA
BRANCH  18  21
ATOM     20  C   UNL     1       7.992   9.003  17.771  0.00  0.00    +0.000 C 
ATOM     21  O   UNL     1       7.531   7.915  16.973  0.00  0.00    +0.000 OA
ENDBRANCH  18  21
ENDBRANCH  17  18
BRANCH  17  22
ATOM     22  C   UNL     1       7.427   4.994  15.746  0.00  0.00    +0.000 C 
BRANCH  22  23
ATOM     23  C   UNL     1       6.547   4.196  14.781  0.00  0.00    +0.000 C 
BRANCH  23  24
ATOM     24  S   UNL     1       6.992   4.476  13.029  0.00  0.00    +0.000 S 
ATOM     25  C   UNL     1       5.903   3.251  12.271  0.00  0.00    +0.000 C 
ENDBRANCH  23  24
ENDBRANCH  22  23
ENDBRANCH  17  22
ENDBRANCH   1  17
TORSDOF 8
ENDMDL
MODEL 9
REMARK VINA RESULT:      -6.4      3.967      6.306
REMARK  Name = 
REMARK  10 active torsions:
REMARK  status: ('A' for Active; 'I' for Inactive)
REMARK    1  A    between atoms: C_1  and  O_2
REMARK    2  A    between atoms: O_2  and  C_3
REMARK    3  A    between atoms: C_3  and  C_5
REMARK    4  A    between atoms: C_5  and  C_6
REMARK    5  A    between atoms: C_5  and  N_10
REMARK    6  A    between atoms: C_6  and  C_7
REMARK    7  A    between atoms: C_7  and  S_8
REMARK    8  A    between atoms: S_8  and  C_9
REMARK    9  A    between atoms: C_20  and  O_21
REMARK   10  A    between atoms: C_22  and  O_23
REMARK                            x       y       z     vdW  Elec       q    Type
REMARK                         _______ _______ _______ _____ _____    ______ ____
ROOT
ATOM      1  N   UNL     1       2.915   5.645  19.359  0.00  0.00    +0.000 NA
ATOM      2  C   UNL     1       2.511   6.870  19.312  0.00  0.00    +0.000 C 
ATOM      3  C   UNL     1       1.661   7.333  20.502  0.00  0.00    +0.000 C 
ATOM      4  O   UNL     1       1.541   6.629  21.497  0.00  0.00    +0.000 OA
ATOM      5  C   UNL     1       0.956   8.632  20.429  0.00  0.00    +0.000 A 
ATOM      6  C   UNL     1       0.137   9.016  21.505  0.00  0.00    +0.000 A 
ATOM      7  C   UNL     1      -0.536  10.235  21.474  0.00  0.00    +0.000 A 
ATOM      8  C   UNL     1      -0.394  11.068  20.371  0.00  0.00    +0.000 A 
ATOM      9  C   UNL     1       0.428  10.689  19.304  0.00  0.00    +0.000 A 
ATOM     10  C   UNL     1       1.117   9.461  19.312  0.00  0.00    +0.000 A 
ATOM     11  C   UNL     1       2.038   9.057  18.237  0.00  0.00    +0.000 C 
ATOM     12  C   UNL     1       2.720   7.901  18.241  0.00  0.00    +0.000 C 
ENDROOT
BRANCH  11  13
ATOM     13  O   UNL     1       2.239   9.908  17.156  0.00  0.00    +0.000 OA
ATOM     14  H   UNL     1       3.107  10.334  17.235  0.00  0.00    +0.000 HD
ENDBRANCH  11  13
BRANCH  12  15
ATOM     15  O   UNL     1       3.609   7.657  17.202  0.00  0.00    +0.000 OA
ATOM     16  H   UNL     1       3.240   6.891  16.717  0.00  0.00    +0.000 HD
ENDBRANCH  12  15
BRANCH   1  17
ATOM     17  C   UNL     1       3.717   5.047  18.283  0.00  0.00    +0.000 C 
BRANCH  17  18
ATOM     18  C   UNL     1       4.880   4.240  18.879  0.00  0.00    +0.000 C 
ATOM     19  O   UNL     1       5.943   4.695  19.290  0.00  0.00    +0.000 OA
BRANCH  18  21
ATOM     20  C   UNL     1       4.517   2.284  20.132  0.00  0.00    +0.000 C 
ATOM     21  O   UNL     1       4.579   2.904  18.849  0.00  0.00    +0.000 OA
ENDBRANCH  18  21
ENDBRANCH  17  18
BRANCH  17  22
ATOM     22  C   UNL     1       2.802   4.137  17.448  0.00  0.00    +0.000 C 
BRANCH  22  23
ATOM     23  C   UNL     1       1.366   4.054  17.967  0.00  0.00    +0.000 C 
BRANCH  23  24
ATOM     24  S   UNL     1       1.013   2.467  18.806  0.00  0.00    +0.000 S 
ATOM     25  C   UNL     1       0.976   3.060  20.511  0.00  0.00    +0.000 C 
ENDBRANCH  23  24
ENDBRANCH  22  23
ENDBRANCH  17  22
ENDBRANCH   1  17
TORSDOF 8
ENDMDL
