MODEL 1
REMARK VINA RESULT:      -8.0      0.000      0.000
REMARK  Name = 
REMARK  7 active torsions:
REMARK  status: ('A' for Active; 'I' for Inactive)
REMARK    1  A    between atoms: C_1  and  C_2
REMARK    2  A    between atoms: C_2  and  C_3
REMARK    3  A    between atoms: C_3  and  O_4
REMARK    4  A    between atoms: O_4  and  C_5
REMARK    5  A    between atoms: C_10  and  C_11
REMARK    6  A    between atoms: C_15  and  C_16
REMARK    7  A    between atoms: N_18  and  C_19
REMARK                            x       y       z     vdW  Elec       q    Type
REMARK                         _______ _______ _______ _____ _____    ______ ____
ROOT
ATOM      1  C   UNL     1       4.875   4.485  17.401  0.00  0.00    +0.000 A 
ATOM      2  N   UNL     1       4.153   5.488  17.832  0.00  0.00    +0.000 NA
ATOM      3  C   UNL     1       3.446   5.220  18.958  0.00  0.00    +0.000 A 
ATOM      4  C   UNL     1       3.408   4.040  19.662  0.00  0.00    +0.000 A 
ATOM      5  C   UNL     1       2.478   4.237  20.698  0.00  0.00    +0.000 A 
ATOM      6  C   UNL     1       2.011   3.270  21.718  0.00  0.00    +0.000 C 
ATOM      7  N   UNL     1       1.979   5.485  20.673  0.00  0.00    +0.000 NA
ATOM      8  N   UNL     1       2.586   6.062  19.609  0.00  0.00    +0.000 N 
ATOM      9  C   UNL     1       2.271   7.422  19.250  0.00  0.00    +0.000 C 
ATOM     10  C   UNL     1       4.225   2.951  19.208  0.00  0.00    +0.000 A 
ATOM     11  O   UNL     1       4.288   1.854  19.751  0.00  0.00    +0.000 OA
ATOM     12  N   UNL     1       4.937   3.265  18.070  0.00  0.00    +0.000 N 
ATOM     13  H   UNL     1       5.520   2.525  17.698  0.00  0.00    +0.000 HD
ENDROOT
BRANCH   1  19
ATOM     14  C   UNL     1       6.929   5.188  15.985  0.00  0.00    +0.000 A 
ATOM     15  C   UNL     1       7.568   5.139  14.732  0.00  0.00    +0.000 A 
ATOM     16  C   UNL     1       6.961   4.547  13.625  0.00  0.00    +0.000 A 
ATOM     17  C   UNL     1       5.698   3.988  13.747  0.00  0.00    +0.000 A 
ATOM     18  C   UNL     1       5.053   4.007  14.981  0.00  0.00    +0.000 A 
ATOM     19  C   UNL     1       5.652   4.597  16.116  0.00  0.00    +0.000 A 
BRANCH  14  20
ATOM     20  O   UNL     1       7.508   5.788  17.086  0.00  0.00    +0.000 OA
BRANCH  20  21
ATOM     21  C   UNL     1       7.262   7.195  17.235  0.00  0.00    +0.000 C 
BRANCH  21  23
ATOM     22  C   UNL     1       8.333   9.298  18.079  0.00  0.00    +0.000 C 
ATOM     23  C   UNL     1       8.177   7.797  18.296  0.00  0.00    +0.000 C 
ENDBRANCH  21  23
ENDBRANCH  20  21
ENDBRANCH  14  20
ENDBRANCH   1  19
TORSDOF 4
ENDMDL
MODEL 2
REMARK VINA RESULT:      -7.8      0.831      1.042
REMARK  Name = 
REMARK  7 active torsions:
REMARK  status: ('A' for Active; 'I' for Inactive)
REMARK    1  A    between atoms: C_1  and  C_2
REMARK    2  A    between atoms: C_2  and  C_3
REMARK    3  A    between atoms: C_3  and  O_4
REMARK    4  A    between atoms: O_4  and  C_5
REMARK    5  A    between atoms: C_10  and  C_11
REMARK    6  A    between atoms: C_15  and  C_16
REMARK    7  A    between atoms: N_18  and  C_19
REMARK                            x       y       z     vdW  Elec       q    Type
REMARK                         _______ _______ _______ _____ _____    ______ ____
ROOT
ATOM      1  C   UNL     1       4.664   4.188  16.927  0.00  0.00    +0.000 A 
ATOM      2  N   UNL     1       4.083   5.224  17.479  0.00  0.00    +0.000 NA
ATOM      3  C   UNL     1       3.294   4.919  18.539  0.00  0.00    +0.000 A 
ATOM      4  C   UNL     1       3.046   3.675  19.068  0.00  0.00    +0.000 A 
ATOM      5  C   UNL     1       2.112   3.872  20.100  0.00  0.00    +0.000 A 
ATOM      6  C   UNL     1       1.459   2.860  20.962  0.00  0.00    +0.000 C 
ATOM      7  N   UNL     1       1.809   5.174  20.240  0.00  0.00    +0.000 NA
ATOM      8  N   UNL     1       2.543   5.788  19.282  0.00  0.00    +0.000 N 
ATOM      9  C   UNL     1       2.454   7.217  19.111  0.00  0.00    +0.000 C 
ATOM     10  C   UNL     1       3.709   2.544  18.484  0.00  0.00    +0.000 A 
ATOM     11  O   UNL     1       3.581   1.387  18.868  0.00  0.00    +0.000 OA
ATOM     12  N   UNL     1       4.511   2.895  17.418  0.00  0.00    +0.000 N 
ATOM     13  H   UNL     1       4.991   2.130  16.960  0.00  0.00    +0.000 HD
ENDROOT
BRANCH   1  19
ATOM     14  C   UNL     1       6.836   4.827  15.665  0.00  0.00    +0.000 A 
ATOM     15  C   UNL     1       7.525   4.841  14.438  0.00  0.00    +0.000 A 
ATOM     16  C   UNL     1       6.915   4.423  13.255  0.00  0.00    +0.000 A 
ATOM     17  C   UNL     1       5.601   3.980  13.273  0.00  0.00    +0.000 A 
ATOM     18  C   UNL     1       4.906   3.939  14.479  0.00  0.00    +0.000 A 
ATOM     19  C   UNL     1       5.505   4.352  15.690  0.00  0.00    +0.000 A 
BRANCH  14  20
ATOM     20  O   UNL     1       7.418   5.255  16.843  0.00  0.00    +0.000 OA
BRANCH  20  21
ATOM     21  C   UNL     1       7.384   6.672  17.080  0.00  0.00    +0.000 C 
BRANCH  21  23
ATOM     22  C   UNL     1       7.859   5.789  19.376  0.00  0.00    +0.000 C 
ATOM     23  C   UNL     1       7.937   7.005  18.461  0.00  0.00    +0.000 C 
ENDBRANCH  21  23
ENDBRANCH  20  21
ENDBRANCH  14  20
ENDBRANCH   1  19
TORSDOF 4
ENDMDL
MODEL 3
REMARK VINA RESULT:      -7.6      1.892      2.610
REMARK  Name = 
REMARK  7 active torsions:
REMARK  status: ('A' for Active; 'I' for Inactive)
REMARK    1  A    between atoms: C_1  and  C_2
REMARK    2  A    between atoms: C_2  and  C_3
REMARK    3  A    between atoms: C_3  and  O_4
REMARK    4  A    between atoms: O_4  and  C_5
REMARK    5  A    between atoms: C_10  and  C_11
REMARK    6  A    between atoms: C_15  and  C_16
REMARK    7  A    between atoms: N_18  and  C_19
REMARK                            x       y       z     vdW  Elec       q    Type
REMARK                         _______ _______ _______ _____ _____    ______ ____
ROOT
ATOM      1  C   UNL     1       4.765   4.638  16.175  0.00  0.00    +0.000 A 
ATOM      2  N   UNL     1       4.428   3.537  16.799  0.00  0.00    +0.000 NA
ATOM      3  C   UNL     1       3.691   3.737  17.919  0.00  0.00    +0.000 A 
ATOM      4  C   UNL     1       3.283   4.937  18.450  0.00  0.00    +0.000 A 
ATOM      5  C   UNL     1       2.616   4.624  19.648  0.00  0.00    +0.000 A 
ATOM      6  C   UNL     1       2.026   5.546  20.646  0.00  0.00    +0.000 C 
ATOM      7  N   UNL     1       2.575   3.296  19.848  0.00  0.00    +0.000 NA
ATOM      8  N   UNL     1       3.232   2.780  18.782  0.00  0.00    +0.000 N 
ATOM      9  C   UNL     1       3.412   1.355  18.667  0.00  0.00    +0.000 C 
ATOM     10  C   UNL     1       3.623   6.142  17.748  0.00  0.00    +0.000 A 
ATOM     11  O   UNL     1       3.311   7.271  18.110  0.00  0.00    +0.000 OA
ATOM     12  N   UNL     1       4.361   5.898  16.609  0.00  0.00    +0.000 N 
ATOM     13  H   UNL     1       4.641   6.717  16.084  0.00  0.00    +0.000 HD
ENDROOT
BRANCH   1  19
ATOM     14  C   UNL     1       6.935   5.177  14.865  0.00  0.00    +0.000 A 
ATOM     15  C   UNL     1       7.685   4.971  13.692  0.00  0.00    +0.000 A 
ATOM     16  C   UNL     1       7.181   4.228  12.625  0.00  0.00    +0.000 A 
ATOM     17  C   UNL     1       5.914   3.671  12.708  0.00  0.00    +0.000 A 
ATOM     18  C   UNL     1       5.161   3.845  13.866  0.00  0.00    +0.000 A 
ATOM     19  C   UNL     1       5.653   4.590  14.961  0.00  0.00    +0.000 A 
BRANCH  14  20
ATOM     20  O   UNL     1       7.411   5.928  15.923  0.00  0.00    +0.000 OA
BRANCH  20  21
ATOM     21  C   UNL     1       7.611   5.217  17.155  0.00  0.00    +0.000 C 
BRANCH  21  23
ATOM     22  C   UNL     1       7.729   7.619  17.858  0.00  0.00    +0.000 C 
ATOM     23  C   UNL     1       7.623   6.177  18.340  0.00  0.00    +0.000 C 
ENDBRANCH  21  23
ENDBRANCH  20  21
ENDBRANCH  14  20
ENDBRANCH   1  19
TORSDOF 4
ENDMDL
MODEL 4
REMARK VINA RESULT:      -7.4      2.972      5.950
REMARK  Name = 
REMARK  7 active torsions:
REMARK  status: ('A' for Active; 'I' for Inactive)
REMARK    1  A    between atoms: C_1  and  C_2
REMARK    2  A    between atoms: C_2  and  C_3
REMARK    3  A    between atoms: C_3  and  O_4
REMARK    4  A    between atoms: O_4  and  C_5
REMARK    5  A    between atoms: C_10  and  C_11
REMARK    6  A    between atoms: C_15  and  C_16
REMARK    7  A    between atoms: N_18  and  C_19
REMARK                            x       y       z     vdW  Elec       q    Type
REMARK                         _______ _______ _______ _____ _____    ______ ____
ROOT
ATOM      1  C   UNL     1       1.877   6.773  19.929  0.00  0.00    +0.000 A 
ATOM      2  N   UNL     1       1.356   7.434  20.933  0.00  0.00    +0.000 NA
ATOM      3  C   UNL     1       1.133   8.747  20.678  0.00  0.00    +0.000 A 
ATOM      4  C   UNL     1       1.398   9.431  19.515  0.00  0.00    +0.000 A 
ATOM      5  C   UNL     1       1.066  10.773  19.771  0.00  0.00    +0.000 A 
ATOM      6  C   UNL     1       1.209  11.947  18.879  0.00  0.00    +0.000 C 
ATOM      7  N   UNL     1       0.584  10.925  21.016  0.00  0.00    +0.000 NA
ATOM      8  N   UNL     1       0.633   9.680  21.544  0.00  0.00    +0.000 N 
ATOM      9  C   UNL     1       0.211   9.456  22.904  0.00  0.00    +0.000 C 
ATOM     10  C   UNL     1       1.939   8.700  18.404  0.00  0.00    +0.000 A 
ATOM     11  O   UNL     1       2.209   9.189  17.314  0.00  0.00    +0.000 OA
ATOM     12  N   UNL     1       2.140   7.367  18.698  0.00  0.00    +0.000 N 
ATOM     13  H   UNL     1       2.535   6.808  17.951  0.00  0.00    +0.000 HD
ENDROOT
BRANCH   1  19
ATOM     14  C   UNL     1       3.543   4.790  19.823  0.00  0.00    +0.000 A 
ATOM     15  C   UNL     1       3.773   3.429  20.097  0.00  0.00    +0.000 A 
ATOM     16  C   UNL     1       2.763   2.604  20.590  0.00  0.00    +0.000 A 
ATOM     17  C   UNL     1       1.498   3.122  20.822  0.00  0.00    +0.000 A 
ATOM     18  C   UNL     1       1.251   4.470  20.576  0.00  0.00    +0.000 A 
ATOM     19  C   UNL     1       2.261   5.326  20.082  0.00  0.00    +0.000 A 
BRANCH  14  20
ATOM     20  O   UNL     1       4.527   5.618  19.315  0.00  0.00    +0.000 OA
BRANCH  20  21
ATOM     21  C   UNL     1       5.275   5.095  18.207  0.00  0.00    +0.000 C 
BRANCH  21  23
ATOM     22  C   UNL     1       5.075   6.502  16.143  0.00  0.00    +0.000 C 
ATOM     23  C   UNL     1       4.521   5.299  16.897  0.00  0.00    +0.000 C 
ENDBRANCH  21  23
ENDBRANCH  20  21
ENDBRANCH  14  20
ENDBRANCH   1  19
TORSDOF 4
ENDMDL
MODEL 5
REMARK VINA RESULT:      -7.4      2.999      5.801
REMARK  Name = 
REMARK  7 active torsions:
REMARK  status: ('A' for Active; 'I' for Inactive)
REMARK    1  A    between atoms: C_1  and  C_2
REMARK    2  A    between atoms: C_2  and  C_3
REMARK    3  A    between atoms: C_3  and  O_4
REMARK    4  A    between atoms: O_4  and  C_5
REMARK    5  A    between atoms: C_10  and  C_11
REMARK    6  A    between atoms: C_15  and  C_16
REMARK    7  A    between atoms: N_18  and  C_19
REMARK                            x       y       z     vdW  Elec       q    Type
REMARK                         _______ _______ _______ _____ _____    ______ ____
ROOT
ATOM      1  C   UNL     1       1.977   6.857  19.880  0.00  0.00    +0.000 A 
ATOM      2  N   UNL     1       1.434   7.498  20.884  0.00  0.00    +0.000 NA
ATOM      3  C   UNL     1       1.158   8.801  20.628  0.00  0.00    +0.000 A 
ATOM      4  C   UNL     1       1.392   9.493  19.463  0.00  0.00    +0.000 A 
ATOM      5  C   UNL     1       1.008  10.821  19.719  0.00  0.00    +0.000 A 
ATOM      6  C   UNL     1       1.102  11.999  18.825  0.00  0.00    +0.000 C 
ATOM      7  N   UNL     1       0.526  10.957  20.966  0.00  0.00    +0.000 NA
ATOM      8  N   UNL     1       0.626   9.714  21.495  0.00  0.00    +0.000 N 
ATOM      9  C   UNL     1       0.218   9.477  22.858  0.00  0.00    +0.000 C 
ATOM     10  C   UNL     1       1.957   8.782  18.352  0.00  0.00    +0.000 A 
ATOM     11  O   UNL     1       2.203   9.280  17.259  0.00  0.00    +0.000 OA
ATOM     12  N   UNL     1       2.211   7.459  18.646  0.00  0.00    +0.000 N 
ATOM     13  H   UNL     1       2.624   6.915  17.899  0.00  0.00    +0.000 HD
ENDROOT
BRANCH   1  19
ATOM     14  C   UNL     1       3.646   4.897  19.576  0.00  0.00    +0.000 A 
ATOM     15  C   UNL     1       3.955   3.556  19.871  0.00  0.00    +0.000 A 
ATOM     16  C   UNL     1       3.070   2.742  20.577  0.00  0.00    +0.000 A 
ATOM     17  C   UNL     1       1.853   3.252  21.005  0.00  0.00    +0.000 A 
ATOM     18  C   UNL     1       1.533   4.581  20.741  0.00  0.00    +0.000 A 
ATOM     19  C   UNL     1       2.417   5.426  20.033  0.00  0.00    +0.000 A 
BRANCH  14  20
ATOM     20  O   UNL     1       4.503   5.712  18.861  0.00  0.00    +0.000 OA
BRANCH  20  21
ATOM     21  C   UNL     1       5.688   5.081  18.351  0.00  0.00    +0.000 C 
BRANCH  21  23
ATOM     22  C   UNL     1       7.638   6.650  18.226  0.00  0.00    +0.000 C 
ATOM     23  C   UNL     1       6.930   5.597  19.070  0.00  0.00    +0.000 C 
ENDBRANCH  21  23
ENDBRANCH  20  21
ENDBRANCH  14  20
ENDBRANCH   1  19
TORSDOF 4
ENDMDL
MODEL 6
REMARK VINA RESULT:      -7.2      2.024      3.195
REMARK  Name = 
REMARK  7 active torsions:
REMARK  status: ('A' for Active; 'I' for Inactive)
REMARK    1  A    between atoms: C_1  and  C_2
REMARK    2  A    between atoms: C_2  and  C_3
REMARK    3  A    between atoms: C_3  and  O_4
REMARK    4  A    between atoms: O_4  and  C_5
REMARK    5  A    between atoms: C_10  and  C_11
REMARK    6  A    between atoms: C_15  and  C_16
REMARK    7  A    between atoms: N_18  and  C_19
REMARK                            x       y       z     vdW  Elec       q    Type
REMARK                         _______ _______ _______ _____ _____    ______ ____
ROOT
ATOM      1  C   UNL     1       3.931   6.201  17.683  0.00  0.00    +0.000 A 
ATOM      2  N   UNL     1       3.460   5.526  18.702  0.00  0.00    +0.000 NA
ATOM      3  C   UNL     1       2.588   6.221  19.473  0.00  0.00    +0.000 A 
ATOM      4  C   UNL     1       2.171   7.520  19.303  0.00  0.00    +0.000 A 
ATOM      5  C   UNL     1       1.334   7.804  20.397  0.00  0.00    +0.000 A 
ATOM      6  C   UNL     1       0.659   9.078  20.738  0.00  0.00    +0.000 C 
ATOM      7  N   UNL     1       1.201   6.734  21.198  0.00  0.00    +0.000 NA
ATOM      8  N   UNL     1       1.971   5.786  20.613  0.00  0.00    +0.000 N 
ATOM      9  C   UNL     1       2.095   4.484  21.220  0.00  0.00    +0.000 C 
ATOM     10  C   UNL     1       2.661   8.248  18.168  0.00  0.00    +0.000 A 
ATOM     11  O   UNL     1       2.358   9.405  17.898  0.00  0.00    +0.000 OA
ATOM     12  N   UNL     1       3.534   7.505  17.401  0.00  0.00    +0.000 N 
ATOM     13  H   UNL     1       3.922   7.978  16.594  0.00  0.00    +0.000 HD
ENDROOT
BRANCH   1  19
ATOM     14  C   UNL     1       6.199   6.205  16.428  0.00  0.00    +0.000 A 
ATOM     15  C   UNL     1       7.112   5.477  15.643  0.00  0.00    +0.000 A 
ATOM     16  C   UNL     1       6.821   4.191  15.189  0.00  0.00    +0.000 A 
ATOM     17  C   UNL     1       5.608   3.602  15.513  0.00  0.00    +0.000 A 
ATOM     18  C   UNL     1       4.696   4.295  16.305  0.00  0.00    +0.000 A 
ATOM     19  C   UNL     1       4.973   5.596  16.780  0.00  0.00    +0.000 A 
BRANCH  14  20
ATOM     20  O   UNL     1       6.463   7.488  16.869  0.00  0.00    +0.000 OA
BRANCH  20  21
ATOM     21  C   UNL     1       7.658   7.648  17.649  0.00  0.00    +0.000 C 
BRANCH  21  23
ATOM     22  C   UNL     1       8.882   9.410  18.945  0.00  0.00    +0.000 C 
ATOM     23  C   UNL     1       8.100   9.108  17.673  0.00  0.00    +0.000 C 
ENDBRANCH  21  23
ENDBRANCH  20  21
ENDBRANCH  14  20
ENDBRANCH   1  19
TORSDOF 4
ENDMDL
MODEL 7
REMARK VINA RESULT:      -7.2      4.152      6.858
REMARK  Name = 
REMARK  7 active torsions:
REMARK  status: ('A' for Active; 'I' for Inactive)
REMARK    1  A    between atoms: C_1  and  C_2
REMARK    2  A    between atoms: C_2  and  C_3
REMARK    3  A    between atoms: C_3  and  O_4
REMARK    4  A    between atoms: O_4  and  C_5
REMARK    5  A    between atoms: C_10  and  C_11
REMARK    6  A    between atoms: C_15  and  C_16
REMARK    7  A    between atoms: N_18  and  C_19
REMARK                            x       y       z     vdW  Elec       q    Type
REMARK                         _______ _______ _______ _____ _____    ______ ____
ROOT
ATOM      1  C   UNL     1       1.615   8.512  19.860  0.00  0.00    +0.000 A 
ATOM      2  N   UNL     1       0.819   9.311  19.195  0.00  0.00    +0.000 NA
ATOM      3  C   UNL     1       0.078  10.134  19.977  0.00  0.00    +0.000 A 
ATOM      4  C   UNL     1       0.074  10.206  21.350  0.00  0.00    +0.000 A 
ATOM      5  C   UNL     1      -0.912  11.151  21.685  0.00  0.00    +0.000 A 
ATOM      6  C   UNL     1      -1.369  11.573  23.029  0.00  0.00    +0.000 C 
ATOM      7  N   UNL     1      -1.477  11.675  20.584  0.00  0.00    +0.000 NA
ATOM      8  N   UNL     1      -0.856  11.043  19.561  0.00  0.00    +0.000 N 
ATOM      9  C   UNL     1      -1.230  11.336  18.200  0.00  0.00    +0.000 C 
ATOM     10  C   UNL     1       0.970   9.354  22.078  0.00  0.00    +0.000 A 
ATOM     11  O   UNL     1       1.069   9.328  23.299  0.00  0.00    +0.000 OA
ATOM     12  N   UNL     1       1.714   8.541  21.249  0.00  0.00    +0.000 N 
ATOM     13  H   UNL     1       2.353   7.907  21.714  0.00  0.00    +0.000 HD
ENDROOT
BRANCH   1  19
ATOM     14  C   UNL     1       2.541   6.117  19.503  0.00  0.00    +0.000 A 
ATOM     15  C   UNL     1       3.286   5.253  18.678  0.00  0.00    +0.000 A 
ATOM     16  C   UNL     1       3.939   5.717  17.537  0.00  0.00    +0.000 A 
ATOM     17  C   UNL     1       3.862   7.058  17.193  0.00  0.00    +0.000 A 
ATOM     18  C   UNL     1       3.116   7.929  17.983  0.00  0.00    +0.000 A 
ATOM     19  C   UNL     1       2.441   7.480  19.140  0.00  0.00    +0.000 A 
BRANCH  14  20
ATOM     20  O   UNL     1       1.904   5.678  20.648  0.00  0.00    +0.000 OA
BRANCH  20  21
ATOM     21  C   UNL     1       2.159   4.316  21.024  0.00  0.00    +0.000 C 
BRANCH  21  23
ATOM     22  C   UNL     1       1.346   2.416  19.608  0.00  0.00    +0.000 C 
ATOM     23  C   UNL     1       0.968   3.426  20.684  0.00  0.00    +0.000 C 
ENDBRANCH  21  23
ENDBRANCH  20  21
ENDBRANCH  14  20
ENDBRANCH   1  19
TORSDOF 4
ENDMDL
MODEL 8
REMARK VINA RESULT:      -7.2      2.699      6.441
REMARK  Name = 
REMARK  7 active torsions:
REMARK  status: ('A' for Active; 'I' for Inactive)
REMARK    1  A    between atoms: C_1  and  C_2
REMARK    2  A    between atoms: C_2  and  C_3
REMARK    3  A    between atoms: C_3  and  O_4
REMARK    4  A    between atoms: O_4  and  C_5
REMARK    5  A    between atoms: C_10  and  C_11
REMARK    6  A    between atoms: C_15  and  C_16
REMARK    7  A    between atoms: N_18  and  C_19
REMARK                            x       y       z     vdW  Elec       q    Type
REMARK                         _______ _______ _______ _____ _____    ______ ____
ROOT
ATOM      1  C   UNL     1       4.865   4.196  16.133  0.00  0.00    +0.000 A 
ATOM      2  N   UNL     1       4.853   3.641  14.947  0.00  0.00    +0.000 NA
ATOM      3  C   UNL     1       5.868   4.035  14.139  0.00  0.00    +0.000 A 
ATOM      4  C   UNL     1       6.868   4.933  14.428  0.00  0.00    +0.000 A 
ATOM      5  C   UNL     1       7.624   5.062  13.249  0.00  0.00    +0.000 A 
ATOM      6  C   UNL     1       8.785   5.944  12.987  0.00  0.00    +0.000 C 
ATOM      7  N   UNL     1       7.150   4.264  12.277  0.00  0.00    +0.000 NA
ATOM      8  N   UNL     1       6.086   3.649  12.845  0.00  0.00    +0.000 N 
ATOM      9  C   UNL     1       5.296   2.719  12.076  0.00  0.00    +0.000 C 
ATOM     10  C   UNL     1       6.900   5.517  15.738  0.00  0.00    +0.000 A 
ATOM     11  O   UNL     1       7.742   6.320  16.122  0.00  0.00    +0.000 OA
ATOM     12  N   UNL     1       5.861   5.083  16.534  0.00  0.00    +0.000 N 
ATOM     13  H   UNL     1       5.829   5.477  17.467  0.00  0.00    +0.000 HD
ENDROOT
BRANCH   1  19
ATOM     14  C   UNL     1       3.020   4.915  17.806  0.00  0.00    +0.000 A 
ATOM     15  C   UNL     1       1.953   4.508  18.629  0.00  0.00    +0.000 A 
ATOM     16  C   UNL     1       1.633   3.161  18.796  0.00  0.00    +0.000 A 
ATOM     17  C   UNL     1       2.372   2.188  18.140  0.00  0.00    +0.000 A 
ATOM     18  C   UNL     1       3.420   2.567  17.305  0.00  0.00    +0.000 A 
ATOM     19  C   UNL     1       3.758   3.925  17.117  0.00  0.00    +0.000 A 
BRANCH  14  20
ATOM     20  O   UNL     1       3.363   6.243  17.644  0.00  0.00    +0.000 OA
BRANCH  20  21
ATOM     21  C   UNL     1       2.573   7.189  18.382  0.00  0.00    +0.000 C 
BRANCH  21  23
ATOM     22  C   UNL     1       1.323   9.330  18.017  0.00  0.00    +0.000 C 
ATOM     23  C   UNL     1       2.603   8.560  17.715  0.00  0.00    +0.000 C 
ENDBRANCH  21  23
ENDBRANCH  20  21
ENDBRANCH  14  20
ENDBRANCH   1  19
TORSDOF 4
ENDMDL
MODEL 9
REMARK VINA RESULT:      -7.1      3.831      7.743
REMARK  Name = 
REMARK  7 active torsions:
REMARK  status: ('A' for Active; 'I' for Inactive)
REMARK    1  A    between atoms: C_1  and  C_2
REMARK    2  A    between atoms: C_2  and  C_3
REMARK    3  A    between atoms: C_3  and  O_4
REMARK    4  A    between atoms: O_4  and  C_5
REMARK    5  A    between atoms: C_10  and  C_11
REMARK    6  A    between atoms: C_15  and  C_16
REMARK    7  A    between atoms: N_18  and  C_19
REMARK                            x       y       z     vdW  Elec       q    Type
REMARK                         _______ _______ _______ _____ _____    ______ ____
ROOT
ATOM      1  C   UNL     1       1.570   7.839  20.262  0.00  0.00    +0.000 A 
ATOM      2  N   UNL     1       1.629   6.635  20.774  0.00  0.00    +0.000 NA
ATOM      3  C   UNL     1       2.316   5.743  20.019  0.00  0.00    +0.000 A 
ATOM      4  C   UNL     1       2.928   5.967  18.809  0.00  0.00    +0.000 A 
ATOM      5  C   UNL     1       3.435   4.722  18.396  0.00  0.00    +0.000 A 
ATOM      6  C   UNL     1       4.137   4.381  17.137  0.00  0.00    +0.000 C 
ATOM      7  N   UNL     1       3.187   3.768  19.310  0.00  0.00    +0.000 NA
ATOM      8  N   UNL     1       2.509   4.416  20.287  0.00  0.00    +0.000 N 
ATOM      9  C   UNL     1       2.046   3.691  21.444  0.00  0.00    +0.000 C 
ATOM     10  C   UNL     1       2.892   7.293  18.263  0.00  0.00    +0.000 A 
ATOM     11  O   UNL     1       3.406   7.624  17.201  0.00  0.00    +0.000 OA
ATOM     12  N   UNL     1       2.196   8.174  19.064  0.00  0.00    +0.000 N 
ATOM     13  H   UNL     1       2.127   9.123  18.717  0.00  0.00    +0.000 HD
ENDROOT
BRANCH   1  19
ATOM     14  C   UNL     1       0.031   9.925  20.274  0.00  0.00    +0.000 A 
ATOM     15  C   UNL     1      -0.737  10.818  21.044  0.00  0.00    +0.000 A 
ATOM     16  C   UNL     1      -0.761  10.745  22.436  0.00  0.00    +0.000 A 
ATOM     17  C   UNL     1      -0.017   9.776  23.091  0.00  0.00    +0.000 A 
ATOM     18  C   UNL     1       0.737   8.870  22.350  0.00  0.00    +0.000 A 
ATOM     19  C   UNL     1       0.772   8.921  20.939  0.00  0.00    +0.000 A 
BRANCH  14  20
ATOM     20  O   UNL     1       0.082   9.995  18.894  0.00  0.00    +0.000 OA
BRANCH  20  21
ATOM     21  C   UNL     1      -0.929  10.803  18.270  0.00  0.00    +0.000 C 
BRANCH  21  23
ATOM     22  C   UNL     1      -2.561  10.753  16.370  0.00  0.00    +0.000 C 
ATOM     23  C   UNL     1      -1.900   9.937  17.475  0.00  0.00    +0.000 C 
ENDBRANCH  21  23
ENDBRANCH  20  21
ENDBRANCH  14  20
ENDBRANCH   1  19
TORSDOF 4
ENDMDL
