MODEL 1
REMARK VINA RESULT:      -8.9      0.000      0.000
REMARK  Name = 
REMARK  9 active torsions:
REMARK  status: ('A' for Active; 'I' for Inactive)
REMARK    1  A    between atoms: C_1  and  C_2
REMARK    2  A    between atoms: C_6  and  C_7
REMARK    3  A    between atoms: N_9  and  C_10
REMARK    4  A    between atoms: C_10  and  C_11
REMARK    5  A    between atoms: N_13  and  C_14
REMARK    6  A    between atoms: C_17  and  S_18
REMARK    7  A    between atoms: S_18  and  N_21
REMARK    8  A    between atoms: C_24  and  C_25
REMARK    9  A    between atoms: C_27  and  C_28
REMARK                            x       y       z     vdW  Elec       q    Type
REMARK                         _______ _______ _______ _____ _____    ______ ____
ROOT
ATOM      1  C   UNL     1       2.757   7.242  18.631  0.00  0.00    +0.000 A 
ATOM      2  C   UNL     1       2.196   7.448  19.895  0.00  0.00    +0.000 A 
ATOM      3  C   UNL     1       1.371   8.545  20.147  0.00  0.00    +0.000 A 
ATOM      4  C   UNL     1       1.103   9.453  19.125  0.00  0.00    +0.000 A 
ATOM      5  C   UNL     1       1.623   9.250  17.844  0.00  0.00    +0.000 A 
ATOM      6  C   UNL     1       2.471   8.156  17.608  0.00  0.00    +0.000 A 
ENDROOT
BRANCH   1   9
ATOM      7  C   UNL     1       3.217   4.871  17.998  0.00  0.00    +0.000 C 
ATOM      8  O   UNL     1       2.060   4.487  17.833  0.00  0.00    +0.000 OA
ATOM      9  N   UNL     1       3.615   6.153  18.350  0.00  0.00    +0.000 N 
ATOM     10  H   UNL     1       4.615   6.328  18.408  0.00  0.00    +0.000 HD
BRANCH   7  11
ATOM     11  C   UNL     1       4.361   3.865  17.885  0.00  0.00    +0.000 C 
BRANCH  11  14
ATOM     12  C   UNL     1       5.845   4.603  16.070  0.00  0.00    +0.000 C 
ATOM     13  O   UNL     1       6.394   5.420  16.802  0.00  0.00    +0.000 OA
ATOM     14  N   UNL     1       4.819   3.797  16.511  0.00  0.00    +0.000 N 
ATOM     15  H   UNL     1       4.416   3.088  15.912  0.00  0.00    +0.000 HD
BRANCH  12  21
ATOM     16  C   UNL     1       5.327   2.619  11.442  0.00  0.00    +0.000 C 
ATOM     17  C   UNL     1       6.021   3.541  12.402  0.00  0.00    +0.000 A 
ATOM     18  C   UNL     1       7.117   4.307  11.985  0.00  0.00    +0.000 A 
ATOM     19  C   UNL     1       7.777   5.145  12.883  0.00  0.00    +0.000 A 
ATOM     20  C   UNL     1       7.346   5.225  14.207  0.00  0.00    +0.000 A 
ATOM     21  C   UNL     1       6.247   4.478  14.641  0.00  0.00    +0.000 A 
ATOM     22  C   UNL     1       5.586   3.630  13.737  0.00  0.00    +0.000 A 
ENDBRANCH  12  21
ENDBRANCH  11  14
ENDBRANCH   7  11
ENDBRANCH   1   9
BRANCH   4  23
ATOM     23  S   UNL     1       0.055  10.855  19.472  0.00  0.00    +0.000 S 
ATOM     24  O   UNL     1      -1.317  10.391  19.445  0.00  0.00    +0.000 OA
ATOM     25  O   UNL     1       0.596  11.489  20.657  0.00  0.00    +0.000 OA
BRANCH  23  26
ATOM     26  N   UNL     1       0.370  11.899  18.200  0.00  0.00    +0.000 N 
ATOM     27  C   UNL     1       0.882  13.139  18.576  0.00  0.00    +0.000 A 
ATOM     28  N   UNL     1       2.189  13.234  18.811  0.00  0.00    +0.000 NA
ATOM     29  C   UNL     1       2.644  14.468  19.097  0.00  0.00    +0.000 A 
ATOM     30  C   UNL     1       4.120  14.632  19.305  0.00  0.00    +0.000 C 
ATOM     31  C   UNL     1       1.805  15.566  19.176  0.00  0.00    +0.000 A 
ATOM     32  C   UNL     1       0.463  15.343  18.928  0.00  0.00    +0.000 A 
ATOM     33  C   UNL     1      -0.527  16.467  18.992  0.00  0.00    +0.000 C 
ATOM     34  N   UNL     1      -0.019  14.124  18.611  0.00  0.00    +0.000 NA
ATOM     35  H   UNL     1      -0.472  12.044  17.653  0.00  0.00    +0.000 HD
ENDBRANCH  23  26
ENDBRANCH   4  23
TORSDOF 6
ENDMDL
MODEL 2
REMARK VINA RESULT:      -8.9      2.861      3.546
REMARK  Name = 
REMARK  9 active torsions:
REMARK  status: ('A' for Active; 'I' for Inactive)
REMARK    1  A    between atoms: C_1  and  C_2
REMARK    2  A    between atoms: C_6  and  C_7
REMARK    3  A    between atoms: N_9  and  C_10
REMARK    4  A    between atoms: C_10  and  C_11
REMARK    5  A    between atoms: N_13  and  C_14
REMARK    6  A    between atoms: C_17  and  S_18
REMARK    7  A    between atoms: S_18  and  N_21
REMARK    8  A    between atoms: C_24  and  C_25
REMARK    9  A    between atoms: C_27  and  C_28
REMARK                            x       y       z     vdW  Elec       q    Type
REMARK                         _______ _______ _______ _____ _____    ______ ____
ROOT
ATOM      1  C   UNL     1       2.669   7.609  18.590  0.00  0.00    +0.000 A 
ATOM      2  C   UNL     1       2.079   7.699  19.854  0.00  0.00    +0.000 A 
ATOM      3  C   UNL     1       1.097   8.653  20.124  0.00  0.00    +0.000 A 
ATOM      4  C   UNL     1       0.699   9.534  19.120  0.00  0.00    +0.000 A 
ATOM      5  C   UNL     1       1.249   9.441  17.839  0.00  0.00    +0.000 A 
ATOM      6  C   UNL     1       2.254   8.494  17.584  0.00  0.00    +0.000 A 
ENDROOT
BRANCH   1   9
ATOM      7  C   UNL     1       3.524   5.292  18.223  0.00  0.00    +0.000 C 
ATOM      8  O   UNL     1       2.472   4.673  18.370  0.00  0.00    +0.000 OA
ATOM      9  N   UNL     1       3.684   6.669  18.290  0.00  0.00    +0.000 N 
ATOM     10  H   UNL     1       4.612   7.038  18.105  0.00  0.00    +0.000 HD
BRANCH   7  11
ATOM     11  C   UNL     1       4.824   4.518  18.012  0.00  0.00    +0.000 C 
BRANCH  11  14
ATOM     12  C   UNL     1       6.400   4.544  16.126  0.00  0.00    +0.000 C 
ATOM     13  O   UNL     1       7.347   4.767  16.873  0.00  0.00    +0.000 OA
ATOM     14  N   UNL     1       5.110   4.417  16.594  0.00  0.00    +0.000 N 
ATOM     15  H   UNL     1       4.349   4.176  15.973  0.00  0.00    +0.000 HD
BRANCH  12  21
ATOM     16  C   UNL     1       5.431   2.456  11.617  0.00  0.00    +0.000 C 
ATOM     17  C   UNL     1       6.159   3.455  12.470  0.00  0.00    +0.000 A 
ATOM     18  C   UNL     1       7.103   4.319  11.902  0.00  0.00    +0.000 A 
ATOM     19  C   UNL     1       7.798   5.229  12.696  0.00  0.00    +0.000 A 
ATOM     20  C   UNL     1       7.553   5.284  14.068  0.00  0.00    +0.000 A 
ATOM     21  C   UNL     1       6.605   4.439  14.655  0.00  0.00    +0.000 A 
ATOM     22  C   UNL     1       5.911   3.518  13.853  0.00  0.00    +0.000 A 
ENDBRANCH  12  21
ENDBRANCH  11  14
ENDBRANCH   7  11
ENDBRANCH   1   9
BRANCH   4  23
ATOM     23  S   UNL     1      -0.550  10.753  19.490  0.00  0.00    +0.000 S 
ATOM     24  O   UNL     1      -0.425  11.095  20.892  0.00  0.00    +0.000 OA
ATOM     25  O   UNL     1      -0.442  11.775  18.470  0.00  0.00    +0.000 OA
BRANCH  23  26
ATOM     26  N   UNL     1      -1.985   9.943  19.186  0.00  0.00    +0.000 N 
ATOM     27  C   UNL     1      -2.709  10.426  18.099  0.00  0.00    +0.000 A 
ATOM     28  N   UNL     1      -2.366  10.014  16.881  0.00  0.00    +0.000 NA
ATOM     29  C   UNL     1      -3.145  10.451  15.873  0.00  0.00    +0.000 A 
ATOM     30  C   UNL     1      -2.832   9.958  14.492  0.00  0.00    +0.000 C 
ATOM     31  C   UNL     1      -4.215  11.303  16.082  0.00  0.00    +0.000 A 
ATOM     32  C   UNL     1      -4.467  11.678  17.389  0.00  0.00    +0.000 A 
ATOM     33  C   UNL     1      -5.602  12.601  17.719  0.00  0.00    +0.000 C 
ATOM     34  N   UNL     1      -3.722  11.233  18.423  0.00  0.00    +0.000 NA
ATOM     35  H   UNL     1      -2.576   9.963  20.010  0.00  0.00    +0.000 HD
ENDBRANCH  23  26
ENDBRANCH   4  23
TORSDOF 6
ENDMDL
MODEL 3
REMARK VINA RESULT:      -8.8      2.363      2.911
REMARK  Name = 
REMARK  9 active torsions:
REMARK  status: ('A' for Active; 'I' for Inactive)
REMARK    1  A    between atoms: C_1  and  C_2
REMARK    2  A    between atoms: C_6  and  C_7
REMARK    3  A    between atoms: N_9  and  C_10
REMARK    4  A    between atoms: C_10  and  C_11
REMARK    5  A    between atoms: N_13  and  C_14
REMARK    6  A    between atoms: C_17  and  S_18
REMARK    7  A    between atoms: S_18  and  N_21
REMARK    8  A    between atoms: C_24  and  C_25
REMARK    9  A    between atoms: C_27  and  C_28
REMARK                            x       y       z     vdW  Elec       q    Type
REMARK                         _______ _______ _______ _____ _____    ______ ____
ROOT
ATOM      1  C   UNL     1       2.967   7.047  18.591  0.00  0.00    +0.000 A 
ATOM      2  C   UNL     1       2.737   8.079  17.676  0.00  0.00    +0.000 A 
ATOM      3  C   UNL     1       1.909   9.155  17.999  0.00  0.00    +0.000 A 
ATOM      4  C   UNL     1       1.299   9.203  19.250  0.00  0.00    +0.000 A 
ATOM      5  C   UNL     1       1.541   8.201  20.194  0.00  0.00    +0.000 A 
ATOM      6  C   UNL     1       2.356   7.110  19.851  0.00  0.00    +0.000 A 
ENDROOT
BRANCH   1   9
ATOM      7  C   UNL     1       3.339   4.632  18.074  0.00  0.00    +0.000 C 
ATOM      8  O   UNL     1       2.169   4.252  18.074  0.00  0.00    +0.000 OA
ATOM      9  N   UNL     1       3.782   5.931  18.286  0.00  0.00    +0.000 N 
ATOM     10  H   UNL     1       4.782   6.097  18.213  0.00  0.00    +0.000 HD
BRANCH   7  11
ATOM     11  C   UNL     1       4.458   3.607  17.896  0.00  0.00    +0.000 C 
BRANCH  11  14
ATOM     12  C   UNL     1       5.906   4.383  16.068  0.00  0.00    +0.000 C 
ATOM     13  O   UNL     1       6.486   5.168  16.813  0.00  0.00    +0.000 OA
ATOM     14  N   UNL     1       4.880   3.578  16.509  0.00  0.00    +0.000 N 
ATOM     15  H   UNL     1       4.451   2.895  15.898  0.00  0.00    +0.000 HD
BRANCH  12  21
ATOM     16  C   UNL     1       5.260   2.539  11.399  0.00  0.00    +0.000 C 
ATOM     17  C   UNL     1       5.982   3.430  12.368  0.00  0.00    +0.000 A 
ATOM     18  C   UNL     1       7.069   4.206  11.944  0.00  0.00    +0.000 A 
ATOM     19  C   UNL     1       7.755   5.015  12.849  0.00  0.00    +0.000 A 
ATOM     20  C   UNL     1       7.360   5.057  14.185  0.00  0.00    +0.000 A 
ATOM     21  C   UNL     1       6.270   4.300  14.627  0.00  0.00    +0.000 A 
ATOM     22  C   UNL     1       5.583   3.480  13.715  0.00  0.00    +0.000 A 
ENDBRANCH  12  21
ENDBRANCH  11  14
ENDBRANCH   7  11
ENDBRANCH   1   9
BRANCH   4  23
ATOM     23  S   UNL     1       0.236  10.582  19.638  0.00  0.00    +0.000 S 
ATOM     24  O   UNL     1       0.576  11.662  18.736  0.00  0.00    +0.000 OA
ATOM     25  O   UNL     1      -1.115  10.060  19.686  0.00  0.00    +0.000 OA
BRANCH  23  26
ATOM     26  N   UNL     1       0.646  10.956  21.219  0.00  0.00    +0.000 N 
ATOM     27  C   UNL     1      -0.124  11.963  21.799  0.00  0.00    +0.000 A 
ATOM     28  N   UNL     1      -1.304  11.632  22.318  0.00  0.00    +0.000 NA
ATOM     29  C   UNL     1      -1.973  12.626  22.932  0.00  0.00    +0.000 A 
ATOM     30  C   UNL     1      -3.277  12.282  23.587  0.00  0.00    +0.000 C 
ATOM     31  C   UNL     1      -1.483  13.918  22.994  0.00  0.00    +0.000 A 
ATOM     32  C   UNL     1      -0.253  14.148  22.406  0.00  0.00    +0.000 A 
ATOM     33  C   UNL     1       0.361  15.515  22.417  0.00  0.00    +0.000 C 
ATOM     34  N   UNL     1       0.454  13.166  21.808  0.00  0.00    +0.000 NA
ATOM     35  H   UNL     1       1.624  11.219  21.271  0.00  0.00    +0.000 HD
ENDBRANCH  23  26
ENDBRANCH   4  23
TORSDOF 6
ENDMDL
MODEL 4
REMARK VINA RESULT:      -8.7      1.070      1.070
REMARK  Name = 
REMARK  9 active torsions:
REMARK  status: ('A' for Active; 'I' for Inactive)
REMARK    1  A    between atoms: C_1  and  C_2
REMARK    2  A    between atoms: C_6  and  C_7
REMARK    3  A    between atoms: N_9  and  C_10
REMARK    4  A    between atoms: C_10  and  C_11
REMARK    5  A    between atoms: N_13  and  C_14
REMARK    6  A    between atoms: C_17  and  S_18
REMARK    7  A    between atoms: S_18  and  N_21
REMARK    8  A    between atoms: C_24  and  C_25
REMARK    9  A    between atoms: C_27  and  C_28
REMARK                            x       y       z     vdW  Elec       q    Type
REMARK                         _______ _______ _______ _____ _____    ______ ____
ROOT
ATOM      1  C   UNL     1       2.883   6.639  18.745  0.00  0.00    +0.000 A 
ATOM      2  C   UNL     1       2.223   6.849  19.960  0.00  0.00    +0.000 A 
ATOM      3  C   UNL     1       1.528   8.035  20.206  0.00  0.00    +0.000 A 
ATOM      4  C   UNL     1       1.493   9.027  19.228  0.00  0.00    +0.000 A 
ATOM      5  C   UNL     1       2.115   8.826  17.993  0.00  0.00    +0.000 A 
ATOM      6  C   UNL     1       2.831   7.640  17.765  0.00  0.00    +0.000 A 
ENDROOT
BRANCH   1   9
ATOM      7  C   UNL     1       4.924   5.206  18.860  0.00  0.00    +0.000 C 
ATOM      8  O   UNL     1       5.641   5.945  19.533  0.00  0.00    +0.000 OA
ATOM      9  N   UNL     1       3.615   5.459  18.474  0.00  0.00    +0.000 N 
ATOM     10  H   UNL     1       3.136   4.731  17.952  0.00  0.00    +0.000 HD
BRANCH   7  11
ATOM     11  C   UNL     1       5.501   3.902  18.310  0.00  0.00    +0.000 C 
BRANCH  11  14
ATOM     12  C   UNL     1       6.804   4.255  16.257  0.00  0.00    +0.000 C 
ATOM     13  O   UNL     1       7.828   4.467  16.900  0.00  0.00    +0.000 OA
ATOM     14  N   UNL     1       5.600   3.980  16.866  0.00  0.00    +0.000 N 
ATOM     15  H   UNL     1       4.778   3.751  16.322  0.00  0.00    +0.000 HD
BRANCH  12  21
ATOM     16  C   UNL     1       5.073   2.882  11.703  0.00  0.00    +0.000 C 
ATOM     17  C   UNL     1       6.003   3.687  12.563  0.00  0.00    +0.000 A 
ATOM     18  C   UNL     1       6.959   4.529  11.980  0.00  0.00    +0.000 A 
ATOM     19  C   UNL     1       7.840   5.258  12.777  0.00  0.00    +0.000 A 
ATOM     20  C   UNL     1       7.771   5.153  14.167  0.00  0.00    +0.000 A 
ATOM     21  C   UNL     1       6.816   4.328  14.770  0.00  0.00    +0.000 A 
ATOM     22  C   UNL     1       5.934   3.589  13.964  0.00  0.00    +0.000 A 
ENDBRANCH  12  21
ENDBRANCH  11  14
ENDBRANCH   7  11
ENDBRANCH   1   9
BRANCH   4  23
ATOM     23  S   UNL     1       0.607  10.538  19.568  0.00  0.00    +0.000 S 
ATOM     24  O   UNL     1      -0.806  10.255  19.439  0.00  0.00    +0.000 OA
ATOM     25  O   UNL     1       1.145  11.060  20.808  0.00  0.00    +0.000 OA
BRANCH  23  26
ATOM     26  N   UNL     1       1.133  11.576  18.361  0.00  0.00    +0.000 N 
ATOM     27  C   UNL     1       1.408  12.874  18.786  0.00  0.00    +0.000 A 
ATOM     28  N   UNL     1       2.595  13.117  19.336  0.00  0.00    +0.000 NA
ATOM     29  C   UNL     1       2.839  14.400  19.660  0.00  0.00    +0.000 A 
ATOM     30  C   UNL     1       4.190  14.729  20.222  0.00  0.00    +0.000 C 
ATOM     31  C   UNL     1       1.905  15.402  19.465  0.00  0.00    +0.000 A 
ATOM     32  C   UNL     1       0.698  15.028  18.901  0.00  0.00    +0.000 A 
ATOM     33  C   UNL     1      -0.380  16.039  18.653  0.00  0.00    +0.000 C 
ATOM     34  N   UNL     1       0.436  13.755  18.540  0.00  0.00    +0.000 NA
ATOM     35  H   UNL     1       0.449  11.612  17.613  0.00  0.00    +0.000 HD
ENDBRANCH  23  26
ENDBRANCH   4  23
TORSDOF 6
ENDMDL
MODEL 5
REMARK VINA RESULT:      -8.6      0.525      1.305
REMARK  Name = 
REMARK  9 active torsions:
REMARK  status: ('A' for Active; 'I' for Inactive)
REMARK    1  A    between atoms: C_1  and  C_2
REMARK    2  A    between atoms: C_6  and  C_7
REMARK    3  A    between atoms: N_9  and  C_10
REMARK    4  A    between atoms: C_10  and  C_11
REMARK    5  A    between atoms: N_13  and  C_14
REMARK    6  A    between atoms: C_17  and  S_18
REMARK    7  A    between atoms: S_18  and  N_21
REMARK    8  A    between atoms: C_24  and  C_25
REMARK    9  A    between atoms: C_27  and  C_28
REMARK                            x       y       z     vdW  Elec       q    Type
REMARK                         _______ _______ _______ _____ _____    ______ ____
ROOT
ATOM      1  C   UNL     1       2.553   7.297  18.746  0.00  0.00    +0.000 A 
ATOM      2  C   UNL     1       2.013   7.484  20.022  0.00  0.00    +0.000 A 
ATOM      3  C   UNL     1       1.304   8.644  20.341  0.00  0.00    +0.000 A 
ATOM      4  C   UNL     1       1.133   9.633  19.376  0.00  0.00    +0.000 A 
ATOM      5  C   UNL     1       1.633   9.454  18.083  0.00  0.00    +0.000 A 
ATOM      6  C   UNL     1       2.365   8.295  17.779  0.00  0.00    +0.000 A 
ENDROOT
BRANCH   1   9
ATOM      7  C   UNL     1       2.773   4.950  17.924  0.00  0.00    +0.000 C 
ATOM      8  O   UNL     1       1.588   4.715  17.692  0.00  0.00    +0.000 OA
ATOM      9  N   UNL     1       3.296   6.145  18.398  0.00  0.00    +0.000 N 
ATOM     10  H   UNL     1       4.306   6.201  18.501  0.00  0.00    +0.000 HD
BRANCH   7  11
ATOM     11  C   UNL     1       3.803   3.834  17.759  0.00  0.00    +0.000 C 
BRANCH  11  14
ATOM     12  C   UNL     1       5.670   4.258  16.218  0.00  0.00    +0.000 C 
ATOM     13  O   UNL     1       6.403   4.597  17.142  0.00  0.00    +0.000 OA
ATOM     14  N   UNL     1       4.362   3.876  16.422  0.00  0.00    +0.000 N 
ATOM     15  H   UNL     1       3.788   3.544  15.658  0.00  0.00    +0.000 HD
BRANCH  12  21
ATOM     16  C   UNL     1       8.757   5.989  12.599  0.00  0.00    +0.000 C 
ATOM     17  C   UNL     1       7.635   5.099  13.049  0.00  0.00    +0.000 A 
ATOM     18  C   UNL     1       6.975   4.270  12.133  0.00  0.00    +0.000 A 
ATOM     19  C   UNL     1       5.916   3.463  12.545  0.00  0.00    +0.000 A 
ATOM     20  C   UNL     1       5.508   3.475  13.878  0.00  0.00    +0.000 A 
ATOM     21  C   UNL     1       6.161   4.286  14.813  0.00  0.00    +0.000 A 
ATOM     22  C   UNL     1       7.224   5.104  14.394  0.00  0.00    +0.000 A 
ENDBRANCH  12  21
ENDBRANCH  11  14
ENDBRANCH   7  11
ENDBRANCH   1   9
BRANCH   4  23
ATOM     23  S   UNL     1       0.233  11.111  19.808  0.00  0.00    +0.000 S 
ATOM     24  O   UNL     1      -1.114  10.715  20.161  0.00  0.00    +0.000 OA
ATOM     25  O   UNL     1       1.060  11.835  20.753  0.00  0.00    +0.000 OA
BRANCH  23  26
ATOM     26  N   UNL     1       0.253  12.007  18.392  0.00  0.00    +0.000 N 
ATOM     27  C   UNL     1       0.875  13.249  18.496  0.00  0.00    +0.000 A 
ATOM     28  N   UNL     1       2.202  13.299  18.396  0.00  0.00    +0.000 NA
ATOM     29  C   UNL     1       2.746  14.529  18.427  0.00  0.00    +0.000 A 
ATOM     30  C   UNL     1       4.231  14.634  18.252  0.00  0.00    +0.000 C 
ATOM     31  C   UNL     1       1.982  15.672  18.586  0.00  0.00    +0.000 A 
ATOM     32  C   UNL     1       0.614  15.497  18.696  0.00  0.00    +0.000 A 
ATOM     33  C   UNL     1      -0.299  16.672  18.874  0.00  0.00    +0.000 C 
ATOM     34  N   UNL     1       0.037  14.278  18.639  0.00  0.00    +0.000 NA
ATOM     35  H   UNL     1      -0.694  12.140  18.052  0.00  0.00    +0.000 HD
ENDBRANCH  23  26
ENDBRANCH   4  23
TORSDOF 6
ENDMDL
MODEL 6
REMARK VINA RESULT:      -8.5      1.513      2.195
REMARK  Name = 
REMARK  9 active torsions:
REMARK  status: ('A' for Active; 'I' for Inactive)
REMARK    1  A    between atoms: C_1  and  C_2
REMARK    2  A    between atoms: C_6  and  C_7
REMARK    3  A    between atoms: N_9  and  C_10
REMARK    4  A    between atoms: C_10  and  C_11
REMARK    5  A    between atoms: N_13  and  C_14
REMARK    6  A    between atoms: C_17  and  S_18
REMARK    7  A    between atoms: S_18  and  N_21
REMARK    8  A    between atoms: C_24  and  C_25
REMARK    9  A    between atoms: C_27  and  C_28
REMARK                            x       y       z     vdW  Elec       q    Type
REMARK                         _______ _______ _______ _____ _____    ______ ____
ROOT
ATOM      1  C   UNL     1       1.952   7.629  20.185  0.00  0.00    +0.000 A 
ATOM      2  C   UNL     1       1.467   8.123  21.399  0.00  0.00    +0.000 A 
ATOM      3  C   UNL     1       0.865   9.380  21.476  0.00  0.00    +0.000 A 
ATOM      4  C   UNL     1       0.747  10.157  20.325  0.00  0.00    +0.000 A 
ATOM      5  C   UNL     1       1.192   9.670  19.093  0.00  0.00    +0.000 A 
ATOM      6  C   UNL     1       1.818   8.415  19.032  0.00  0.00    +0.000 A 
ENDROOT
BRANCH   1   9
ATOM      7  C   UNL     1       1.996   5.135  20.303  0.00  0.00    +0.000 C 
ATOM      8  O   UNL     1       0.816   4.934  20.588  0.00  0.00    +0.000 OA
ATOM      9  N   UNL     1       2.589   6.369  20.078  0.00  0.00    +0.000 N 
ATOM     10  H   UNL     1       3.569   6.371  19.809  0.00  0.00    +0.000 HD
BRANCH   7  11
ATOM     11  C   UNL     1       2.962   3.953  20.244  0.00  0.00    +0.000 C 
BRANCH  11  14
ATOM     12  C   UNL     1       3.907   3.791  17.981  0.00  0.00    +0.000 C 
ATOM     13  O   UNL     1       2.943   3.142  17.586  0.00  0.00    +0.000 OA
ATOM     14  N   UNL     1       4.013   4.226  19.284  0.00  0.00    +0.000 N 
ATOM     15  H   UNL     1       4.785   4.809  19.580  0.00  0.00    +0.000 HD
BRANCH  12  21
ATOM     16  C   UNL     1       6.039   3.874  13.391  0.00  0.00    +0.000 C 
ATOM     17  C   UNL     1       6.088   4.158  14.864  0.00  0.00    +0.000 A 
ATOM     18  C   UNL     1       7.239   4.709  15.443  0.00  0.00    +0.000 A 
ATOM     19  C   UNL     1       7.295   4.950  16.815  0.00  0.00    +0.000 A 
ATOM     20  C   UNL     1       6.199   4.643  17.621  0.00  0.00    +0.000 A 
ATOM     21  C   UNL     1       5.036   4.104  17.062  0.00  0.00    +0.000 A 
ATOM     22  C   UNL     1       4.984   3.856  15.680  0.00  0.00    +0.000 A 
ENDBRANCH  12  21
ENDBRANCH  11  14
ENDBRANCH   7  11
ENDBRANCH   1   9
BRANCH   4  23
ATOM     23  S   UNL     1      -0.017  11.765  20.448  0.00  0.00    +0.000 S 
ATOM     24  O   UNL     1      -1.408  11.562  20.794  0.00  0.00    +0.000 OA
ATOM     25  O   UNL     1       0.844  12.566  21.294  0.00  0.00    +0.000 OA
BRANCH  23  26
ATOM     26  N   UNL     1       0.141  12.389  18.901  0.00  0.00    +0.000 N 
ATOM     27  C   UNL     1       0.704  13.662  18.840  0.00  0.00    +0.000 A 
ATOM     28  N   UNL     1       2.031  13.766  18.880  0.00  0.00    +0.000 NA
ATOM     29  C   UNL     1       2.525  15.010  18.742  0.00  0.00    +0.000 A 
ATOM     30  C   UNL     1       4.017  15.164  18.716  0.00  0.00    +0.000 C 
ATOM     31  C   UNL     1       1.709  16.118  18.599  0.00  0.00    +0.000 A 
ATOM     32  C   UNL     1       0.345  15.891  18.588  0.00  0.00    +0.000 A 
ATOM     33  C   UNL     1      -0.622  17.027  18.442  0.00  0.00    +0.000 C 
ATOM     34  N   UNL     1      -0.179  14.652  18.695  0.00  0.00    +0.000 NA
ATOM     35  H   UNL     1      -0.762  12.406  18.439  0.00  0.00    +0.000 HD
ENDBRANCH  23  26
ENDBRANCH   4  23
TORSDOF 6
ENDMDL
MODEL 7
REMARK VINA RESULT:      -8.5      2.436      3.205
REMARK  Name = 
REMARK  9 active torsions:
REMARK  status: ('A' for Active; 'I' for Inactive)
REMARK    1  A    between atoms: C_1  and  C_2
REMARK    2  A    between atoms: C_6  and  C_7
REMARK    3  A    between atoms: N_9  and  C_10
REMARK    4  A    between atoms: C_10  and  C_11
REMARK    5  A    between atoms: N_13  and  C_14
REMARK    6  A    between atoms: C_17  and  S_18
REMARK    7  A    between atoms: S_18  and  N_21
REMARK    8  A    between atoms: C_24  and  C_25
REMARK    9  A    between atoms: C_27  and  C_28
REMARK                            x       y       z     vdW  Elec       q    Type
REMARK                         _______ _______ _______ _____ _____    ______ ____
ROOT
ATOM      1  C   UNL     1       2.649   7.155  18.589  0.00  0.00    +0.000 A 
ATOM      2  C   UNL     1       2.417   8.158  17.643  0.00  0.00    +0.000 A 
ATOM      3  C   UNL     1       1.678   9.297  17.967  0.00  0.00    +0.000 A 
ATOM      4  C   UNL     1       1.160   9.438  19.253  0.00  0.00    +0.000 A 
ATOM      5  C   UNL     1       1.408   8.466  20.226  0.00  0.00    +0.000 A 
ATOM      6  C   UNL     1       2.132   7.313  19.883  0.00  0.00    +0.000 A 
ENDROOT
BRANCH   1   9
ATOM      7  C   UNL     1       2.827   4.746  17.957  0.00  0.00    +0.000 C 
ATOM      8  O   UNL     1       1.630   4.490  17.834  0.00  0.00    +0.000 OA
ATOM      9  N   UNL     1       3.374   5.978  18.286  0.00  0.00    +0.000 N 
ATOM     10  H   UNL     1       4.388   6.044  18.308  0.00  0.00    +0.000 HD
BRANCH   7  11
ATOM     11  C   UNL     1       3.850   3.622  17.811  0.00  0.00    +0.000 C 
BRANCH  11  14
ATOM     12  C   UNL     1       5.587   4.325  16.221  0.00  0.00    +0.000 C 
ATOM     13  O   UNL     1       6.182   4.952  17.092  0.00  0.00    +0.000 OA
ATOM     14  N   UNL     1       4.417   3.645  16.477  0.00  0.00    +0.000 N 
ATOM     15  H   UNL     1       3.970   3.085  15.763  0.00  0.00    +0.000 HD
BRANCH  12  21
ATOM     16  C   UNL     1       8.727   5.928  12.588  0.00  0.00    +0.000 C 
ATOM     17  C   UNL     1       7.594   5.059  13.052  0.00  0.00    +0.000 A 
ATOM     18  C   UNL     1       6.939   4.208  12.153  0.00  0.00    +0.000 A 
ATOM     19  C   UNL     1       5.870   3.419  12.576  0.00  0.00    +0.000 A 
ATOM     20  C   UNL     1       5.447   3.473  13.904  0.00  0.00    +0.000 A 
ATOM     21  C   UNL     1       6.095   4.308  14.821  0.00  0.00    +0.000 A 
ATOM     22  C   UNL     1       7.168   5.106  14.391  0.00  0.00    +0.000 A 
ENDBRANCH  12  21
ENDBRANCH  11  14
ENDBRANCH   7  11
ENDBRANCH   1   9
BRANCH   4  23
ATOM     23  S   UNL     1       0.209  10.896  19.642  0.00  0.00    +0.000 S 
ATOM     24  O   UNL     1       0.667  11.961  18.774  0.00  0.00    +0.000 OA
ATOM     25  O   UNL     1      -1.183  10.492  19.642  0.00  0.00    +0.000 OA
BRANCH  23  26
ATOM     26  N   UNL     1       0.604  11.202  21.242  0.00  0.00    +0.000 N 
ATOM     27  C   UNL     1      -0.202  12.147  21.872  0.00  0.00    +0.000 A 
ATOM     28  N   UNL     1      -1.370  11.747  22.369  0.00  0.00    +0.000 NA
ATOM     29  C   UNL     1      -2.075  12.682  23.033  0.00  0.00    +0.000 A 
ATOM     30  C   UNL     1      -3.367  12.256  23.666  0.00  0.00    +0.000 C 
ATOM     31  C   UNL     1      -1.633  13.986  23.164  0.00  0.00    +0.000 A 
ATOM     32  C   UNL     1      -0.412  14.291  22.592  0.00  0.00    +0.000 A 
ATOM     33  C   UNL     1       0.151  15.678  22.676  0.00  0.00    +0.000 C 
ATOM     34  N   UNL     1       0.331  13.369  21.945  0.00  0.00    +0.000 NA
ATOM     35  H   UNL     1       1.572  11.497  21.310  0.00  0.00    +0.000 HD
ENDBRANCH  23  26
ENDBRANCH   4  23
TORSDOF 6
ENDMDL
MODEL 8
REMARK VINA RESULT:      -8.4      1.052      1.749
REMARK  Name = 
REMARK  9 active torsions:
REMARK  status: ('A' for Active; 'I' for Inactive)
REMARK    1  A    between atoms: C_1  and  C_2
REMARK    2  A    between atoms: C_6  and  C_7
REMARK    3  A    between atoms: N_9  and  C_10
REMARK    4  A    between atoms: C_10  and  C_11
REMARK    5  A    between atoms: N_13  and  C_14
REMARK    6  A    between atoms: C_17  and  S_18
REMARK    7  A    between atoms: S_18  and  N_21
REMARK    8  A    between atoms: C_24  and  C_25
REMARK    9  A    between atoms: C_27  and  C_28
REMARK                            x       y       z     vdW  Elec       q    Type
REMARK                         _______ _______ _______ _____ _____    ______ ____
ROOT
ATOM      1  C   UNL     1       3.267   6.992  18.566  0.00  0.00    +0.000 A 
ATOM      2  C   UNL     1       2.566   6.978  19.776  0.00  0.00    +0.000 A 
ATOM      3  C   UNL     1       1.621   7.962  20.073  0.00  0.00    +0.000 A 
ATOM      4  C   UNL     1       1.372   8.977  19.151  0.00  0.00    +0.000 A 
ATOM      5  C   UNL     1       2.034   8.993  17.920  0.00  0.00    +0.000 A 
ATOM      6  C   UNL     1       3.000   8.012  17.642  0.00  0.00    +0.000 A 
ENDROOT
BRANCH   1   9
ATOM      7  C   UNL     1       4.122   4.652  18.411  0.00  0.00    +0.000 C 
ATOM      8  O   UNL     1       3.129   4.055  18.823  0.00  0.00    +0.000 OA
ATOM      9  N   UNL     1       4.247   6.024  18.245  0.00  0.00    +0.000 N 
ATOM     10  H   UNL     1       5.121   6.366  17.854  0.00  0.00    +0.000 HD
BRANCH   7  11
ATOM     11  C   UNL     1       5.394   3.863  18.104  0.00  0.00    +0.000 C 
BRANCH  11  14
ATOM     12  C   UNL     1       6.540   4.589  16.055  0.00  0.00    +0.000 C 
ATOM     13  O   UNL     1       7.227   5.391  16.680  0.00  0.00    +0.000 OA
ATOM     14  N   UNL     1       5.595   3.797  16.670  0.00  0.00    +0.000 N 
ATOM     15  H   UNL     1       5.078   3.100  16.150  0.00  0.00    +0.000 HD
BRANCH  12  21
ATOM     16  C   UNL     1       5.264   2.542  11.605  0.00  0.00    +0.000 C 
ATOM     17  C   UNL     1       6.081   3.502  12.419  0.00  0.00    +0.000 A 
ATOM     18  C   UNL     1       7.045   4.312  11.806  0.00  0.00    +0.000 A 
ATOM     19  C   UNL     1       7.822   5.186  12.564  0.00  0.00    +0.000 A 
ATOM     20  C   UNL     1       7.641   5.260  13.945  0.00  0.00    +0.000 A 
ATOM     21  C   UNL     1       6.675   4.469  14.577  0.00  0.00    +0.000 A 
ATOM     22  C   UNL     1       5.898   3.584  13.811  0.00  0.00    +0.000 A 
ENDBRANCH  12  21
ENDBRANCH  11  14
ENDBRANCH   7  11
ENDBRANCH   1   9
BRANCH   4  23
ATOM     23  S   UNL     1       0.168  10.229  19.555  0.00  0.00    +0.000 S 
ATOM     24  O   UNL     1      -0.322  10.782  18.310  0.00  0.00    +0.000 OA
ATOM     25  O   UNL     1      -0.746   9.629  20.506  0.00  0.00    +0.000 OA
BRANCH  23  26
ATOM     26  N   UNL     1       1.057  11.360  20.415  0.00  0.00    +0.000 N 
ATOM     27  C   UNL     1       0.966  12.664  19.932  0.00  0.00    +0.000 A 
ATOM     28  N   UNL     1      -0.082  13.398  20.297  0.00  0.00    +0.000 NA
ATOM     29  C   UNL     1      -0.083  14.673  19.864  0.00  0.00    +0.000 A 
ATOM     30  C   UNL     1      -1.213  15.554  20.306  0.00  0.00    +0.000 C 
ATOM     31  C   UNL     1       0.924  15.183  19.064  0.00  0.00    +0.000 A 
ATOM     32  C   UNL     1       1.956  14.321  18.735  0.00  0.00    +0.000 A 
ATOM     33  C   UNL     1       3.091  14.778  17.870  0.00  0.00    +0.000 C 
ATOM     34  N   UNL     1       1.998  13.047  19.177  0.00  0.00    +0.000 NA
ATOM     35  H   UNL     1       2.033  11.086  20.443  0.00  0.00    +0.000 HD
ENDBRANCH  23  26
ENDBRANCH   4  23
TORSDOF 6
ENDMDL
MODEL 9
REMARK VINA RESULT:      -8.4      3.531      9.449
REMARK  Name = 
REMARK  9 active torsions:
REMARK  status: ('A' for Active; 'I' for Inactive)
REMARK    1  A    between atoms: C_1  and  C_2
REMARK    2  A    between atoms: C_6  and  C_7
REMARK    3  A    between atoms: N_9  and  C_10
REMARK    4  A    between atoms: C_10  and  C_11
REMARK    5  A    between atoms: N_13  and  C_14
REMARK    6  A    between atoms: C_17  and  S_18
REMARK    7  A    between atoms: S_18  and  N_21
REMARK    8  A    between atoms: C_24  and  C_25
REMARK    9  A    between atoms: C_27  and  C_28
REMARK                            x       y       z     vdW  Elec       q    Type
REMARK                         _______ _______ _______ _____ _____    ______ ____
ROOT
ATOM      1  C   UNL     1       2.106   6.997  19.017  0.00  0.00    +0.000 A 
ATOM      2  C   UNL     1       3.019   6.476  19.939  0.00  0.00    +0.000 A 
ATOM      3  C   UNL     1       3.447   5.150  19.857  0.00  0.00    +0.000 A 
ATOM      4  C   UNL     1       2.955   4.329  18.845  0.00  0.00    +0.000 A 
ATOM      5  C   UNL     1       2.068   4.837  17.891  0.00  0.00    +0.000 A 
ATOM      6  C   UNL     1       1.626   6.165  17.996  0.00  0.00    +0.000 A 
ENDROOT
BRANCH   1   9
ATOM      7  C   UNL     1       1.998   9.367  18.240  0.00  0.00    +0.000 C 
ATOM      8  O   UNL     1       2.753   9.288  17.272  0.00  0.00    +0.000 OA
ATOM      9  N   UNL     1       1.634   8.329  19.086  0.00  0.00    +0.000 N 
ATOM     10  H   UNL     1       0.965   8.543  19.821  0.00  0.00    +0.000 HD
BRANCH   7  11
ATOM     11  C   UNL     1       1.432  10.730  18.636  0.00  0.00    +0.000 C 
BRANCH  11  14
ATOM     12  C   UNL     1      -1.017  10.551  18.559  0.00  0.00    +0.000 C 
ATOM     13  O   UNL     1      -1.046   9.985  19.648  0.00  0.00    +0.000 OA
ATOM     14  N   UNL     1       0.163  10.946  17.969  0.00  0.00    +0.000 N 
ATOM     15  H   UNL     1       0.167  11.463  17.100  0.00  0.00    +0.000 HD
BRANCH  12  21
ATOM     16  C   UNL     1      -3.856  10.223  14.381  0.00  0.00    +0.000 C 
ATOM     17  C   UNL     1      -3.667  10.655  15.806  0.00  0.00    +0.000 A 
ATOM     18  C   UNL     1      -4.679  11.354  16.476  0.00  0.00    +0.000 A 
ATOM     19  C   UNL     1      -4.494  11.779  17.791  0.00  0.00    +0.000 A 
ATOM     20  C   UNL     1      -3.295  11.507  18.449  0.00  0.00    +0.000 A 
ATOM     21  C   UNL     1      -2.276  10.799  17.802  0.00  0.00    +0.000 A 
ATOM     22  C   UNL     1      -2.462  10.378  16.475  0.00  0.00    +0.000 A 
ENDBRANCH  12  21
ENDBRANCH  11  14
ENDBRANCH   7  11
ENDBRANCH   1   9
BRANCH   4  23
ATOM     23  S   UNL     1       3.508   2.635  18.766  0.00  0.00    +0.000 S 
ATOM     24  O   UNL     1       3.974   2.266  20.085  0.00  0.00    +0.000 OA
ATOM     25  O   UNL     1       2.446   1.886  18.123  0.00  0.00    +0.000 OA
BRANCH  23  26
ATOM     26  N   UNL     1       4.771   2.689  17.666  0.00  0.00    +0.000 N 
ATOM     27  C   UNL     1       5.398   3.929  17.557  0.00  0.00    +0.000 A 
ATOM     28  N   UNL     1       6.332   4.242  18.452  0.00  0.00    +0.000 NA
ATOM     29  C   UNL     1       6.958   5.417  18.258  0.00  0.00    +0.000 A 
ATOM     30  C   UNL     1       8.063   5.778  19.206  0.00  0.00    +0.000 C 
ATOM     31  C   UNL     1       6.633   6.264  17.214  0.00  0.00    +0.000 A 
ATOM     32  C   UNL     1       5.635   5.841  16.355  0.00  0.00    +0.000 A 
ATOM     33  C   UNL     1       5.208   6.690  15.196  0.00  0.00    +0.000 C 
ATOM     34  N   UNL     1       5.008   4.656  16.508  0.00  0.00    +0.000 NA
ATOM     35  H   UNL     1       4.445   2.403  16.749  0.00  0.00    +0.000 HD
ENDBRANCH  23  26
ENDBRANCH   4  23
TORSDOF 6
ENDMDL
