MODEL 1
REMARK VINA RESULT:      -8.2      0.000      0.000
REMARK  Name = 
REMARK  3 active torsions:
REMARK  status: ('A' for Active; 'I' for Inactive)
REMARK    1  A    between atoms: C_2  and  C_5
REMARK    2  A    between atoms: C_7  and  C_8
REMARK    3  A    between atoms: N_15  and  C_16
REMARK                            x       y       z     vdW  Elec       q    Type
REMARK                         _______ _______ _______ _____ _____    ______ ____
ROOT
ATOM      1  C   UNL     1       2.759   3.838  20.105  0.00  0.00    +0.000 A 
ATOM      2  C   UNL     1       2.195   5.083  19.908  0.00  0.00    +0.000 A 
ATOM      3  C   UNL     1       2.840   5.908  19.020  0.00  0.00    +0.000 A 
ATOM      4  N   UNL     1       3.941   5.530  18.349  0.00  0.00    +0.000 NA
ATOM      5  C   UNL     1       4.447   4.320  18.594  0.00  0.00    +0.000 A 
ATOM      6  N   UNL     1       5.622   3.935  17.953  0.00  0.00    +0.000 N 
ATOM      7  N   UNL     1       3.903   3.461  19.468  0.00  0.00    +0.000 NA
ATOM      8  H   UNL     1       5.918   3.026  18.284  0.00  0.00    +0.000 HD
ENDROOT
BRANCH   6   9
ATOM      9  C   UNL     1       5.999   4.217  16.629  0.00  0.00    +0.000 A 
ATOM     10  C   UNL     1       7.224   4.850  16.384  0.00  0.00    +0.000 A 
ATOM     11  C   UNL     1       7.623   5.163  15.082  0.00  0.00    +0.000 A 
ATOM     12  C   UNL     1       6.811   4.826  14.001  0.00  0.00    +0.000 A 
ATOM     13  C   UNL     1       5.597   4.183  14.225  0.00  0.00    +0.000 A 
ATOM     14  C   UNL     1       5.193   3.888  15.529  0.00  0.00    +0.000 A 
ENDBRANCH   6   9
BRANCH   3  15
ATOM     15  C   UNL     1       2.414   7.273  18.755  0.00  0.00    +0.000 A 
ATOM     16  C   UNL     1       2.568   8.128  17.680  0.00  0.00    +0.000 A 
ATOM     17  C   UNL     1       1.974   9.359  18.049  0.00  0.00    +0.000 A 
ATOM     18  C   UNL     1       1.489   9.179  19.322  0.00  0.00    +0.000 A 
ATOM     19  O   UNL     1       1.744   7.918  19.758  0.00  0.00    +0.000 OA
ENDBRANCH   3  15
BRANCH   1  21
ATOM     20  F   UNL     1       2.941   2.323  21.974  0.00  0.00    +0.000 F 
ATOM     21  C   UNL     1       2.084   2.861  21.055  0.00  0.00    +0.000 C 
ATOM     22  F   UNL     1       1.521   1.797  20.418  0.00  0.00    +0.000 F 
ATOM     23  F   UNL     1       1.088   3.437  21.788  0.00  0.00    +0.000 F 
ENDBRANCH   1  21
TORSDOF 3
ENDMDL
MODEL 2
REMARK VINA RESULT:      -8.2      0.181      1.298
REMARK  Name = 
REMARK  3 active torsions:
REMARK  status: ('A' for Active; 'I' for Inactive)
REMARK    1  A    between atoms: C_2  and  C_5
REMARK    2  A    between atoms: C_7  and  C_8
REMARK    3  A    between atoms: N_15  and  C_16
REMARK                            x       y       z     vdW  Elec       q    Type
REMARK                         _______ _______ _______ _____ _____    ______ ____
ROOT
ATOM      1  C   UNL     1       2.780   3.833  20.145  0.00  0.00    +0.000 A 
ATOM      2  C   UNL     1       2.197   5.067  19.935  0.00  0.00    +0.000 A 
ATOM      3  C   UNL     1       2.853   5.909  19.072  0.00  0.00    +0.000 A 
ATOM      4  N   UNL     1       3.981   5.557  18.434  0.00  0.00    +0.000 NA
ATOM      5  C   UNL     1       4.504   4.356  18.690  0.00  0.00    +0.000 A 
ATOM      6  N   UNL     1       5.706   3.997  18.085  0.00  0.00    +0.000 N 
ATOM      7  N   UNL     1       3.951   3.482  19.543  0.00  0.00    +0.000 NA
ATOM      8  H   UNL     1       6.010   3.094  18.421  0.00  0.00    +0.000 HD
ENDROOT
BRANCH   6   9
ATOM      9  C   UNL     1       6.118   4.293  16.774  0.00  0.00    +0.000 A 
ATOM     10  C   UNL     1       5.478   3.667  15.696  0.00  0.00    +0.000 A 
ATOM     11  C   UNL     1       5.874   3.923  14.380  0.00  0.00    +0.000 A 
ATOM     12  C   UNL     1       6.901   4.827  14.121  0.00  0.00    +0.000 A 
ATOM     13  C   UNL     1       7.539   5.469  15.179  0.00  0.00    +0.000 A 
ATOM     14  C   UNL     1       7.153   5.199  16.494  0.00  0.00    +0.000 A 
ENDBRANCH   6   9
BRANCH   3  15
ATOM     15  C   UNL     1       2.407   7.266  18.798  0.00  0.00    +0.000 A 
ATOM     16  C   UNL     1       2.530   8.109  17.710  0.00  0.00    +0.000 A 
ATOM     17  C   UNL     1       1.931   9.338  18.076  0.00  0.00    +0.000 A 
ATOM     18  C   UNL     1       1.474   9.170  19.361  0.00  0.00    +0.000 A 
ATOM     19  O   UNL     1       1.751   7.917  19.807  0.00  0.00    +0.000 OA
ENDBRANCH   3  15
BRANCH   1  21
ATOM     20  F   UNL     1       1.092   3.393  21.813  0.00  0.00    +0.000 F 
ATOM     21  C   UNL     1       2.096   2.838  21.070  0.00  0.00    +0.000 C 
ATOM     22  F   UNL     1       2.947   2.276  21.974  0.00  0.00    +0.000 F 
ATOM     23  F   UNL     1       1.516   1.802  20.399  0.00  0.00    +0.000 F 
ENDBRANCH   1  21
TORSDOF 3
ENDMDL
MODEL 3
REMARK VINA RESULT:      -7.9      0.617      1.128
REMARK  Name = 
REMARK  3 active torsions:
REMARK  status: ('A' for Active; 'I' for Inactive)
REMARK    1  A    between atoms: C_2  and  C_5
REMARK    2  A    between atoms: C_7  and  C_8
REMARK    3  A    between atoms: N_15  and  C_16
REMARK                            x       y       z     vdW  Elec       q    Type
REMARK                         _______ _______ _______ _____ _____    ______ ____
ROOT
ATOM      1  C   UNL     1       2.782   3.745  20.354  0.00  0.00    +0.000 A 
ATOM      2  C   UNL     1       2.209   4.988  20.174  0.00  0.00    +0.000 A 
ATOM      3  C   UNL     1       2.856   5.835  19.309  0.00  0.00    +0.000 A 
ATOM      4  N   UNL     1       3.967   5.479  18.642  0.00  0.00    +0.000 NA
ATOM      5  C   UNL     1       4.481   4.269  18.871  0.00  0.00    +0.000 A 
ATOM      6  N   UNL     1       5.666   3.906  18.235  0.00  0.00    +0.000 N 
ATOM      7  N   UNL     1       3.936   3.389  19.723  0.00  0.00    +0.000 NA
ATOM      8  H   UNL     1       5.967   2.994  18.553  0.00  0.00    +0.000 HD
ENDROOT
BRANCH   6   9
ATOM      9  C   UNL     1       6.054   4.215  16.920  0.00  0.00    +0.000 A 
ATOM     10  C   UNL     1       7.134   5.082  16.710  0.00  0.00    +0.000 A 
ATOM     11  C   UNL     1       7.536   5.427  15.416  0.00  0.00    +0.000 A 
ATOM     12  C   UNL     1       6.877   4.892  14.312  0.00  0.00    +0.000 A 
ATOM     13  C   UNL     1       5.810   4.017  14.503  0.00  0.00    +0.000 A 
ATOM     14  C   UNL     1       5.400   3.688  15.797  0.00  0.00    +0.000 A 
ENDBRANCH   6   9
BRANCH   3  15
ATOM     15  C   UNL     1       2.421   7.200  19.064  0.00  0.00    +0.000 A 
ATOM     16  C   UNL     1       1.742   8.135  19.823  0.00  0.00    +0.000 A 
ATOM     17  C   UNL     1       1.562   9.274  19.001  0.00  0.00    +0.000 A 
ATOM     18  C   UNL     1       2.146   8.969  17.795  0.00  0.00    +0.000 A 
ATOM     19  O   UNL     1       2.675   7.718  17.823  0.00  0.00    +0.000 OA
ENDBRANCH   3  15
BRANCH   1  21
ATOM     20  F   UNL     1       1.273   3.329  22.191  0.00  0.00    +0.000 F 
ATOM     21  C   UNL     1       2.107   2.744  21.280  0.00  0.00    +0.000 C 
ATOM     22  F   UNL     1       2.991   2.013  22.014  0.00  0.00    +0.000 F 
ATOM     23  F   UNL     1       1.332   1.842  20.611  0.00  0.00    +0.000 F 
ENDBRANCH   1  21
TORSDOF 3
ENDMDL
MODEL 4
REMARK VINA RESULT:      -7.7      4.391      6.783
REMARK  Name = 
REMARK  3 active torsions:
REMARK  status: ('A' for Active; 'I' for Inactive)
REMARK    1  A    between atoms: C_2  and  C_5
REMARK    2  A    between atoms: C_7  and  C_8
REMARK    3  A    between atoms: N_15  and  C_16
REMARK                            x       y       z     vdW  Elec       q    Type
REMARK                         _______ _______ _______ _____ _____    ______ ____
ROOT
ATOM      1  C   UNL     1       7.161   6.776  17.408  0.00  0.00    +0.000 A 
ATOM      2  C   UNL     1       7.192   6.380  16.086  0.00  0.00    +0.000 A 
ATOM      3  C   UNL     1       6.460   5.262  15.770  0.00  0.00    +0.000 A 
ATOM      4  N   UNL     1       5.724   4.598  16.677  0.00  0.00    +0.000 NA
ATOM      5  C   UNL     1       5.748   5.022  17.942  0.00  0.00    +0.000 A 
ATOM      6  N   UNL     1       5.040   4.310  18.908  0.00  0.00    +0.000 N 
ATOM      7  N   UNL     1       6.459   6.083  18.348  0.00  0.00    +0.000 NA
ATOM      8  H   UNL     1       5.203   4.708  19.823  0.00  0.00    +0.000 HD
ENDROOT
BRANCH   6   9
ATOM      9  C   UNL     1       3.783   3.697  18.760  0.00  0.00    +0.000 A 
ATOM     10  C   UNL     1       2.689   4.467  18.348  0.00  0.00    +0.000 A 
ATOM     11  C   UNL     1       1.420   3.896  18.209  0.00  0.00    +0.000 A 
ATOM     12  C   UNL     1       1.234   2.539  18.458  0.00  0.00    +0.000 A 
ATOM     13  C   UNL     1       2.314   1.754  18.854  0.00  0.00    +0.000 A 
ATOM     14  C   UNL     1       3.576   2.332  19.010  0.00  0.00    +0.000 A 
ENDBRANCH   6   9
BRANCH   3  15
ATOM     15  C   UNL     1       6.443   4.676  14.439  0.00  0.00    +0.000 A 
ATOM     16  C   UNL     1       5.678   3.694  13.839  0.00  0.00    +0.000 A 
ATOM     17  C   UNL     1       6.186   3.525  12.528  0.00  0.00    +0.000 A 
ATOM     18  C   UNL     1       7.224   4.418  12.405  0.00  0.00    +0.000 A 
ATOM     19  O   UNL     1       7.385   5.125  13.554  0.00  0.00    +0.000 OA
ENDBRANCH   3  15
BRANCH   1  21
ATOM     20  F   UNL     1       8.783   8.478  16.863  0.00  0.00    +0.000 F 
ATOM     21  C   UNL     1       7.929   8.021  17.826  0.00  0.00    +0.000 C 
ATOM     22  F   UNL     1       8.700   7.827  18.933  0.00  0.00    +0.000 F 
ATOM     23  F   UNL     1       7.113   9.076  18.112  0.00  0.00    +0.000 F 
ENDBRANCH   1  21
TORSDOF 3
ENDMDL
MODEL 5
REMARK VINA RESULT:      -7.7      4.394      6.793
REMARK  Name = 
REMARK  3 active torsions:
REMARK  status: ('A' for Active; 'I' for Inactive)
REMARK    1  A    between atoms: C_2  and  C_5
REMARK    2  A    between atoms: C_7  and  C_8
REMARK    3  A    between atoms: N_15  and  C_16
REMARK                            x       y       z     vdW  Elec       q    Type
REMARK                         _______ _______ _______ _____ _____    ______ ____
ROOT
ATOM      1  C   UNL     1       7.185   6.839  17.424  0.00  0.00    +0.000 A 
ATOM      2  C   UNL     1       7.224   6.430  16.107  0.00  0.00    +0.000 A 
ATOM      3  C   UNL     1       6.490   5.312  15.797  0.00  0.00    +0.000 A 
ATOM      4  N   UNL     1       5.746   4.659  16.705  0.00  0.00    +0.000 NA
ATOM      5  C   UNL     1       5.762   5.094  17.966  0.00  0.00    +0.000 A 
ATOM      6  N   UNL     1       5.045   4.394  18.933  0.00  0.00    +0.000 N 
ATOM      7  N   UNL     1       6.474   6.157  18.366  0.00  0.00    +0.000 NA
ATOM      8  H   UNL     1       5.203   4.800  19.846  0.00  0.00    +0.000 HD
ENDROOT
BRANCH   6   9
ATOM      9  C   UNL     1       3.788   3.784  18.783  0.00  0.00    +0.000 A 
ATOM     10  C   UNL     1       3.670   2.400  18.968  0.00  0.00    +0.000 A 
ATOM     11  C   UNL     1       2.440   1.756  18.808  0.00  0.00    +0.000 A 
ATOM     12  C   UNL     1       1.303   2.492  18.483  0.00  0.00    +0.000 A 
ATOM     13  C   UNL     1       1.398   3.870  18.310  0.00  0.00    +0.000 A 
ATOM     14  C   UNL     1       2.632   4.508  18.453  0.00  0.00    +0.000 A 
ENDBRANCH   6   9
BRANCH   3  15
ATOM     15  C   UNL     1       6.481   4.713  14.471  0.00  0.00    +0.000 A 
ATOM     16  C   UNL     1       5.744   3.700  13.887  0.00  0.00    +0.000 A 
ATOM     17  C   UNL     1       6.245   3.536  12.573  0.00  0.00    +0.000 A 
ATOM     18  C   UNL     1       7.251   4.462  12.433  0.00  0.00    +0.000 A 
ATOM     19  O   UNL     1       7.399   5.184  13.573  0.00  0.00    +0.000 OA
ENDBRANCH   3  15
BRANCH   1  21
ATOM     20  F   UNL     1       8.732   7.898  18.944  0.00  0.00    +0.000 F 
ATOM     21  C   UNL     1       7.954   8.085  17.836  0.00  0.00    +0.000 C 
ATOM     22  F   UNL     1       7.144   9.139  18.136  0.00  0.00    +0.000 F 
ATOM     23  F   UNL     1       8.807   8.526  16.868  0.00  0.00    +0.000 F 
ENDBRANCH   1  21
TORSDOF 3
ENDMDL
MODEL 6
REMARK VINA RESULT:      -7.7      4.348      6.517
REMARK  Name = 
REMARK  3 active torsions:
REMARK  status: ('A' for Active; 'I' for Inactive)
REMARK    1  A    between atoms: C_2  and  C_5
REMARK    2  A    between atoms: C_7  and  C_8
REMARK    3  A    between atoms: N_15  and  C_16
REMARK                            x       y       z     vdW  Elec       q    Type
REMARK                         _______ _______ _______ _____ _____    ______ ____
ROOT
ATOM      1  C   UNL     1       5.729   4.333  14.686  0.00  0.00    +0.000 A 
ATOM      2  C   UNL     1       6.639   5.161  15.312  0.00  0.00    +0.000 A 
ATOM      3  C   UNL     1       6.321   5.557  16.588  0.00  0.00    +0.000 A 
ATOM      4  N   UNL     1       5.209   5.145  17.218  0.00  0.00    +0.000 NA
ATOM      5  C   UNL     1       4.361   4.358  16.554  0.00  0.00    +0.000 A 
ATOM      6  N   UNL     1       3.173   3.970  17.169  0.00  0.00    +0.000 N 
ATOM      7  N   UNL     1       4.572   3.949  15.295  0.00  0.00    +0.000 NA
ATOM      8  H   UNL     1       2.606   3.433  16.526  0.00  0.00    +0.000 HD
ENDROOT
BRANCH   6   9
ATOM      9  C   UNL     1       2.986   3.634  18.522  0.00  0.00    +0.000 A 
ATOM     10  C   UNL     1       1.904   4.182  19.222  0.00  0.00    +0.000 A 
ATOM     11  C   UNL     1       1.698   3.886  20.572  0.00  0.00    +0.000 A 
ATOM     12  C   UNL     1       2.561   3.017  21.237  0.00  0.00    +0.000 A 
ATOM     13  C   UNL     1       3.634   2.452  20.553  0.00  0.00    +0.000 A 
ATOM     14  C   UNL     1       3.847   2.764  19.208  0.00  0.00    +0.000 A 
ENDBRANCH   6   9
BRANCH   3  15
ATOM     15  C   UNL     1       7.139   6.482  17.357  0.00  0.00    +0.000 A 
ATOM     16  C   UNL     1       7.814   6.385  18.559  0.00  0.00    +0.000 A 
ATOM     17  C   UNL     1       8.384   7.657  18.809  0.00  0.00    +0.000 A 
ATOM     18  C   UNL     1       8.029   8.449  17.744  0.00  0.00    +0.000 A 
ATOM     19  O   UNL     1       7.280   7.747  16.855  0.00  0.00    +0.000 OA
ENDBRANCH   3  15
BRANCH   1  21
ATOM     20  F   UNL     1       6.432   2.530  13.244  0.00  0.00    +0.000 F 
ATOM     21  C   UNL     1       6.026   3.835  13.280  0.00  0.00    +0.000 C 
ATOM     22  F   UNL     1       7.014   4.539  12.660  0.00  0.00    +0.000 F 
ATOM     23  F   UNL     1       4.941   3.897  12.455  0.00  0.00    +0.000 F 
ENDBRANCH   1  21
TORSDOF 3
ENDMDL
MODEL 7
REMARK VINA RESULT:      -7.6      4.304      6.472
REMARK  Name = 
REMARK  3 active torsions:
REMARK  status: ('A' for Active; 'I' for Inactive)
REMARK    1  A    between atoms: C_2  and  C_5
REMARK    2  A    between atoms: C_7  and  C_8
REMARK    3  A    between atoms: N_15  and  C_16
REMARK                            x       y       z     vdW  Elec       q    Type
REMARK                         _______ _______ _______ _____ _____    ______ ____
ROOT
ATOM      1  C   UNL     1       5.725   4.363  14.715  0.00  0.00    +0.000 A 
ATOM      2  C   UNL     1       6.641   5.189  15.335  0.00  0.00    +0.000 A 
ATOM      3  C   UNL     1       6.325   5.603  16.604  0.00  0.00    +0.000 A 
ATOM      4  N   UNL     1       5.205   5.212  17.236  0.00  0.00    +0.000 NA
ATOM      5  C   UNL     1       4.351   4.426  16.578  0.00  0.00    +0.000 A 
ATOM      6  N   UNL     1       3.156   4.060  17.194  0.00  0.00    +0.000 N 
ATOM      7  N   UNL     1       4.561   3.999  15.325  0.00  0.00    +0.000 NA
ATOM      8  H   UNL     1       2.585   3.521  16.556  0.00  0.00    +0.000 HD
ENDROOT
BRANCH   6   9
ATOM      9  C   UNL     1       2.962   3.742  18.550  0.00  0.00    +0.000 A 
ATOM     10  C   UNL     1       3.785   2.784  19.155  0.00  0.00    +0.000 A 
ATOM     11  C   UNL     1       3.609   2.430  20.496  0.00  0.00    +0.000 A 
ATOM     12  C   UNL     1       2.620   3.046  21.258  0.00  0.00    +0.000 A 
ATOM     13  C   UNL     1       1.802   4.012  20.677  0.00  0.00    +0.000 A 
ATOM     14  C   UNL     1       1.970   4.351  19.332  0.00  0.00    +0.000 A 
ENDBRANCH   6   9
BRANCH   3  15
ATOM     15  C   UNL     1       7.150   6.529  17.364  0.00  0.00    +0.000 A 
ATOM     16  C   UNL     1       7.839   6.432  18.559  0.00  0.00    +0.000 A 
ATOM     17  C   UNL     1       8.411   7.703  18.804  0.00  0.00    +0.000 A 
ATOM     18  C   UNL     1       8.043   8.496  17.743  0.00  0.00    +0.000 A 
ATOM     19  O   UNL     1       7.285   7.794  16.862  0.00  0.00    +0.000 OA
ENDBRANCH   3  15
BRANCH   1  21
ATOM     20  F   UNL     1       6.447   2.546  13.301  0.00  0.00    +0.000 F 
ATOM     21  C   UNL     1       6.020   3.844  13.317  0.00  0.00    +0.000 C 
ATOM     22  F   UNL     1       6.992   4.553  12.677  0.00  0.00    +0.000 F 
ATOM     23  F   UNL     1       4.929   3.874  12.499  0.00  0.00    +0.000 F 
ENDBRANCH   1  21
TORSDOF 3
ENDMDL
MODEL 8
REMARK VINA RESULT:      -7.6      3.287      6.672
REMARK  Name = 
REMARK  3 active torsions:
REMARK  status: ('A' for Active; 'I' for Inactive)
REMARK    1  A    between atoms: C_2  and  C_5
REMARK    2  A    between atoms: C_7  and  C_8
REMARK    3  A    between atoms: N_15  and  C_16
REMARK                            x       y       z     vdW  Elec       q    Type
REMARK                         _______ _______ _______ _____ _____    ______ ____
ROOT
ATOM      1  C   UNL     1       4.266   5.737  17.083  0.00  0.00    +0.000 A 
ATOM      2  C   UNL     1       3.788   4.742  17.911  0.00  0.00    +0.000 A 
ATOM      3  C   UNL     1       2.921   5.138  18.899  0.00  0.00    +0.000 A 
ATOM      4  N   UNL     1       2.526   6.413  19.047  0.00  0.00    +0.000 NA
ATOM      5  C   UNL     1       3.036   7.332  18.225  0.00  0.00    +0.000 A 
ATOM      6  N   UNL     1       2.684   8.669  18.401  0.00  0.00    +0.000 N 
ATOM      7  N   UNL     1       3.913   7.042  17.253  0.00  0.00    +0.000 NA
ATOM      8  H   UNL     1       3.194   9.252  17.752  0.00  0.00    +0.000 HD
ENDROOT
BRANCH   6   9
ATOM      9  C   UNL     1       1.424   9.175  18.764  0.00  0.00    +0.000 A 
ATOM     10  C   UNL     1       0.535   9.584  17.762  0.00  0.00    +0.000 A 
ATOM     11  C   UNL     1      -0.720  10.109  18.086  0.00  0.00    +0.000 A 
ATOM     12  C   UNL     1      -1.112  10.212  19.419  0.00  0.00    +0.000 A 
ATOM     13  C   UNL     1      -0.247   9.796  20.427  0.00  0.00    +0.000 A 
ATOM     14  C   UNL     1       1.013   9.287  20.101  0.00  0.00    +0.000 A 
ENDBRANCH   6   9
BRANCH   3  15
ATOM     15  C   UNL     1       2.384   4.224  19.894  0.00  0.00    +0.000 A 
ATOM     16  C   UNL     1       1.134   4.060  20.462  0.00  0.00    +0.000 A 
ATOM     17  C   UNL     1       1.256   3.028  21.424  0.00  0.00    +0.000 A 
ATOM     18  C   UNL     1       2.568   2.621  21.380  0.00  0.00    +0.000 A 
ATOM     19  O   UNL     1       3.259   3.333  20.453  0.00  0.00    +0.000 OA
ENDBRANCH   3  15
BRANCH   1  21
ATOM     20  F   UNL     1       5.238   6.295  14.946  0.00  0.00    +0.000 F 
ATOM     21  C   UNL     1       5.212   5.369  15.950  0.00  0.00    +0.000 C 
ATOM     22  F   UNL     1       4.891   4.190  15.347  0.00  0.00    +0.000 F 
ATOM     23  F   UNL     1       6.507   5.245  16.360  0.00  0.00    +0.000 F 
ENDBRANCH   1  21
TORSDOF 3
ENDMDL
MODEL 9
REMARK VINA RESULT:      -7.6      3.293      6.631
REMARK  Name = 
REMARK  3 active torsions:
REMARK  status: ('A' for Active; 'I' for Inactive)
REMARK    1  A    between atoms: C_2  and  C_5
REMARK    2  A    between atoms: C_7  and  C_8
REMARK    3  A    between atoms: N_15  and  C_16
REMARK                            x       y       z     vdW  Elec       q    Type
REMARK                         _______ _______ _______ _____ _____    ______ ____
ROOT
ATOM      1  C   UNL     1       4.328   5.762  17.086  0.00  0.00    +0.000 A 
ATOM      2  C   UNL     1       3.831   4.764  17.901  0.00  0.00    +0.000 A 
ATOM      3  C   UNL     1       2.937   5.158  18.866  0.00  0.00    +0.000 A 
ATOM      4  N   UNL     1       2.534   6.432  19.004  0.00  0.00    +0.000 NA
ATOM      5  C   UNL     1       3.063   7.353  18.196  0.00  0.00    +0.000 A 
ATOM      6  N   UNL     1       2.703   8.688  18.363  0.00  0.00    +0.000 N 
ATOM      7  N   UNL     1       3.966   7.066  17.248  0.00  0.00    +0.000 NA
ATOM      8  H   UNL     1       3.229   9.273  17.728  0.00  0.00    +0.000 HD
ENDROOT
BRANCH   6   9
ATOM      9  C   UNL     1       1.432   9.190  18.693  0.00  0.00    +0.000 A 
ATOM     10  C   UNL     1       1.068   9.304  20.041  0.00  0.00    +0.000 A 
ATOM     11  C   UNL     1      -0.194   9.782  20.406  0.00  0.00    +0.000 A 
ATOM     12  C   UNL     1      -1.103  10.174  19.427  0.00  0.00    +0.000 A 
ATOM     13  C   UNL     1      -0.753  10.082  18.082  0.00  0.00    +0.000 A 
ATOM     14  C   UNL     1       0.503   9.588  17.720  0.00  0.00    +0.000 A 
ENDBRANCH   6   9
BRANCH   3  15
ATOM     15  C   UNL     1       2.376   4.242  19.847  0.00  0.00    +0.000 A 
ATOM     16  C   UNL     1       1.110   4.068  20.374  0.00  0.00    +0.000 A 
ATOM     17  C   UNL     1       1.210   3.041  21.343  0.00  0.00    +0.000 A 
ATOM     18  C   UNL     1       2.526   2.646  21.344  0.00  0.00    +0.000 A 
ATOM     19  O   UNL     1       3.241   3.362  20.437  0.00  0.00    +0.000 OA
ENDBRANCH   3  15
BRANCH   1  21
ATOM     20  F   UNL     1       5.141   4.121  15.514  0.00  0.00    +0.000 F 
ATOM     21  C   UNL     1       5.304   5.396  15.979  0.00  0.00    +0.000 C 
ATOM     22  F   UNL     1       6.608   5.477  16.366  0.00  0.00    +0.000 F 
ATOM     23  F   UNL     1       5.183   6.197  14.881  0.00  0.00    +0.000 F 
ENDBRANCH   1  21
TORSDOF 3
ENDMDL
