MODEL 1
REMARK VINA RESULT:      -7.7      0.000      0.000
REMARK  Name = 
REMARK  2 active torsions:
REMARK  status: ('A' for Active; 'I' for Inactive)
REMARK    1  A    between atoms: N_2  and  C_4
REMARK    2  A    between atoms: N_11  and  C_12
REMARK                            x       y       z     vdW  Elec       q    Type
REMARK                         _______ _______ _______ _____ _____    ______ ____
ROOT
ATOM      1  C   UNL     1       2.259   4.455  20.147  0.00  0.00    +0.000 A 
ATOM      2  C   UNL     1       2.777   4.459  18.826  0.00  0.00    +0.000 A 
ATOM      3  C   UNL     1       2.819   5.635  18.075  0.00  0.00    +0.000 A 
ATOM      4  C   UNL     1       2.346   6.800  18.650  0.00  0.00    +0.000 A 
ATOM      5  S   UNL     1       2.236   8.306  17.908  0.00  0.00    +0.000 S 
ATOM      6  C   UNL     1       1.609   9.046  19.283  0.00  0.00    +0.000 A 
ATOM      7  C   UNL     1       1.248  10.372  19.456  0.00  0.00    +0.000 A 
ATOM      8  N   UNL     1       1.235  11.257  18.344  0.00  0.00    +0.000 N 
ATOM      9  N   UNL     1       0.818  10.764  20.691  0.00  0.00    +0.000 NA
ATOM     10  C   UNL     1       0.712   9.871  21.723  0.00  0.00    +0.000 A 
ATOM     11  N   UNL     1       1.032   8.552  21.538  0.00  0.00    +0.000 NA
ATOM     12  C   UNL     1       1.492   8.145  20.325  0.00  0.00    +0.000 A 
ATOM     13  C   UNL     1       1.878   6.847  19.961  0.00  0.00    +0.000 A 
ATOM     14  C   UNL     1       1.828   5.676  20.729  0.00  0.00    +0.000 A 
ATOM     15  H   UNL     1       1.044  10.854  17.414  0.00  0.00    +0.000 HD
ENDROOT
BRANCH   8  16
ATOM     16  C   UNL     1       1.400  12.664  18.434  0.00  0.00    +0.000 A 
ATOM     17  C   UNL     1       0.314  13.501  18.739  0.00  0.00    +0.000 A 
ATOM     18  C   UNL     1       0.513  14.873  18.895  0.00  0.00    +0.000 A 
ATOM     19  C   UNL     1       1.786  15.423  18.727  0.00  0.00    +0.000 A 
ATOM     20  C   UNL     1       2.869  14.597  18.413  0.00  0.00    +0.000 A 
ATOM     21 BR   UNL     1       4.608  15.349  18.164  0.00  0.00    +0.000 Br
ATOM     22  C   UNL     1       2.680  13.219  18.283  0.00  0.00    +0.000 A 
ENDBRANCH   8  16
BRANCH   1  24
ATOM     23  O   UNL     1       1.877   2.214  20.301  0.00  0.00    +0.000 OA
ATOM     24  N   UNL     1       2.157   3.230  20.866  0.00  0.00    +0.000 N 
ATOM     25  O   UNL     1       2.266   3.214  22.180  0.00  0.00    +0.000 OA
ENDBRANCH   1  24
TORSDOF 2
ENDMDL
MODEL 2
REMARK VINA RESULT:      -7.4      4.742      7.699
REMARK  Name = 
REMARK  2 active torsions:
REMARK  status: ('A' for Active; 'I' for Inactive)
REMARK    1  A    between atoms: N_2  and  C_4
REMARK    2  A    between atoms: N_11  and  C_12
REMARK                            x       y       z     vdW  Elec       q    Type
REMARK                         _______ _______ _______ _____ _____    ______ ____
ROOT
ATOM      1  C   UNL     1      -1.053  11.732  22.118  0.00  0.00    +0.000 A 
ATOM      2  C   UNL     1      -1.068  10.799  23.187  0.00  0.00    +0.000 A 
ATOM      3  C   UNL     1      -0.435   9.560  23.068  0.00  0.00    +0.000 A 
ATOM      4  C   UNL     1       0.214   9.264  21.883  0.00  0.00    +0.000 A 
ATOM      5  S   UNL     1       0.976   7.815  21.498  0.00  0.00    +0.000 S 
ATOM      6  C   UNL     1       1.448   8.356  19.975  0.00  0.00    +0.000 A 
ATOM      7  C   UNL     1       2.171   7.677  19.009  0.00  0.00    +0.000 A 
ATOM      8  N   UNL     1       2.467   6.297  19.179  0.00  0.00    +0.000 N 
ATOM      9  N   UNL     1       2.494   8.344  17.863  0.00  0.00    +0.000 NA
ATOM     10  C   UNL     1       2.091   9.636  17.654  0.00  0.00    +0.000 A 
ATOM     11  N   UNL     1       1.342  10.291  18.595  0.00  0.00    +0.000 NA
ATOM     12  C   UNL     1       1.034   9.657  19.757  0.00  0.00    +0.000 A 
ATOM     13  C   UNL     1       0.295  10.174  20.831  0.00  0.00    +0.000 A 
ATOM     14  C   UNL     1      -0.336  11.420  20.933  0.00  0.00    +0.000 A 
ATOM     15  H   UNL     1       1.805   5.730  19.730  0.00  0.00    +0.000 HD
ENDROOT
BRANCH   8  16
ATOM     16  C   UNL     1       3.574   5.633  18.589  0.00  0.00    +0.000 A 
ATOM     17  C   UNL     1       3.396   4.737  17.522  0.00  0.00    +0.000 A 
ATOM     18  C   UNL     1       4.503   4.153  16.909  0.00  0.00    +0.000 A 
ATOM     19  C   UNL     1       5.793   4.437  17.366  0.00  0.00    +0.000 A 
ATOM     20  C   UNL     1       5.977   5.319  18.434  0.00  0.00    +0.000 A 
ATOM     21 BR   UNL     1       7.738   5.696  19.074  0.00  0.00    +0.000 Br
ATOM     22  C   UNL     1       4.872   5.929  19.034  0.00  0.00    +0.000 A 
ENDBRANCH   8  16
BRANCH   1  24
ATOM     23  O   UNL     1      -2.499  13.322  21.362  0.00  0.00    +0.000 OA
ATOM     24  N   UNL     1      -1.770  12.957  22.236  0.00  0.00    +0.000 N 
ATOM     25  O   UNL     1      -1.561  13.758  23.263  0.00  0.00    +0.000 OA
ENDBRANCH   1  24
TORSDOF 2
ENDMDL
MODEL 3
REMARK VINA RESULT:      -7.4      2.823      3.746
REMARK  Name = 
REMARK  2 active torsions:
REMARK  status: ('A' for Active; 'I' for Inactive)
REMARK    1  A    between atoms: N_2  and  C_4
REMARK    2  A    between atoms: N_11  and  C_12
REMARK                            x       y       z     vdW  Elec       q    Type
REMARK                         _______ _______ _______ _____ _____    ______ ____
ROOT
ATOM      1  C   UNL     1       3.599   2.793  20.050  0.00  0.00    +0.000 A 
ATOM      2  C   UNL     1       2.696   2.757  21.144  0.00  0.00    +0.000 A 
ATOM      3  C   UNL     1       1.927   3.874  21.477  0.00  0.00    +0.000 A 
ATOM      4  C   UNL     1       2.062   5.018  20.712  0.00  0.00    +0.000 A 
ATOM      5  S   UNL     1       1.293   6.491  20.974  0.00  0.00    +0.000 S 
ATOM      6  C   UNL     1       2.009   7.214  19.633  0.00  0.00    +0.000 A 
ATOM      7  C   UNL     1       1.844   8.506  19.165  0.00  0.00    +0.000 A 
ATOM      8  N   UNL     1       1.112   9.454  19.931  0.00  0.00    +0.000 N 
ATOM      9  N   UNL     1       2.484   8.857  18.011  0.00  0.00    +0.000 NA
ATOM     10  C   UNL     1       3.293   7.972  17.349  0.00  0.00    +0.000 A 
ATOM     11  N   UNL     1       3.484   6.706  17.837  0.00  0.00    +0.000 NA
ATOM     12  C   UNL     1       2.834   6.326  18.968  0.00  0.00    +0.000 A 
ATOM     13  C   UNL     1       2.899   5.075  19.599  0.00  0.00    +0.000 A 
ATOM     14  C   UNL     1       3.679   3.965  19.251  0.00  0.00    +0.000 A 
ATOM     15  H   UNL     1       1.110   9.341  20.956  0.00  0.00    +0.000 HD
ENDROOT
BRANCH   8  16
ATOM     16  C   UNL     1       0.441  10.581  19.388  0.00  0.00    +0.000 A 
ATOM     17  C   UNL     1       1.030  11.856  19.415  0.00  0.00    +0.000 A 
ATOM     18  C   UNL     1       0.386  12.935  18.811  0.00  0.00    +0.000 A 
ATOM     19  C   UNL     1      -0.857  12.758  18.196  0.00  0.00    +0.000 A 
ATOM     20  C   UNL     1      -1.453  11.495  18.175  0.00  0.00    +0.000 A 
ATOM     21 BR   UNL     1      -3.162  11.255  17.352  0.00  0.00    +0.000 Br
ATOM     22  C   UNL     1      -0.800  10.405  18.755  0.00  0.00    +0.000 A 
ENDBRANCH   8  16
BRANCH   1  24
ATOM     23  O   UNL     1       4.204   0.960  18.838  0.00  0.00    +0.000 OA
ATOM     24  N   UNL     1       4.427   1.667  19.776  0.00  0.00    +0.000 N 
ATOM     25  O   UNL     1       5.389   1.326  20.612  0.00  0.00    +0.000 OA
ENDBRANCH   1  24
TORSDOF 2
ENDMDL
MODEL 4
REMARK VINA RESULT:      -7.4      1.179      1.657
REMARK  Name = 
REMARK  2 active torsions:
REMARK  status: ('A' for Active; 'I' for Inactive)
REMARK    1  A    between atoms: N_2  and  C_4
REMARK    2  A    between atoms: N_11  and  C_12
REMARK                            x       y       z     vdW  Elec       q    Type
REMARK                         _______ _______ _______ _____ _____    ______ ____
ROOT
ATOM      1  C   UNL     1       2.235   4.511  20.084  0.00  0.00    +0.000 A 
ATOM      2  C   UNL     1       2.749   4.532  18.762  0.00  0.00    +0.000 A 
ATOM      3  C   UNL     1       2.804   5.721  18.031  0.00  0.00    +0.000 A 
ATOM      4  C   UNL     1       2.349   6.882  18.630  0.00  0.00    +0.000 A 
ATOM      5  S   UNL     1       2.257   8.403  17.916  0.00  0.00    +0.000 S 
ATOM      6  C   UNL     1       1.645   9.126  19.308  0.00  0.00    +0.000 A 
ATOM      7  C   UNL     1       1.303  10.453  19.506  0.00  0.00    +0.000 A 
ATOM      8  N   UNL     1       1.297  11.358  18.411  0.00  0.00    +0.000 N 
ATOM      9  N   UNL     1       0.883  10.827  20.750  0.00  0.00    +0.000 NA
ATOM     10  C   UNL     1       0.768   9.917  21.766  0.00  0.00    +0.000 A 
ATOM     11  N   UNL     1       1.070   8.598  21.555  0.00  0.00    +0.000 NA
ATOM     12  C   UNL     1       1.519   8.207  20.333  0.00  0.00    +0.000 A 
ATOM     13  C   UNL     1       1.887   6.911  19.944  0.00  0.00    +0.000 A 
ATOM     14  C   UNL     1       1.823   5.727  20.690  0.00  0.00    +0.000 A 
ATOM     15  H   UNL     1       1.098  10.975  17.475  0.00  0.00    +0.000 HD
ENDROOT
BRANCH   8  16
ATOM     16  C   UNL     1       1.482  12.761  18.526  0.00  0.00    +0.000 A 
ATOM     17  C   UNL     1       2.701  13.362  18.174  0.00  0.00    +0.000 A 
ATOM     18  C   UNL     1       2.837  14.748  18.224  0.00  0.00    +0.000 A 
ATOM     19  C   UNL     1       1.769  15.545  18.646  0.00  0.00    +0.000 A 
ATOM     20  C   UNL     1       0.556  14.954  19.009  0.00  0.00    +0.000 A 
ATOM     21 BR   UNL     1      -0.899  16.039  19.605  0.00  0.00    +0.000 Br
ATOM     22  C   UNL     1       0.406  13.567  18.933  0.00  0.00    +0.000 A 
ENDBRANCH   8  16
BRANCH   1  24
ATOM     23  O   UNL     1       2.176   3.239  21.974  0.00  0.00    +0.000 OA
ATOM     24  N   UNL     1       2.119   3.274  20.780  0.00  0.00    +0.000 N 
ATOM     25  O   UNL     1       2.053   2.137  20.116  0.00  0.00    +0.000 OA
ENDBRANCH   1  24
TORSDOF 2
ENDMDL
MODEL 5
REMARK VINA RESULT:      -7.3      2.273      3.307
REMARK  Name = 
REMARK  2 active torsions:
REMARK  status: ('A' for Active; 'I' for Inactive)
REMARK    1  A    between atoms: N_2  and  C_4
REMARK    2  A    between atoms: N_11  and  C_12
REMARK                            x       y       z     vdW  Elec       q    Type
REMARK                         _______ _______ _______ _____ _____    ______ ____
ROOT
ATOM      1  C   UNL     1       3.570   2.787  20.070  0.00  0.00    +0.000 A 
ATOM      2  C   UNL     1       2.648   2.772  21.148  0.00  0.00    +0.000 A 
ATOM      3  C   UNL     1       1.884   3.900  21.455  0.00  0.00    +0.000 A 
ATOM      4  C   UNL     1       2.043   5.034  20.680  0.00  0.00    +0.000 A 
ATOM      5  S   UNL     1       1.284   6.517  20.912  0.00  0.00    +0.000 S 
ATOM      6  C   UNL     1       2.030   7.218  19.576  0.00  0.00    +0.000 A 
ATOM      7  C   UNL     1       1.886   8.506  19.090  0.00  0.00    +0.000 A 
ATOM      8  N   UNL     1       1.151   9.470  19.832  0.00  0.00    +0.000 N 
ATOM      9  N   UNL     1       2.549   8.837  17.944  0.00  0.00    +0.000 NA
ATOM     10  C   UNL     1       3.361   7.938  17.306  0.00  0.00    +0.000 A 
ATOM     11  N   UNL     1       3.532   6.676  17.811  0.00  0.00    +0.000 NA
ATOM     12  C   UNL     1       2.858   6.314  18.935  0.00  0.00    +0.000 A 
ATOM     13  C   UNL     1       2.900   5.070  19.581  0.00  0.00    +0.000 A 
ATOM     14  C   UNL     1       3.674   3.948  19.260  0.00  0.00    +0.000 A 
ATOM     15  H   UNL     1       1.129   9.368  20.858  0.00  0.00    +0.000 HD
ENDROOT
BRANCH   8  16
ATOM     16  C   UNL     1       0.500  10.596  19.265  0.00  0.00    +0.000 A 
ATOM     17  C   UNL     1      -0.764  10.475  18.665  0.00  0.00    +0.000 A 
ATOM     18  C   UNL     1      -1.418  11.607  18.180  0.00  0.00    +0.000 A 
ATOM     19  C   UNL     1      -0.811  12.863  18.269  0.00  0.00    +0.000 A 
ATOM     20  C   UNL     1       0.451  12.989  18.856  0.00  0.00    +0.000 A 
ATOM     21 BR   UNL     1       1.292  14.702  18.961  0.00  0.00    +0.000 Br
ATOM     22  C   UNL     1       1.098  11.862  19.368  0.00  0.00    +0.000 A 
ENDBRANCH   8  16
BRANCH   1  24
ATOM     23  O   UNL     1       5.340   1.422  20.516  0.00  0.00    +0.000 OA
ATOM     24  N   UNL     1       4.391   1.650  19.824  0.00  0.00    +0.000 N 
ATOM     25  O   UNL     1       4.182   0.890  18.767  0.00  0.00    +0.000 OA
ENDBRANCH   1  24
TORSDOF 2
ENDMDL
MODEL 6
REMARK VINA RESULT:      -7.2      2.081      2.565
REMARK  Name = 
REMARK  2 active torsions:
REMARK  status: ('A' for Active; 'I' for Inactive)
REMARK    1  A    between atoms: N_2  and  C_4
REMARK    2  A    between atoms: N_11  and  C_12
REMARK                            x       y       z     vdW  Elec       q    Type
REMARK                         _______ _______ _______ _____ _____    ______ ____
ROOT
ATOM      1  C   UNL     1       3.983   3.709  18.873  0.00  0.00    +0.000 A 
ATOM      2  C   UNL     1       4.568   4.121  17.649  0.00  0.00    +0.000 A 
ATOM      3  C   UNL     1       4.352   5.406  17.146  0.00  0.00    +0.000 A 
ATOM      4  C   UNL     1       3.554   6.271  17.872  0.00  0.00    +0.000 A 
ATOM      5  S   UNL     1       3.105   7.829  17.424  0.00  0.00    +0.000 S 
ATOM      6  C   UNL     1       2.217   8.083  18.831  0.00  0.00    +0.000 A 
ATOM      7  C   UNL     1       1.512   9.213  19.209  0.00  0.00    +0.000 A 
ATOM      8  N   UNL     1       1.342  10.286  18.293  0.00  0.00    +0.000 N 
ATOM      9  N   UNL     1       0.913   9.215  20.436  0.00  0.00    +0.000 NA
ATOM     10  C   UNL     1       0.975   8.122  21.259  0.00  0.00    +0.000 A 
ATOM     11  N   UNL     1       1.640   6.991  20.865  0.00  0.00    +0.000 NA
ATOM     12  C   UNL     1       2.270   6.978  19.660  0.00  0.00    +0.000 A 
ATOM     13  C   UNL     1       3.004   5.921  19.103  0.00  0.00    +0.000 A 
ATOM     14  C   UNL     1       3.210   4.636  19.622  0.00  0.00    +0.000 A 
ATOM     15  H   UNL     1       1.325  10.058  17.287  0.00  0.00    +0.000 HD
ENDROOT
BRANCH   8  16
ATOM     16  C   UNL     1       1.128  11.638  18.669  0.00  0.00    +0.000 A 
ATOM     17  C   UNL     1       2.082  12.628  18.381  0.00  0.00    +0.000 A 
ATOM     18  C   UNL     1       1.819  13.962  18.693  0.00  0.00    +0.000 A 
ATOM     19  C   UNL     1       0.617  14.316  19.312  0.00  0.00    +0.000 A 
ATOM     20  C   UNL     1      -0.332  13.335  19.610  0.00  0.00    +0.000 A 
ATOM     21 BR   UNL     1      -1.968  13.815  20.474  0.00  0.00    +0.000 Br
ATOM     22  C   UNL     1      -0.085  12.001  19.275  0.00  0.00    +0.000 A 
ENDBRANCH   8  16
BRANCH   1  24
ATOM     23  O   UNL     1       4.871   2.130  20.255  0.00  0.00    +0.000 OA
ATOM     24  N   UNL     1       4.156   2.370  19.327  0.00  0.00    +0.000 N 
ATOM     25  O   UNL     1       3.615   1.365  18.667  0.00  0.00    +0.000 OA
ENDBRANCH   1  24
TORSDOF 2
ENDMDL
MODEL 7
REMARK VINA RESULT:      -7.1      4.084      4.812
REMARK  Name = 
REMARK  2 active torsions:
REMARK  status: ('A' for Active; 'I' for Inactive)
REMARK    1  A    between atoms: N_2  and  C_4
REMARK    2  A    between atoms: N_11  and  C_12
REMARK                            x       y       z     vdW  Elec       q    Type
REMARK                         _______ _______ _______ _____ _____    ______ ____
ROOT
ATOM      1  C   UNL     1       2.531   7.287  18.834  0.00  0.00    +0.000 A 
ATOM      2  C   UNL     1       2.451   8.175  17.730  0.00  0.00    +0.000 A 
ATOM      3  C   UNL     1       1.757   9.383  17.829  0.00  0.00    +0.000 A 
ATOM      4  C   UNL     1       1.151   9.697  19.032  0.00  0.00    +0.000 A 
ATOM      5  S   UNL     1       0.211  11.054  19.352  0.00  0.00    +0.000 S 
ATOM      6  C   UNL     1      -0.056  10.612  20.954  0.00  0.00    +0.000 A 
ATOM      7  C   UNL     1      -0.784  11.286  21.920  0.00  0.00    +0.000 A 
ATOM      8  N   UNL     1      -1.558  12.424  21.565  0.00  0.00    +0.000 N 
ATOM      9  N   UNL     1      -0.811  10.765  23.182  0.00  0.00    +0.000 NA
ATOM     10  C   UNL     1      -0.167   9.595  23.482  0.00  0.00    +0.000 A 
ATOM     11  N   UNL     1       0.521   8.911  22.514  0.00  0.00    +0.000 NA
ATOM     12  C   UNL     1       0.586   9.426  21.258  0.00  0.00    +0.000 A 
ATOM     13  C   UNL     1       1.251   8.875  20.153  0.00  0.00    +0.000 A 
ATOM     14  C   UNL     1       1.942   7.659  20.071  0.00  0.00    +0.000 A 
ATOM     15  H   UNL     1      -1.931  12.467  20.605  0.00  0.00    +0.000 HD
ENDROOT
BRANCH   8  16
ATOM     16  C   UNL     1      -1.906  13.471  22.459  0.00  0.00    +0.000 A 
ATOM     17  C   UNL     1      -0.915  14.211  23.125  0.00  0.00    +0.000 A 
ATOM     18  C   UNL     1      -1.276  15.283  23.941  0.00  0.00    +0.000 A 
ATOM     19  C   UNL     1      -2.623  15.611  24.117  0.00  0.00    +0.000 A 
ATOM     20  C   UNL     1      -3.614  14.872  23.466  0.00  0.00    +0.000 A 
ATOM     21 BR   UNL     1      -5.457  15.306  23.720  0.00  0.00    +0.000 Br
ATOM     22  C   UNL     1      -3.256  13.814  22.625  0.00  0.00    +0.000 A 
ENDBRANCH   8  16
BRANCH   1  24
ATOM     23  O   UNL     1       2.820   5.252  17.849  0.00  0.00    +0.000 OA
ATOM     24  N   UNL     1       3.180   6.028  18.685  0.00  0.00    +0.000 N 
ATOM     25  O   UNL     1       4.118   5.655  19.534  0.00  0.00    +0.000 OA
ENDBRANCH   1  24
TORSDOF 2
ENDMDL
MODEL 8
REMARK VINA RESULT:      -7.0      2.080      2.433
REMARK  Name = 
REMARK  2 active torsions:
REMARK  status: ('A' for Active; 'I' for Inactive)
REMARK    1  A    between atoms: N_2  and  C_4
REMARK    2  A    between atoms: N_11  and  C_12
REMARK                            x       y       z     vdW  Elec       q    Type
REMARK                         _______ _______ _______ _____ _____    ______ ____
ROOT
ATOM      1  C   UNL     1       3.611   4.684  19.238  0.00  0.00    +0.000 A 
ATOM      2  C   UNL     1       4.068   5.083  17.956  0.00  0.00    +0.000 A 
ATOM      3  C   UNL     1       3.727   6.330  17.428  0.00  0.00    +0.000 A 
ATOM      4  C   UNL     1       2.934   7.171  18.187  0.00  0.00    +0.000 A 
ATOM      5  S   UNL     1       2.347   8.678  17.723  0.00  0.00    +0.000 S 
ATOM      6  C   UNL     1       1.558   8.930  19.188  0.00  0.00    +0.000 A 
ATOM      7  C   UNL     1       0.812  10.027  19.583  0.00  0.00    +0.000 A 
ATOM      8  N   UNL     1       0.498  11.050  18.648  0.00  0.00    +0.000 N 
ATOM      9  N   UNL     1       0.314  10.040  20.855  0.00  0.00    +0.000 NA
ATOM     10  C   UNL     1       0.514   8.988  21.707  0.00  0.00    +0.000 A 
ATOM     11  N   UNL     1       1.220   7.886  21.300  0.00  0.00    +0.000 NA
ATOM     12  C   UNL     1       1.751   7.865  20.048  0.00  0.00    +0.000 A 
ATOM     13  C   UNL     1       2.508   6.836  19.471  0.00  0.00    +0.000 A 
ATOM     14  C   UNL     1       2.840   5.588  20.015  0.00  0.00    +0.000 A 
ATOM     15  H   UNL     1       0.417  10.782  17.656  0.00  0.00    +0.000 HD
ENDROOT
BRANCH   8  16
ATOM     16  C   UNL     1       0.225  12.400  18.993  0.00  0.00    +0.000 A 
ATOM     17  C   UNL     1       1.079  13.437  18.587  0.00  0.00    +0.000 A 
ATOM     18  C   UNL     1       0.753  14.763  18.872  0.00  0.00    +0.000 A 
ATOM     19  C   UNL     1      -0.412  15.063  19.583  0.00  0.00    +0.000 A 
ATOM     20  C   UNL     1      -1.261  14.035  20.000  0.00  0.00    +0.000 A 
ATOM     21 BR   UNL     1      -2.846  14.442  20.988  0.00  0.00    +0.000 Br
ATOM     22  C   UNL     1      -0.953  12.707  19.692  0.00  0.00    +0.000 A 
ENDBRANCH   8  16
BRANCH   1  24
ATOM     23  O   UNL     1       3.057   2.705  20.223  0.00  0.00    +0.000 OA
ATOM     24  N   UNL     1       3.909   3.378  19.722  0.00  0.00    +0.000 N 
ATOM     25  O   UNL     1       5.150   2.932  19.721  0.00  0.00    +0.000 OA
ENDBRANCH   1  24
TORSDOF 2
ENDMDL
MODEL 9
REMARK VINA RESULT:      -7.0      3.722      4.463
REMARK  Name = 
REMARK  2 active torsions:
REMARK  status: ('A' for Active; 'I' for Inactive)
REMARK    1  A    between atoms: N_2  and  C_4
REMARK    2  A    between atoms: N_11  and  C_12
REMARK                            x       y       z     vdW  Elec       q    Type
REMARK                         _______ _______ _______ _____ _____    ______ ____
ROOT
ATOM      1  C   UNL     1       2.542   7.295  18.795  0.00  0.00    +0.000 A 
ATOM      2  C   UNL     1       2.475   8.214  17.716  0.00  0.00    +0.000 A 
ATOM      3  C   UNL     1       1.803   9.430  17.849  0.00  0.00    +0.000 A 
ATOM      4  C   UNL     1       1.205   9.722  19.061  0.00  0.00    +0.000 A 
ATOM      5  S   UNL     1       0.289  11.087  19.419  0.00  0.00    +0.000 S 
ATOM      6  C   UNL     1       0.018  10.608  21.010  0.00  0.00    +0.000 A 
ATOM      7  C   UNL     1      -0.696  11.267  21.995  0.00  0.00    +0.000 A 
ATOM      8  N   UNL     1      -1.451  12.428  21.673  0.00  0.00    +0.000 N 
ATOM      9  N   UNL     1      -0.729  10.714  23.243  0.00  0.00    +0.000 NA
ATOM     10  C   UNL     1      -0.104   9.525  23.510  0.00  0.00    +0.000 A 
ATOM     11  N   UNL     1       0.569   8.855  22.522  0.00  0.00    +0.000 NA
ATOM     12  C   UNL     1       0.640   9.403  21.280  0.00  0.00    +0.000 A 
ATOM     13  C   UNL     1       1.293   8.870  20.159  0.00  0.00    +0.000 A 
ATOM     14  C   UNL     1       1.962   7.645  20.043  0.00  0.00    +0.000 A 
ATOM     15  H   UNL     1      -1.826  12.503  20.715  0.00  0.00    +0.000 HD
ENDROOT
BRANCH   8  16
ATOM     16  C   UNL     1      -1.778  13.456  22.595  0.00  0.00    +0.000 A 
ATOM     17  C   UNL     1      -2.995  13.438  23.296  0.00  0.00    +0.000 A 
ATOM     18  C   UNL     1      -3.264  14.418  24.251  0.00  0.00    +0.000 A 
ATOM     19  C   UNL     1      -2.337  15.434  24.498  0.00  0.00    +0.000 A 
ATOM     20  C   UNL     1      -1.130  15.464  23.797  0.00  0.00    +0.000 A 
ATOM     21 BR   UNL     1       0.132  16.863  24.119  0.00  0.00    +0.000 Br
ATOM     22  C   UNL     1      -0.843  14.469  22.858  0.00  0.00    +0.000 A 
ENDBRANCH   8  16
BRANCH   1  24
ATOM     23  O   UNL     1       4.196   5.772  19.166  0.00  0.00    +0.000 OA
ATOM     24  N   UNL     1       3.169   6.030  18.611  0.00  0.00    +0.000 N 
ATOM     25  O   UNL     1       2.682   5.162  17.745  0.00  0.00    +0.000 OA
ENDBRANCH   1  24
TORSDOF 2
ENDMDL
