MODEL 1
REMARK VINA RESULT:      -7.9      0.000      0.000
REMARK  Name = 
REMARK  15 active torsions:
REMARK  status: ('A' for Active; 'I' for Inactive)
REMARK    1  A    between atoms: C_1  and  C_2
REMARK    2  A    between atoms: C_2  and  N_3
REMARK    3  A    between atoms: N_3  and  C_4
REMARK    4  A    between atoms: C_4  and  C_5
REMARK    5  A    between atoms: C_6  and  C_8
REMARK    6  A    between atoms: C_9  and  C_10
REMARK    7  A    between atoms: C_9  and  C_11
REMARK    8  A    between atoms: C_13  and  O_14
REMARK    9  A    between atoms: O_14  and  C_15
REMARK   10  A    between atoms: C_15  and  C_16
REMARK   11  A    between atoms: C_16  and  O_18
REMARK   12  A    between atoms: C_20  and  O_21
REMARK   13  A    between atoms: O_21  and  C_22
REMARK   14  A    between atoms: C_22  and  C_23
REMARK   15  A    between atoms: C_22  and  C_24
REMARK                            x       y       z     vdW  Elec       q    Type
REMARK                         _______ _______ _______ _____ _____    ______ ____
ROOT
ATOM      1  C   UNL     1       2.390   7.402  18.714  0.00  0.00    +0.000 A 
ATOM      2  C   UNL     1       2.061   7.288  20.069  0.00  0.00    +0.000 A 
ATOM      3  C   UNL     1       1.309   8.280  20.697  0.00  0.00    +0.000 A 
ATOM      4  C   UNL     1       0.942   9.419  19.979  0.00  0.00    +0.000 A 
ATOM      5  C   UNL     1       1.292   9.561  18.630  0.00  0.00    +0.000 A 
ATOM      6  C   UNL     1       2.028   8.555  18.003  0.00  0.00    +0.000 A 
ENDROOT
BRANCH   1   8
ATOM      7  C   UNL     1       4.258   6.408  17.556  0.00  0.00    +0.000 C 
ATOM      8  C   UNL     1       3.008   6.242  18.037  0.00  0.00    +0.000 C 
ATOM      9  C   UNL     1       2.123   5.035  17.924  0.00  0.00    +0.000 C 
BRANCH   7  11
ATOM     10  N   UNL     1       6.384   5.618  16.564  0.00  0.00    +0.000 N 
ATOM     11  C   UNL     1       5.014   5.399  16.750  0.00  0.00    +0.000 C 
ATOM     12  O   UNL     1       4.430   4.425  16.281  0.00  0.00    +0.000 OA
BRANCH  10  14
ATOM     13  C   UNL     1       7.240   4.663  14.411  0.00  0.00    +0.000 C 
ATOM     14  C   UNL     1       7.135   4.529  15.925  0.00  0.00    +0.000 C 
ENDBRANCH  10  14
BRANCH  10  15
ATOM     15  C   UNL     1       7.076   6.812  17.069  0.00  0.00    +0.000 C 
ATOM     16  C   UNL     1       7.869   6.703  18.363  0.00  0.00    +0.000 C 
ENDBRANCH  10  15
ENDBRANCH   7  11
ENDBRANCH   1   8
BRANCH   3  17
ATOM     17  O   UNL     1       0.852   8.207  21.990  0.00  0.00    +0.000 OA
BRANCH  17  18
ATOM     18  C   UNL     1      -0.421   8.829  22.201  0.00  0.00    +0.000 C 
BRANCH  18  19
ATOM     19  C   UNL     1      -0.332   9.855  23.316  0.00  0.00    +0.000 C 
ATOM     20  O   UNL     1      -1.013  10.873  23.362  0.00  0.00    +0.000 OA
BRANCH  19  21
ATOM     21  O   UNL     1       0.577   9.541  24.266  0.00  0.00    +0.000 OA
ATOM     22  H   UNL     1       0.130   9.446  25.136  0.00  0.00    +0.000 HD
ENDBRANCH  19  21
ENDBRANCH  18  19
ENDBRANCH  17  18
ENDBRANCH   3  17
BRANCH   5  23
ATOM     23  O   UNL     1       0.751  10.654  18.012  0.00  0.00    +0.000 OA
BRANCH  23  24
ATOM     24  C   UNL     1      -0.183  11.481  18.722  0.00  0.00    +0.000 C 
ATOM     25  C   UNL     1       0.054  12.967  18.438  0.00  0.00    +0.000 C 
BRANCH  24  26
ATOM     26  C   UNL     1      -1.589  11.129  18.236  0.00  0.00    +0.000 A 
ATOM     27  C   UNL     1      -2.703  11.825  18.729  0.00  0.00    +0.000 A 
ATOM     28  C   UNL     1      -3.986  11.555  18.243  0.00  0.00    +0.000 A 
ATOM     29  C   UNL     1      -4.174  10.587  17.258  0.00  0.00    +0.000 A 
ATOM     30  C   UNL     1      -3.080   9.890  16.753  0.00  0.00    +0.000 A 
ATOM     31  C   UNL     1      -1.797  10.163  17.235  0.00  0.00    +0.000 A 
ENDBRANCH  24  26
ENDBRANCH  23  24
ENDBRANCH   5  23
TORSDOF 11
ENDMDL
MODEL 2
REMARK VINA RESULT:      -7.8      1.011      1.234
REMARK  Name = 
REMARK  15 active torsions:
REMARK  status: ('A' for Active; 'I' for Inactive)
REMARK    1  A    between atoms: C_1  and  C_2
REMARK    2  A    between atoms: C_2  and  N_3
REMARK    3  A    between atoms: N_3  and  C_4
REMARK    4  A    between atoms: C_4  and  C_5
REMARK    5  A    between atoms: C_6  and  C_8
REMARK    6  A    between atoms: C_9  and  C_10
REMARK    7  A    between atoms: C_9  and  C_11
REMARK    8  A    between atoms: C_13  and  O_14
REMARK    9  A    between atoms: O_14  and  C_15
REMARK   10  A    between atoms: C_15  and  C_16
REMARK   11  A    between atoms: C_16  and  O_18
REMARK   12  A    between atoms: C_20  and  O_21
REMARK   13  A    between atoms: O_21  and  C_22
REMARK   14  A    between atoms: C_22  and  C_23
REMARK   15  A    between atoms: C_22  and  C_24
REMARK                            x       y       z     vdW  Elec       q    Type
REMARK                         _______ _______ _______ _____ _____    ______ ____
ROOT
ATOM      1  C   UNL     1       2.407   7.855  18.452  0.00  0.00    +0.000 A 
ATOM      2  C   UNL     1       2.140   7.657  19.811  0.00  0.00    +0.000 A 
ATOM      3  C   UNL     1       1.212   8.462  20.470  0.00  0.00    +0.000 A 
ATOM      4  C   UNL     1       0.599   9.508  19.778  0.00  0.00    +0.000 A 
ATOM      5  C   UNL     1       0.882   9.737  18.425  0.00  0.00    +0.000 A 
ATOM      6  C   UNL     1       1.796   8.915  17.767  0.00  0.00    +0.000 A 
ENDROOT
BRANCH   1   8
ATOM      7  C   UNL     1       4.378   7.304  17.174  0.00  0.00    +0.000 C 
ATOM      8  C   UNL     1       3.238   6.858  17.743  0.00  0.00    +0.000 C 
ATOM      9  C   UNL     1       2.663   5.473  17.703  0.00  0.00    +0.000 C 
BRANCH   7  11
ATOM     10  N   UNL     1       6.231   5.673  16.984  0.00  0.00    +0.000 N 
ATOM     11  C   UNL     1       5.298   6.484  16.326  0.00  0.00    +0.000 C 
ATOM     12  O   UNL     1       5.218   6.539  15.101  0.00  0.00    +0.000 OA
BRANCH  10  14
ATOM     13  C   UNL     1       6.154   3.659  15.495  0.00  0.00    +0.000 C 
ATOM     14  C   UNL     1       7.000   4.749  16.140  0.00  0.00    +0.000 C 
ENDBRANCH  10  14
BRANCH  10  15
ATOM     15  C   UNL     1       6.375   5.650  18.446  0.00  0.00    +0.000 C 
ATOM     16  C   UNL     1       5.696   4.535  19.228  0.00  0.00    +0.000 C 
ENDBRANCH  10  15
ENDBRANCH   7  11
ENDBRANCH   1   8
BRANCH   3  17
ATOM     17  O   UNL     1       0.810   8.279  21.770  0.00  0.00    +0.000 OA
BRANCH  17  18
ATOM     18  C   UNL     1      -0.480   8.827  22.071  0.00  0.00    +0.000 C 
BRANCH  18  19
ATOM     19  C   UNL     1      -0.396   9.754  23.269  0.00  0.00    +0.000 C 
ATOM     20  O   UNL     1       0.444   9.647  24.156  0.00  0.00    +0.000 OA
BRANCH  19  21
ATOM     21  O   UNL     1      -1.342  10.719  23.272  0.00  0.00    +0.000 OA
ATOM     22  H   UNL     1      -0.924  11.593  23.437  0.00  0.00    +0.000 HD
ENDBRANCH  19  21
ENDBRANCH  18  19
ENDBRANCH  17  18
ENDBRANCH   3  17
BRANCH   5  23
ATOM     23  O   UNL     1       0.111  10.700  17.837  0.00  0.00    +0.000 OA
BRANCH  23  24
ATOM     24  C   UNL     1      -0.778  11.489  18.642  0.00  0.00    +0.000 C 
ATOM     25  C   UNL     1      -0.369  12.965  18.648  0.00  0.00    +0.000 C 
BRANCH  24  26
ATOM     26  C   UNL     1      -2.178  11.392  18.036  0.00  0.00    +0.000 A 
ATOM     27  C   UNL     1      -3.303  11.760  18.790  0.00  0.00    +0.000 A 
ATOM     28  C   UNL     1      -4.581  11.736  18.222  0.00  0.00    +0.000 A 
ATOM     29  C   UNL     1      -4.752  11.345  16.895  0.00  0.00    +0.000 A 
ATOM     30  C   UNL     1      -3.647  10.981  16.131  0.00  0.00    +0.000 A 
ATOM     31  C   UNL     1      -2.369  11.010  16.696  0.00  0.00    +0.000 A 
ENDBRANCH  24  26
ENDBRANCH  23  24
ENDBRANCH   5  23
TORSDOF 11
ENDMDL
MODEL 3
REMARK VINA RESULT:      -7.7      2.716      8.708
REMARK  Name = 
REMARK  15 active torsions:
REMARK  status: ('A' for Active; 'I' for Inactive)
REMARK    1  A    between atoms: C_1  and  C_2
REMARK    2  A    between atoms: C_2  and  N_3
REMARK    3  A    between atoms: N_3  and  C_4
REMARK    4  A    between atoms: C_4  and  C_5
REMARK    5  A    between atoms: C_6  and  C_8
REMARK    6  A    between atoms: C_9  and  C_10
REMARK    7  A    between atoms: C_9  and  C_11
REMARK    8  A    between atoms: C_13  and  O_14
REMARK    9  A    between atoms: O_14  and  C_15
REMARK   10  A    between atoms: C_15  and  C_16
REMARK   11  A    between atoms: C_16  and  O_18
REMARK   12  A    between atoms: C_20  and  O_21
REMARK   13  A    between atoms: O_21  and  C_22
REMARK   14  A    between atoms: C_22  and  C_23
REMARK   15  A    between atoms: C_22  and  C_24
REMARK                            x       y       z     vdW  Elec       q    Type
REMARK                         _______ _______ _______ _____ _____    ______ ____
ROOT
ATOM      1  C   UNL     1       2.409   6.953  18.438  0.00  0.00    +0.000 A 
ATOM      2  C   UNL     1       2.128   5.743  19.082  0.00  0.00    +0.000 A 
ATOM      3  C   UNL     1       2.792   4.575  18.708  0.00  0.00    +0.000 A 
ATOM      4  C   UNL     1       3.693   4.611  17.642  0.00  0.00    +0.000 A 
ATOM      5  C   UNL     1       3.959   5.810  16.967  0.00  0.00    +0.000 A 
ATOM      6  C   UNL     1       3.306   6.977  17.360  0.00  0.00    +0.000 A 
ENDROOT
BRANCH   1   8
ATOM      7  C   UNL     1       1.554   9.186  18.121  0.00  0.00    +0.000 C 
ATOM      8  C   UNL     1       1.840   8.198  18.995  0.00  0.00    +0.000 C 
ATOM      9  C   UNL     1       1.710   8.217  20.490  0.00  0.00    +0.000 C 
BRANCH   7  11
ATOM     10  N   UNL     1      -0.304  10.790  18.441  0.00  0.00    +0.000 N 
ATOM     11  C   UNL     1       1.075  10.555  18.490  0.00  0.00    +0.000 C 
ATOM     12  O   UNL     1       1.883  11.420  18.819  0.00  0.00    +0.000 OA
BRANCH  10  14
ATOM     13  C   UNL     1      -1.281  12.002  20.405  0.00  0.00    +0.000 C 
ATOM     14  C   UNL     1      -0.762  12.080  18.975  0.00  0.00    +0.000 C 
ENDBRANCH  10  14
BRANCH  10  15
ATOM     15  C   UNL     1      -1.270   9.780  17.988  0.00  0.00    +0.000 C 
ATOM     16  C   UNL     1      -2.142  10.094  16.782  0.00  0.00    +0.000 C 
ENDBRANCH  10  15
ENDBRANCH   7  11
ENDBRANCH   1   8
BRANCH   3  17
ATOM     17  O   UNL     1       2.659   3.367  19.347  0.00  0.00    +0.000 OA
BRANCH  17  18
ATOM     18  C   UNL     1       3.536   3.193  20.467  0.00  0.00    +0.000 C 
BRANCH  18  19
ATOM     19  C   UNL     1       4.452   2.005  20.244  0.00  0.00    +0.000 C 
ATOM     20  O   UNL     1       5.243   1.586  21.082  0.00  0.00    +0.000 OA
BRANCH  19  21
ATOM     21  O   UNL     1       4.317   1.443  19.022  0.00  0.00    +0.000 OA
ATOM     22  H   UNL     1       4.575   2.089  18.328  0.00  0.00    +0.000 HD
ENDBRANCH  19  21
ENDBRANCH  18  19
ENDBRANCH  17  18
ENDBRANCH   3  17
BRANCH   5  23
ATOM     23  O   UNL     1       4.961   5.731  16.041  0.00  0.00    +0.000 OA
BRANCH  23  24
ATOM     24  C   UNL     1       6.206   5.109  16.391  0.00  0.00    +0.000 C 
ATOM     25  C   UNL     1       7.064   4.832  15.152  0.00  0.00    +0.000 C 
BRANCH  24  26
ATOM     26  C   UNL     1       6.980   6.074  17.290  0.00  0.00    +0.000 A 
ATOM     27  C   UNL     1       7.540   5.623  18.495  0.00  0.00    +0.000 A 
ATOM     28  C   UNL     1       8.304   6.482  19.293  0.00  0.00    +0.000 A 
ATOM     29  C   UNL     1       8.518   7.801  18.897  0.00  0.00    +0.000 A 
ATOM     30  C   UNL     1       7.974   8.264  17.702  0.00  0.00    +0.000 A 
ATOM     31  C   UNL     1       7.215   7.405  16.903  0.00  0.00    +0.000 A 
ENDBRANCH  24  26
ENDBRANCH  23  24
ENDBRANCH   5  23
TORSDOF 11
ENDMDL
MODEL 4
REMARK VINA RESULT:      -7.7      2.817      8.585
REMARK  Name = 
REMARK  15 active torsions:
REMARK  status: ('A' for Active; 'I' for Inactive)
REMARK    1  A    between atoms: C_1  and  C_2
REMARK    2  A    between atoms: C_2  and  N_3
REMARK    3  A    between atoms: N_3  and  C_4
REMARK    4  A    between atoms: C_4  and  C_5
REMARK    5  A    between atoms: C_6  and  C_8
REMARK    6  A    between atoms: C_9  and  C_10
REMARK    7  A    between atoms: C_9  and  C_11
REMARK    8  A    between atoms: C_13  and  O_14
REMARK    9  A    between atoms: O_14  and  C_15
REMARK   10  A    between atoms: C_15  and  C_16
REMARK   11  A    between atoms: C_16  and  O_18
REMARK   12  A    between atoms: C_20  and  O_21
REMARK   13  A    between atoms: O_21  and  C_22
REMARK   14  A    between atoms: C_22  and  C_23
REMARK   15  A    between atoms: C_22  and  C_24
REMARK                            x       y       z     vdW  Elec       q    Type
REMARK                         _______ _______ _______ _____ _____    ______ ____
ROOT
ATOM      1  C   UNL     1       1.979   8.183  18.813  0.00  0.00    +0.000 A 
ATOM      2  C   UNL     1       1.696   7.326  19.882  0.00  0.00    +0.000 A 
ATOM      3  C   UNL     1       2.205   6.029  19.899  0.00  0.00    +0.000 A 
ATOM      4  C   UNL     1       2.948   5.571  18.809  0.00  0.00    +0.000 A 
ATOM      5  C   UNL     1       3.212   6.408  17.717  0.00  0.00    +0.000 A 
ATOM      6  C   UNL     1       2.716   7.711  17.717  0.00  0.00    +0.000 A 
ENDROOT
BRANCH   1   8
ATOM      7  C   UNL     1       0.668   9.917  19.857  0.00  0.00    +0.000 C 
ATOM      8  C   UNL     1       1.595   9.606  18.927  0.00  0.00    +0.000 C 
ATOM      9  C   UNL     1       2.256  10.519  17.937  0.00  0.00    +0.000 C 
BRANCH   7  11
ATOM     10  N   UNL     1      -1.210  11.498  19.534  0.00  0.00    +0.000 N 
ATOM     11  C   UNL     1       0.068  11.273  20.059  0.00  0.00    +0.000 C 
ATOM     12  O   UNL     1       0.695  12.138  20.666  0.00  0.00    +0.000 OA
BRANCH  10  14
ATOM     13  C   UNL     1      -3.311  12.634  20.293  0.00  0.00    +0.000 C 
ATOM     14  C   UNL     1      -1.847  12.771  19.896  0.00  0.00    +0.000 C 
ENDBRANCH  10  14
BRANCH  10  15
ATOM     15  C   UNL     1      -1.940  10.489  18.754  0.00  0.00    +0.000 C 
ATOM     16  C   UNL     1      -1.803  10.501  17.238  0.00  0.00    +0.000 C 
ENDBRANCH  10  15
ENDBRANCH   7  11
ENDBRANCH   1   8
BRANCH   3  17
ATOM     17  O   UNL     1       2.067   5.154  20.947  0.00  0.00    +0.000 OA
BRANCH  17  18
ATOM     18  C   UNL     1       1.101   4.118  20.727  0.00  0.00    +0.000 C 
BRANCH  18  19
ATOM     19  C   UNL     1       1.701   2.759  21.036  0.00  0.00    +0.000 C 
ATOM     20  O   UNL     1       1.872   2.331  22.172  0.00  0.00    +0.000 OA
BRANCH  19  21
ATOM     21  O   UNL     1       2.035   2.054  19.932  0.00  0.00    +0.000 OA
ATOM     22  H   UNL     1       2.059   1.094  20.145  0.00  0.00    +0.000 HD
ENDBRANCH  19  21
ENDBRANCH  18  19
ENDBRANCH  17  18
ENDBRANCH   3  17
BRANCH   5  23
ATOM     23  O   UNL     1       4.065   5.881  16.788  0.00  0.00    +0.000 OA
BRANCH  23  24
ATOM     24  C   UNL     1       5.108   4.989  17.207  0.00  0.00    +0.000 C 
ATOM     25  C   UNL     1       5.594   4.111  16.049  0.00  0.00    +0.000 C 
BRANCH  24  26
ATOM     26  C   UNL     1       6.290   5.834  17.683  0.00  0.00    +0.000 A 
ATOM     27  C   UNL     1       6.593   7.048  17.048  0.00  0.00    +0.000 A 
ATOM     28  C   UNL     1       7.631   7.859  17.517  0.00  0.00    +0.000 A 
ATOM     29  C   UNL     1       8.381   7.468  18.626  0.00  0.00    +0.000 A 
ATOM     30  C   UNL     1       8.091   6.269  19.271  0.00  0.00    +0.000 A 
ATOM     31  C   UNL     1       7.050   5.461  18.806  0.00  0.00    +0.000 A 
ENDBRANCH  24  26
ENDBRANCH  23  24
ENDBRANCH   5  23
TORSDOF 11
ENDMDL
MODEL 5
REMARK VINA RESULT:      -7.7      2.890      8.588
REMARK  Name = 
REMARK  15 active torsions:
REMARK  status: ('A' for Active; 'I' for Inactive)
REMARK    1  A    between atoms: C_1  and  C_2
REMARK    2  A    between atoms: C_2  and  N_3
REMARK    3  A    between atoms: N_3  and  C_4
REMARK    4  A    between atoms: C_4  and  C_5
REMARK    5  A    between atoms: C_6  and  C_8
REMARK    6  A    between atoms: C_9  and  C_10
REMARK    7  A    between atoms: C_9  and  C_11
REMARK    8  A    between atoms: C_13  and  O_14
REMARK    9  A    between atoms: O_14  and  C_15
REMARK   10  A    between atoms: C_15  and  C_16
REMARK   11  A    between atoms: C_16  and  O_18
REMARK   12  A    between atoms: C_20  and  O_21
REMARK   13  A    between atoms: O_21  and  C_22
REMARK   14  A    between atoms: C_22  and  C_23
REMARK   15  A    between atoms: C_22  and  C_24
REMARK                            x       y       z     vdW  Elec       q    Type
REMARK                         _______ _______ _______ _____ _____    ______ ____
ROOT
ATOM      1  C   UNL     1       1.870   8.158  19.113  0.00  0.00    +0.000 A 
ATOM      2  C   UNL     1       1.623   7.312  20.200  0.00  0.00    +0.000 A 
ATOM      3  C   UNL     1       2.095   6.000  20.192  0.00  0.00    +0.000 A 
ATOM      4  C   UNL     1       2.762   5.519  19.064  0.00  0.00    +0.000 A 
ATOM      5  C   UNL     1       2.988   6.346  17.956  0.00  0.00    +0.000 A 
ATOM      6  C   UNL     1       2.530   7.664  17.980  0.00  0.00    +0.000 A 
ENDROOT
BRANCH   1   8
ATOM      7  C   UNL     1       0.780   9.950  20.305  0.00  0.00    +0.000 C 
ATOM      8  C   UNL     1       1.534   9.592  19.244  0.00  0.00    +0.000 C 
ATOM      9  C   UNL     1       2.035  10.461  18.129  0.00  0.00    +0.000 C 
BRANCH   7  11
ATOM     10  N   UNL     1      -0.913  11.703  19.872  0.00  0.00    +0.000 N 
ATOM     11  C   UNL     1       0.245  11.324  20.560  0.00  0.00    +0.000 C 
ATOM     12  O   UNL     1       0.819  12.070  21.349  0.00  0.00    +0.000 OA
BRANCH  10  14
ATOM     13  C   UNL     1      -2.746  12.831  21.156  0.00  0.00    +0.000 C 
ATOM     14  C   UNL     1      -1.517  12.982  20.269  0.00  0.00    +0.000 C 
ENDBRANCH  10  14
BRANCH  10  15
ATOM     15  C   UNL     1      -1.570  10.839  18.881  0.00  0.00    +0.000 C 
ATOM     16  C   UNL     1      -2.065  11.463  17.584  0.00  0.00    +0.000 C 
ENDBRANCH  10  15
ENDBRANCH   7  11
ENDBRANCH   1   8
BRANCH   3  17
ATOM     17  O   UNL     1       1.991   5.131  21.250  0.00  0.00    +0.000 OA
BRANCH  17  18
ATOM     18  C   UNL     1       2.717   3.907  21.081  0.00  0.00    +0.000 C 
BRANCH  18  19
ATOM     19  C   UNL     1       1.766   2.724  21.076  0.00  0.00    +0.000 C 
ATOM     20  O   UNL     1       1.402   2.146  20.058  0.00  0.00    +0.000 OA
BRANCH  19  21
ATOM     21  O   UNL     1       1.353   2.360  22.310  0.00  0.00    +0.000 OA
ATOM     22  H   UNL     1       2.106   1.981  22.815  0.00  0.00    +0.000 HD
ENDBRANCH  19  21
ENDBRANCH  18  19
ENDBRANCH  17  18
ENDBRANCH   3  17
BRANCH   5  23
ATOM     23  O   UNL     1       3.772   5.793  16.983  0.00  0.00    +0.000 OA
BRANCH  23  24
ATOM     24  C   UNL     1       4.832   4.897  17.347  0.00  0.00    +0.000 C 
ATOM     25  C   UNL     1       5.288   4.053  16.153  0.00  0.00    +0.000 C 
BRANCH  24  26
ATOM     26  C   UNL     1       6.022   5.736  17.811  0.00  0.00    +0.000 A 
ATOM     27  C   UNL     1       6.802   5.317  18.900  0.00  0.00    +0.000 A 
ATOM     28  C   UNL     1       7.931   6.044  19.290  0.00  0.00    +0.000 A 
ATOM     29  C   UNL     1       8.296   7.199  18.599  0.00  0.00    +0.000 A 
ATOM     30  C   UNL     1       7.537   7.626  17.514  0.00  0.00    +0.000 A 
ATOM     31  C   UNL     1       6.412   6.898  17.120  0.00  0.00    +0.000 A 
ENDBRANCH  24  26
ENDBRANCH  23  24
ENDBRANCH   5  23
TORSDOF 11
ENDMDL
MODEL 6
REMARK VINA RESULT:      -7.6      2.767      8.883
REMARK  Name = 
REMARK  15 active torsions:
REMARK  status: ('A' for Active; 'I' for Inactive)
REMARK    1  A    between atoms: C_1  and  C_2
REMARK    2  A    between atoms: C_2  and  N_3
REMARK    3  A    between atoms: N_3  and  C_4
REMARK    4  A    between atoms: C_4  and  C_5
REMARK    5  A    between atoms: C_6  and  C_8
REMARK    6  A    between atoms: C_9  and  C_10
REMARK    7  A    between atoms: C_9  and  C_11
REMARK    8  A    between atoms: C_13  and  O_14
REMARK    9  A    between atoms: O_14  and  C_15
REMARK   10  A    between atoms: C_15  and  C_16
REMARK   11  A    between atoms: C_16  and  O_18
REMARK   12  A    between atoms: C_20  and  O_21
REMARK   13  A    between atoms: O_21  and  C_22
REMARK   14  A    between atoms: C_22  and  C_23
REMARK   15  A    between atoms: C_22  and  C_24
REMARK                            x       y       z     vdW  Elec       q    Type
REMARK                         _______ _______ _______ _____ _____    ______ ____
ROOT
ATOM      1  C   UNL     1       2.746   6.916  18.205  0.00  0.00    +0.000 A 
ATOM      2  C   UNL     1       3.989   7.162  17.611  0.00  0.00    +0.000 A 
ATOM      3  C   UNL     1       4.596   6.188  16.819  0.00  0.00    +0.000 A 
ATOM      4  C   UNL     1       3.983   4.943  16.676  0.00  0.00    +0.000 A 
ATOM      5  C   UNL     1       2.754   4.672  17.292  0.00  0.00    +0.000 A 
ATOM      6  C   UNL     1       2.143   5.658  18.067  0.00  0.00    +0.000 A 
ENDROOT
BRANCH   1   8
ATOM      7  C   UNL     1       1.755   9.113  18.102  0.00  0.00    +0.000 C 
ATOM      8  C   UNL     1       2.044   8.038  18.865  0.00  0.00    +0.000 C 
ATOM      9  C   UNL     1       1.797   7.850  20.333  0.00  0.00    +0.000 C 
BRANCH   7  11
ATOM     10  N   UNL     1      -0.196  10.625  18.291  0.00  0.00    +0.000 N 
ATOM     11  C   UNL     1       1.148  10.387  18.599  0.00  0.00    +0.000 C 
ATOM     12  O   UNL     1       1.827  11.177  19.250  0.00  0.00    +0.000 OA
BRANCH  10  14
ATOM     13  C   UNL     1      -0.697  13.075  18.126  0.00  0.00    +0.000 C 
ATOM     14  C   UNL     1      -0.815  11.791  18.936  0.00  0.00    +0.000 C 
ENDBRANCH  10  14
BRANCH  10  15
ATOM     15  C   UNL     1      -0.996   9.715  17.460  0.00  0.00    +0.000 C 
ATOM     16  C   UNL     1      -2.513   9.810  17.527  0.00  0.00    +0.000 C 
ENDBRANCH  10  15
ENDBRANCH   7  11
ENDBRANCH   1   8
BRANCH   3  17
ATOM     17  O   UNL     1       5.760   6.375  16.115  0.00  0.00    +0.000 OA
BRANCH  17  18
ATOM     18  C   UNL     1       6.657   5.257  16.154  0.00  0.00    +0.000 C 
BRANCH  18  19
ATOM     19  C   UNL     1       7.077   4.866  14.749  0.00  0.00    +0.000 C 
ATOM     20  O   UNL     1       7.893   5.493  14.083  0.00  0.00    +0.000 OA
BRANCH  19  21
ATOM     21  O   UNL     1       6.464   3.751  14.294  0.00  0.00    +0.000 OA
ATOM     22  H   UNL     1       5.550   3.704  14.653  0.00  0.00    +0.000 HD
ENDBRANCH  19  21
ENDBRANCH  18  19
ENDBRANCH  17  18
ENDBRANCH   3  17
BRANCH   5  23
ATOM     23  O   UNL     1       2.201   3.468  16.956  0.00  0.00    +0.000 OA
BRANCH  23  24
ATOM     24  C   UNL     1       2.574   2.287  17.681  0.00  0.00    +0.000 C 
ATOM     25  C   UNL     1       4.064   1.972  17.512  0.00  0.00    +0.000 C 
BRANCH  24  26
ATOM     26  C   UNL     1       2.314   2.542  19.166  0.00  0.00    +0.000 A 
ATOM     27  C   UNL     1       1.002   2.701  19.637  0.00  0.00    +0.000 A 
ATOM     28  C   UNL     1       0.750   2.870  21.002  0.00  0.00    +0.000 A 
ATOM     29  C   UNL     1       1.804   2.881  21.914  0.00  0.00    +0.000 A 
ATOM     30  C   UNL     1       3.112   2.719  21.465  0.00  0.00    +0.000 A 
ATOM     31  C   UNL     1       3.364   2.546  20.102  0.00  0.00    +0.000 A 
ENDBRANCH  24  26
ENDBRANCH  23  24
ENDBRANCH   5  23
TORSDOF 11
ENDMDL
MODEL 7
REMARK VINA RESULT:      -7.6      3.047      5.372
REMARK  Name = 
REMARK  15 active torsions:
REMARK  status: ('A' for Active; 'I' for Inactive)
REMARK    1  A    between atoms: C_1  and  C_2
REMARK    2  A    between atoms: C_2  and  N_3
REMARK    3  A    between atoms: N_3  and  C_4
REMARK    4  A    between atoms: C_4  and  C_5
REMARK    5  A    between atoms: C_6  and  C_8
REMARK    6  A    between atoms: C_9  and  C_10
REMARK    7  A    between atoms: C_9  and  C_11
REMARK    8  A    between atoms: C_13  and  O_14
REMARK    9  A    between atoms: O_14  and  C_15
REMARK   10  A    between atoms: C_15  and  C_16
REMARK   11  A    between atoms: C_16  and  O_18
REMARK   12  A    between atoms: C_20  and  O_21
REMARK   13  A    between atoms: O_21  and  C_22
REMARK   14  A    between atoms: C_22  and  C_23
REMARK   15  A    between atoms: C_22  and  C_24
REMARK                            x       y       z     vdW  Elec       q    Type
REMARK                         _______ _______ _______ _____ _____    ______ ____
ROOT
ATOM      1  C   UNL     1       4.931   5.249  17.740  0.00  0.00    +0.000 A 
ATOM      2  C   UNL     1       4.626   4.228  18.647  0.00  0.00    +0.000 A 
ATOM      3  C   UNL     1       3.451   4.278  19.396  0.00  0.00    +0.000 A 
ATOM      4  C   UNL     1       2.612   5.388  19.279  0.00  0.00    +0.000 A 
ATOM      5  C   UNL     1       2.922   6.433  18.398  0.00  0.00    +0.000 A 
ATOM      6  C   UNL     1       4.089   6.365  17.638  0.00  0.00    +0.000 A 
ENDROOT
BRANCH   1   8
ATOM      7  C   UNL     1       5.828   5.187  15.502  0.00  0.00    +0.000 C 
ATOM      8  C   UNL     1       6.075   5.060  16.823  0.00  0.00    +0.000 C 
ATOM      9  C   UNL     1       7.364   4.688  17.493  0.00  0.00    +0.000 C 
BRANCH   7  11
ATOM     10  N   UNL     1       6.378   4.207  13.296  0.00  0.00    +0.000 N 
ATOM     11  C   UNL     1       6.818   4.931  14.409  0.00  0.00    +0.000 C 
ATOM     12  O   UNL     1       7.968   5.352  14.512  0.00  0.00    +0.000 OA
BRANCH  10  14
ATOM     13  C   UNL     1       7.489   5.436  11.415  0.00  0.00    +0.000 C 
ATOM     14  C   UNL     1       7.312   4.122  12.165  0.00  0.00    +0.000 C 
ENDBRANCH  10  14
BRANCH  10  15
ATOM     15  C   UNL     1       5.023   3.647  13.194  0.00  0.00    +0.000 C 
ATOM     16  C   UNL     1       4.502   3.245  11.823  0.00  0.00    +0.000 C 
ENDBRANCH  10  15
ENDBRANCH   7  11
ENDBRANCH   1   8
BRANCH   3  17
ATOM     17  O   UNL     1       3.019   3.278  20.231  0.00  0.00    +0.000 OA
BRANCH  17  18
ATOM     18  C   UNL     1       1.610   3.022  20.164  0.00  0.00    +0.000 C 
BRANCH  18  19
ATOM     19  C   UNL     1       1.290   2.125  18.983  0.00  0.00    +0.000 C 
ATOM     20  O   UNL     1       0.210   2.122  18.402  0.00  0.00    +0.000 OA
BRANCH  19  21
ATOM     21  O   UNL     1       2.315   1.320  18.624  0.00  0.00    +0.000 OA
ATOM     22  H   UNL     1       2.649   0.836  19.411  0.00  0.00    +0.000 HD
ENDBRANCH  19  21
ENDBRANCH  18  19
ENDBRANCH  17  18
ENDBRANCH   3  17
BRANCH   5  23
ATOM     23  O   UNL     1       1.949   7.385  18.281  0.00  0.00    +0.000 OA
BRANCH  23  24
ATOM     24  C   UNL     1       2.201   8.720  18.743  0.00  0.00    +0.000 C 
ATOM     25  C   UNL     1       1.943   9.754  17.643  0.00  0.00    +0.000 C 
BRANCH  24  26
ATOM     26  C   UNL     1       1.239   9.011  19.895  0.00  0.00    +0.000 A 
ATOM     27  C   UNL     1       1.402   8.371  21.133  0.00  0.00    +0.000 A 
ATOM     28  C   UNL     1       0.567   8.678  22.212  0.00  0.00    +0.000 A 
ATOM     29  C   UNL     1      -0.442   9.630  22.068  0.00  0.00    +0.000 A 
ATOM     30  C   UNL     1      -0.615  10.279  20.849  0.00  0.00    +0.000 A 
ATOM     31  C   UNL     1       0.222   9.975  19.773  0.00  0.00    +0.000 A 
ENDBRANCH  24  26
ENDBRANCH  23  24
ENDBRANCH   5  23
TORSDOF 11
ENDMDL
MODEL 8
REMARK VINA RESULT:      -7.6      2.954      8.342
REMARK  Name = 
REMARK  15 active torsions:
REMARK  status: ('A' for Active; 'I' for Inactive)
REMARK    1  A    between atoms: C_1  and  C_2
REMARK    2  A    between atoms: C_2  and  N_3
REMARK    3  A    between atoms: N_3  and  C_4
REMARK    4  A    between atoms: C_4  and  C_5
REMARK    5  A    between atoms: C_6  and  C_8
REMARK    6  A    between atoms: C_9  and  C_10
REMARK    7  A    between atoms: C_9  and  C_11
REMARK    8  A    between atoms: C_13  and  O_14
REMARK    9  A    between atoms: O_14  and  C_15
REMARK   10  A    between atoms: C_15  and  C_16
REMARK   11  A    between atoms: C_16  and  O_18
REMARK   12  A    between atoms: C_20  and  O_21
REMARK   13  A    between atoms: O_21  and  C_22
REMARK   14  A    between atoms: C_22  and  C_23
REMARK   15  A    between atoms: C_22  and  C_24
REMARK                            x       y       z     vdW  Elec       q    Type
REMARK                         _______ _______ _______ _____ _____    ______ ____
ROOT
ATOM      1  C   UNL     1       1.751   7.626  19.839  0.00  0.00    +0.000 A 
ATOM      2  C   UNL     1       1.744   6.448  20.595  0.00  0.00    +0.000 A 
ATOM      3  C   UNL     1       2.446   5.326  20.157  0.00  0.00    +0.000 A 
ATOM      4  C   UNL     1       3.105   5.368  18.927  0.00  0.00    +0.000 A 
ATOM      5  C   UNL     1       3.093   6.530  18.145  0.00  0.00    +0.000 A 
ATOM      6  C   UNL     1       2.404   7.655  18.599  0.00  0.00    +0.000 A 
ENDROOT
BRANCH   1   8
ATOM      7  C   UNL     1       0.606   9.733  19.581  0.00  0.00    +0.000 C 
ATOM      8  C   UNL     1       1.169   8.849  20.431  0.00  0.00    +0.000 C 
ATOM      9  C   UNL     1       1.338   8.971  21.917  0.00  0.00    +0.000 C 
BRANCH   7  11
ATOM     10  N   UNL     1       0.711  12.204  19.458  0.00  0.00    +0.000 N 
ATOM     11  C   UNL     1       0.059  11.073  19.964  0.00  0.00    +0.000 C 
ATOM     12  O   UNL     1      -0.924  11.148  20.696  0.00  0.00    +0.000 OA
BRANCH  10  14
ATOM     13  C   UNL     1       0.481  14.164  21.002  0.00  0.00    +0.000 C 
ATOM     14  C   UNL     1       0.055  13.495  19.702  0.00  0.00    +0.000 C 
ENDBRANCH  10  14
BRANCH  10  15
ATOM     15  C   UNL     1       1.924  12.122  18.634  0.00  0.00    +0.000 C 
ATOM     16  C   UNL     1       2.654  13.410  18.281  0.00  0.00    +0.000 C 
ENDBRANCH  10  15
ENDBRANCH   7  11
ENDBRANCH   1   8
BRANCH   3  17
ATOM     17  O   UNL     1       2.581   4.166  20.878  0.00  0.00    +0.000 OA
BRANCH  17  18
ATOM     18  C   UNL     1       1.385   3.380  20.959  0.00  0.00    +0.000 C 
BRANCH  18  19
ATOM     19  C   UNL     1       1.263   2.472  19.750  0.00  0.00    +0.000 C 
ATOM     20  O   UNL     1       2.186   1.794  19.312  0.00  0.00    +0.000 OA
BRANCH  19  21
ATOM     21  O   UNL     1       0.032   2.478  19.193  0.00  0.00    +0.000 OA
ATOM     22  H   UNL     1      -0.118   3.330  18.727  0.00  0.00    +0.000 HD
ENDBRANCH  19  21
ENDBRANCH  18  19
ENDBRANCH  17  18
ENDBRANCH   3  17
BRANCH   5  23
ATOM     23  O   UNL     1       3.890   6.478  17.036  0.00  0.00    +0.000 OA
BRANCH  23  24
ATOM     24  C   UNL     1       4.933   5.495  16.955  0.00  0.00    +0.000 C 
ATOM     25  C   UNL     1       5.251   5.132  15.501  0.00  0.00    +0.000 C 
BRANCH  24  26
ATOM     26  C   UNL     1       6.195   6.093  17.577  0.00  0.00    +0.000 A 
ATOM     27  C   UNL     1       6.670   7.343  17.152  0.00  0.00    +0.000 A 
ATOM     28  C   UNL     1       7.786   7.927  17.759  0.00  0.00    +0.000 A 
ATOM     29  C   UNL     1       8.443   7.270  18.798  0.00  0.00    +0.000 A 
ATOM     30  C   UNL     1       7.983   6.031  19.236  0.00  0.00    +0.000 A 
ATOM     31  C   UNL     1       6.865   5.450  18.633  0.00  0.00    +0.000 A 
ENDBRANCH  24  26
ENDBRANCH  23  24
ENDBRANCH   5  23
TORSDOF 11
ENDMDL
MODEL 9
REMARK VINA RESULT:      -7.6      2.908      8.730
REMARK  Name = 
REMARK  15 active torsions:
REMARK  status: ('A' for Active; 'I' for Inactive)
REMARK    1  A    between atoms: C_1  and  C_2
REMARK    2  A    between atoms: C_2  and  N_3
REMARK    3  A    between atoms: N_3  and  C_4
REMARK    4  A    between atoms: C_4  and  C_5
REMARK    5  A    between atoms: C_6  and  C_8
REMARK    6  A    between atoms: C_9  and  C_10
REMARK    7  A    between atoms: C_9  and  C_11
REMARK    8  A    between atoms: C_13  and  O_14
REMARK    9  A    between atoms: O_14  and  C_15
REMARK   10  A    between atoms: C_15  and  C_16
REMARK   11  A    between atoms: C_16  and  O_18
REMARK   12  A    between atoms: C_20  and  O_21
REMARK   13  A    between atoms: O_21  and  C_22
REMARK   14  A    between atoms: C_22  and  C_23
REMARK   15  A    between atoms: C_22  and  C_24
REMARK                            x       y       z     vdW  Elec       q    Type
REMARK                         _______ _______ _______ _____ _____    ______ ____
ROOT
ATOM      1  C   UNL     1       3.363   6.515  18.955  0.00  0.00    +0.000 A 
ATOM      2  C   UNL     1       3.770   6.745  17.636  0.00  0.00    +0.000 A 
ATOM      3  C   UNL     1       4.695   5.898  17.027  0.00  0.00    +0.000 A 
ATOM      4  C   UNL     1       5.260   4.857  17.766  0.00  0.00    +0.000 A 
ATOM      5  C   UNL     1       4.886   4.636  19.098  0.00  0.00    +0.000 A 
ATOM      6  C   UNL     1       3.945   5.475  19.694  0.00  0.00    +0.000 A 
ENDROOT
BRANCH   1   8
ATOM      7  C   UNL     1       2.027   8.523  18.950  0.00  0.00    +0.000 C 
ATOM      8  C   UNL     1       2.236   7.306  19.494  0.00  0.00    +0.000 C 
ATOM      9  C   UNL     1       1.501   6.661  20.632  0.00  0.00    +0.000 C 
BRANCH   7  11
ATOM     10  N   UNL     1       1.111  10.824  18.928  0.00  0.00    +0.000 N 
ATOM     11  C   UNL     1       1.013   9.518  19.423  0.00  0.00    +0.000 C 
ATOM     12  O   UNL     1       0.139   9.175  20.215  0.00  0.00    +0.000 OA
BRANCH  10  14
ATOM     13  C   UNL     1      -1.089  11.785  18.209  0.00  0.00    +0.000 C 
ATOM     14  C   UNL     1       0.006  11.731  19.266  0.00  0.00    +0.000 C 
ENDBRANCH  10  14
BRANCH  10  15
ATOM     15  C   UNL     1       2.190  11.257  18.030  0.00  0.00    +0.000 C 
ATOM     16  C   UNL     1       2.654  12.704  18.094  0.00  0.00    +0.000 C 
ENDBRANCH  10  15
ENDBRANCH   7  11
ENDBRANCH   1   8
BRANCH   3  17
ATOM     17  O   UNL     1       5.075   5.982  15.711  0.00  0.00    +0.000 OA
BRANCH  17  18
ATOM     18  C   UNL     1       5.182   4.717  15.046  0.00  0.00    +0.000 C 
BRANCH  18  19
ATOM     19  C   UNL     1       6.541   4.576  14.388  0.00  0.00    +0.000 C 
ATOM     20  O   UNL     1       7.499   5.298  14.640  0.00  0.00    +0.000 OA
BRANCH  19  21
ATOM     21  O   UNL     1       6.603   3.569  13.488  0.00  0.00    +0.000 OA
ATOM     22  H   UNL     1       6.824   3.930  12.601  0.00  0.00    +0.000 HD
ENDBRANCH  19  21
ENDBRANCH  18  19
ENDBRANCH  17  18
ENDBRANCH   3  17
BRANCH   5  23
ATOM     23  O   UNL     1       5.409   3.504  19.656  0.00  0.00    +0.000 OA
BRANCH  23  24
ATOM     24  C   UNL     1       4.685   2.268  19.570  0.00  0.00    +0.000 C 
ATOM     25  C   UNL     1       5.108   1.291  20.671  0.00  0.00    +0.000 C 
BRANCH  24  26
ATOM     26  C   UNL     1       3.200   2.576  19.762  0.00  0.00    +0.000 A 
ATOM     27  C   UNL     1       2.334   2.604  18.658  0.00  0.00    +0.000 A 
ATOM     28  C   UNL     1       0.963   2.821  18.832  0.00  0.00    +0.000 A 
ATOM     29  C   UNL     1       0.439   3.013  20.109  0.00  0.00    +0.000 A 
ATOM     30  C   UNL     1       1.283   2.984  21.216  0.00  0.00    +0.000 A 
ATOM     31  C   UNL     1       2.652   2.762  21.044  0.00  0.00    +0.000 A 
ENDBRANCH  24  26
ENDBRANCH  23  24
ENDBRANCH   5  23
TORSDOF 11
ENDMDL
