MODEL 1
REMARK VINA RESULT:      -7.4      0.000      0.000
REMARK  Name = 
REMARK  11 active torsions:
REMARK  status: ('A' for Active; 'I' for Inactive)
REMARK    1  A    between atoms: C_1  and  N_2
REMARK    2  A    between atoms: C_3  and  S_4
REMARK    3  A    between atoms: N_5  and  C_6
REMARK    4  A    between atoms: N_5  and  C_12
REMARK    5  A    between atoms: C_6  and  C_7
REMARK    6  A    between atoms: C_7  and  C_8
REMARK    7  A    between atoms: C_8  and  N_9
REMARK    8  A    between atoms: N_9  and  C_10
REMARK    9  A    between atoms: N_9  and  C_11
REMARK   10  A    between atoms: C_12  and  C_13
REMARK   11  A    between atoms: C_22  and  O_23
REMARK                            x       y       z     vdW  Elec       q    Type
REMARK                         _______ _______ _______ _____ _____    ______ ____
ROOT
ATOM      1  C   UNL     1       3.707   6.269  18.535  0.00  0.00    +0.000 A 
ATOM      2  C   UNL     1       2.855   6.566  19.605  0.00  0.00    +0.000 A 
ATOM      3  C   UNL     1       2.084   7.736  19.595  0.00  0.00    +0.000 A 
ATOM      4  C   UNL     1       1.260   8.085  20.681  0.00  0.00    +0.000 A 
ATOM      5  C   UNL     1       0.537   9.274  20.651  0.00  0.00    +0.000 A 
ATOM      6  C   UNL     1       0.593  10.088  19.522  0.00  0.00    +0.000 A 
ATOM      7  C   UNL     1       1.415   9.744  18.448  0.00  0.00    +0.000 A 
ATOM      8  C   UNL     1       2.174   8.579  18.465  0.00  0.00    +0.000 A 
ATOM      9  N   UNL     1       2.964   8.294  17.417  0.00  0.00    +0.000 NA
ATOM     10  C   UNL     1       3.700   7.170  17.487  0.00  0.00    +0.000 A 
ATOM     11  O   UNL     1      -0.130  11.249  19.397  0.00  0.00    +0.000 OA
ATOM     12  C   UNL     1      -1.175  11.316  20.375  0.00  0.00    +0.000 C 
ATOM     13  C   UNL     1      -0.638  10.943  21.747  0.00  0.00    +0.000 C 
ATOM     14  O   UNL     1      -0.207   9.576  21.762  0.00  0.00    +0.000 OA
ENDROOT
BRANCH  10  15
ATOM     15  O   UNL     1       4.481   6.988  16.395  0.00  0.00    +0.000 OA
ATOM     16  H   UNL     1       4.170   6.108  16.113  0.00  0.00    +0.000 HD
ENDBRANCH  10  15
BRANCH   1  17
ATOM     17  C   UNL     1       4.578   5.041  18.547  0.00  0.00    +0.000 C 
BRANCH  17  21
ATOM     18  C   UNL     1       6.396   3.958  14.129  0.00  0.00    +0.000 C 
ATOM     19  N   UNL     1       5.378   3.993  15.150  0.00  0.00    +0.000 NA
ATOM     20  C   UNL     1       5.575   4.251  16.401  0.00  0.00    +0.000 C 
ATOM     21  N   UNL     1       4.553   4.171  17.350  0.00  0.00    +0.000 N 
BRANCH  20  22
ATOM     22  S   UNL     1       7.187   4.653  17.025  0.00  0.00    +0.000 S 
ATOM     23  H   UNL     1       7.781   4.971  15.876  0.00  0.00    +0.000 HD
ENDBRANCH  20  22
BRANCH  21  24
ATOM     24  C   UNL     1       3.316   3.414  17.077  0.00  0.00    +0.000 C 
BRANCH  24  25
ATOM     25  C   UNL     1       3.016   2.278  18.060  0.00  0.00    +0.000 C 
BRANCH  25  26
ATOM     26  C   UNL     1       1.602   2.329  18.651  0.00  0.00    +0.000 C 
BRANCH  26  27
ATOM     27  N   UNL     1       1.572   2.569  20.107  0.00  0.00    +0.000 NA
ATOM     28  C   UNL     1       2.915   2.640  20.684  0.00  0.00    +0.000 C 
ATOM     29  C   UNL     1       0.833   3.795  20.402  0.00  0.00    +0.000 C 
ENDBRANCH  26  27
ENDBRANCH  25  26
ENDBRANCH  24  25
ENDBRANCH  21  24
ENDBRANCH  17  21
ENDBRANCH   1  17
TORSDOF 8
ENDMDL
MODEL 2
REMARK VINA RESULT:      -7.2      2.316      4.192
REMARK  Name = 
REMARK  11 active torsions:
REMARK  status: ('A' for Active; 'I' for Inactive)
REMARK    1  A    between atoms: C_1  and  N_2
REMARK    2  A    between atoms: C_3  and  S_4
REMARK    3  A    between atoms: N_5  and  C_6
REMARK    4  A    between atoms: N_5  and  C_12
REMARK    5  A    between atoms: C_6  and  C_7
REMARK    6  A    between atoms: C_7  and  C_8
REMARK    7  A    between atoms: C_8  and  N_9
REMARK    8  A    between atoms: N_9  and  C_10
REMARK    9  A    between atoms: N_9  and  C_11
REMARK   10  A    between atoms: C_12  and  C_13
REMARK   11  A    between atoms: C_22  and  O_23
REMARK                            x       y       z     vdW  Elec       q    Type
REMARK                         _______ _______ _______ _____ _____    ______ ____
ROOT
ATOM      1  C   UNL     1       2.579   6.210  18.865  0.00  0.00    +0.000 A 
ATOM      2  C   UNL     1       2.515   7.465  18.248  0.00  0.00    +0.000 A 
ATOM      3  C   UNL     1       1.921   8.550  18.909  0.00  0.00    +0.000 A 
ATOM      4  C   UNL     1       1.796   9.808  18.292  0.00  0.00    +0.000 A 
ATOM      5  C   UNL     1       1.168  10.852  18.966  0.00  0.00    +0.000 A 
ATOM      6  C   UNL     1       0.714  10.660  20.269  0.00  0.00    +0.000 A 
ATOM      7  C   UNL     1       0.834   9.409  20.877  0.00  0.00    +0.000 A 
ATOM      8  C   UNL     1       1.427   8.340  20.216  0.00  0.00    +0.000 A 
ATOM      9  N   UNL     1       1.508   7.149  20.831  0.00  0.00    +0.000 NA
ATOM     10  C   UNL     1       2.066   6.136  20.145  0.00  0.00    +0.000 A 
ATOM     11  O   UNL     1       0.131  11.654  21.014  0.00  0.00    +0.000 OA
ATOM     12  C   UNL     1       0.375  12.944  20.439  0.00  0.00    +0.000 C 
ATOM     13  C   UNL     1       0.110  12.913  18.943  0.00  0.00    +0.000 C 
ATOM     14  O   UNL     1       1.035  12.037  18.288  0.00  0.00    +0.000 OA
ENDROOT
BRANCH  10  15
ATOM     15  O   UNL     1       2.075   4.975  20.843  0.00  0.00    +0.000 OA
ATOM     16  H   UNL     1       1.281   5.107  21.395  0.00  0.00    +0.000 HD
ENDBRANCH  10  15
BRANCH   1  17
ATOM     17  C   UNL     1       3.171   5.021  18.154  0.00  0.00    +0.000 C 
BRANCH  17  21
ATOM     18  C   UNL     1       5.027   1.207  20.604  0.00  0.00    +0.000 C 
ATOM     19  N   UNL     1       4.972   2.583  20.177  0.00  0.00    +0.000 NA
ATOM     20  C   UNL     1       4.274   3.036  19.187  0.00  0.00    +0.000 C 
ATOM     21  N   UNL     1       4.346   4.368  18.771  0.00  0.00    +0.000 N 
BRANCH  20  22
ATOM     22  S   UNL     1       3.225   1.977  18.226  0.00  0.00    +0.000 S 
ATOM     23  H   UNL     1       2.531   2.909  17.574  0.00  0.00    +0.000 HD
ENDBRANCH  20  22
BRANCH  21  24
ATOM     24  C   UNL     1       5.487   5.224  19.149  0.00  0.00    +0.000 C 
BRANCH  24  25
ATOM     25  C   UNL     1       6.731   5.079  18.268  0.00  0.00    +0.000 C 
BRANCH  25  26
ATOM     26  C   UNL     1       6.972   6.273  17.336  0.00  0.00    +0.000 C 
BRANCH  26  27
ATOM     27  N   UNL     1       6.651   5.999  15.922  0.00  0.00    +0.000 NA
ATOM     28  C   UNL     1       6.855   4.593  15.570  0.00  0.00    +0.000 C 
ATOM     29  C   UNL     1       5.275   6.395  15.630  0.00  0.00    +0.000 C 
ENDBRANCH  26  27
ENDBRANCH  25  26
ENDBRANCH  24  25
ENDBRANCH  21  24
ENDBRANCH  17  21
ENDBRANCH   1  17
TORSDOF 8
ENDMDL
MODEL 3
REMARK VINA RESULT:      -7.2      1.304      1.707
REMARK  Name = 
REMARK  11 active torsions:
REMARK  status: ('A' for Active; 'I' for Inactive)
REMARK    1  A    between atoms: C_1  and  N_2
REMARK    2  A    between atoms: C_3  and  S_4
REMARK    3  A    between atoms: N_5  and  C_6
REMARK    4  A    between atoms: N_5  and  C_12
REMARK    5  A    between atoms: C_6  and  C_7
REMARK    6  A    between atoms: C_7  and  C_8
REMARK    7  A    between atoms: C_8  and  N_9
REMARK    8  A    between atoms: N_9  and  C_10
REMARK    9  A    between atoms: N_9  and  C_11
REMARK   10  A    between atoms: C_12  and  C_13
REMARK   11  A    between atoms: C_22  and  O_23
REMARK                            x       y       z     vdW  Elec       q    Type
REMARK                         _______ _______ _______ _____ _____    ______ ____
ROOT
ATOM      1  C   UNL     1       2.529   7.082  19.544  0.00  0.00    +0.000 A 
ATOM      2  C   UNL     1       1.747   7.389  20.663  0.00  0.00    +0.000 A 
ATOM      3  C   UNL     1       0.999   8.574  20.701  0.00  0.00    +0.000 A 
ATOM      4  C   UNL     1       0.246   8.933  21.834  0.00  0.00    +0.000 A 
ATOM      5  C   UNL     1      -0.456  10.136  21.849  0.00  0.00    +0.000 A 
ATOM      6  C   UNL     1      -0.451  10.953  20.721  0.00  0.00    +0.000 A 
ATOM      7  C   UNL     1       0.301  10.598  19.600  0.00  0.00    +0.000 A 
ATOM      8  C   UNL     1       1.038   9.419  19.570  0.00  0.00    +0.000 A 
ATOM      9  N   UNL     1       1.761   9.123  18.477  0.00  0.00    +0.000 NA
ATOM     10  C   UNL     1       2.478   7.986  18.501  0.00  0.00    +0.000 A 
ATOM     11  O   UNL     1      -1.158  12.127  20.642  0.00  0.00    +0.000 OA
ATOM     12  C   UNL     1      -2.143  12.210  21.679  0.00  0.00    +0.000 C 
ATOM     13  C   UNL     1      -1.534  11.822  23.017  0.00  0.00    +0.000 C 
ATOM     14  O   UNL     1      -1.128  10.447  23.003  0.00  0.00    +0.000 OA
ENDROOT
BRANCH  10  15
ATOM     15  O   UNL     1       3.191   7.794  17.365  0.00  0.00    +0.000 OA
ATOM     16  H   UNL     1       2.485   7.918  16.703  0.00  0.00    +0.000 HD
ENDBRANCH  10  15
BRANCH   1  17
ATOM     17  C   UNL     1       3.376   5.837  19.502  0.00  0.00    +0.000 C 
BRANCH  17  21
ATOM     18  C   UNL     1       5.479   4.199  15.393  0.00  0.00    +0.000 C 
ATOM     19  N   UNL     1       4.366   4.543  16.243  0.00  0.00    +0.000 NA
ATOM     20  C   UNL     1       4.430   4.756  17.516  0.00  0.00    +0.000 C 
ATOM     21  N   UNL     1       3.292   4.990  18.292  0.00  0.00    +0.000 N 
BRANCH  20  22
ATOM     22  S   UNL     1       5.970   4.687  18.395  0.00  0.00    +0.000 S 
ATOM     23  H   UNL     1       6.737   5.336  17.520  0.00  0.00    +0.000 HD
ENDBRANCH  20  22
BRANCH  21  24
ATOM     24  C   UNL     1       1.949   4.617  17.808  0.00  0.00    +0.000 C 
BRANCH  24  25
ATOM     25  C   UNL     1       1.143   3.719  18.751  0.00  0.00    +0.000 C 
BRANCH  25  26
ATOM     26  C   UNL     1       1.794   2.355  19.015  0.00  0.00    +0.000 C 
BRANCH  26  27
ATOM     27  N   UNL     1       2.252   2.174  20.406  0.00  0.00    +0.000 NA
ATOM     28  C   UNL     1       3.697   2.364  20.543  0.00  0.00    +0.000 C 
ATOM     29  C   UNL     1       1.538   3.088  21.296  0.00  0.00    +0.000 C 
ENDBRANCH  26  27
ENDBRANCH  25  26
ENDBRANCH  24  25
ENDBRANCH  21  24
ENDBRANCH  17  21
ENDBRANCH   1  17
TORSDOF 8
ENDMDL
MODEL 4
REMARK VINA RESULT:      -7.0      4.110      8.156
REMARK  Name = 
REMARK  11 active torsions:
REMARK  status: ('A' for Active; 'I' for Inactive)
REMARK    1  A    between atoms: C_1  and  N_2
REMARK    2  A    between atoms: C_3  and  S_4
REMARK    3  A    between atoms: N_5  and  C_6
REMARK    4  A    between atoms: N_5  and  C_12
REMARK    5  A    between atoms: C_6  and  C_7
REMARK    6  A    between atoms: C_7  and  C_8
REMARK    7  A    between atoms: C_8  and  N_9
REMARK    8  A    between atoms: N_9  and  C_10
REMARK    9  A    between atoms: N_9  and  C_11
REMARK   10  A    between atoms: C_12  and  C_13
REMARK   11  A    between atoms: C_22  and  O_23
REMARK                            x       y       z     vdW  Elec       q    Type
REMARK                         _______ _______ _______ _____ _____    ______ ____
ROOT
ATOM      1  C   UNL     1       1.400   9.638  19.602  0.00  0.00    +0.000 A 
ATOM      2  C   UNL     1       1.396   8.534  20.462  0.00  0.00    +0.000 A 
ATOM      3  C   UNL     1       1.777   7.269  19.994  0.00  0.00    +0.000 A 
ATOM      4  C   UNL     1       1.733   6.133  20.823  0.00  0.00    +0.000 A 
ATOM      5  C   UNL     1       2.085   4.886  20.313  0.00  0.00    +0.000 A 
ATOM      6  C   UNL     1       2.530   4.779  18.998  0.00  0.00    +0.000 A 
ATOM      7  C   UNL     1       2.569   5.906  18.175  0.00  0.00    +0.000 A 
ATOM      8  C   UNL     1       2.191   7.157  18.648  0.00  0.00    +0.000 A 
ATOM      9  N   UNL     1       2.228   8.213  17.818  0.00  0.00    +0.000 NA
ATOM     10  C   UNL     1       1.830   9.399  18.311  0.00  0.00    +0.000 A 
ATOM     11  O   UNL     1       2.942   3.594  18.439  0.00  0.00    +0.000 OA
ATOM     12  C   UNL     1       3.190   2.606  19.446  0.00  0.00    +0.000 C 
ATOM     13  C   UNL     1       2.047   2.574  20.448  0.00  0.00    +0.000 C 
ATOM     14  O   UNL     1       1.971   3.814  21.160  0.00  0.00    +0.000 OA
ENDROOT
BRANCH  10  15
ATOM     15  O   UNL     1       1.879  10.391  17.388  0.00  0.00    +0.000 OA
ATOM     16  H   UNL     1       0.927  10.584  17.302  0.00  0.00    +0.000 HD
ENDBRANCH  10  15
BRANCH   1  17
ATOM     17  C   UNL     1       0.949  10.996  20.072  0.00  0.00    +0.000 C 
BRANCH  17  21
ATOM     18  C   UNL     1      -2.976  13.108  22.103  0.00  0.00    +0.000 C 
ATOM     19  N   UNL     1      -2.293  12.144  21.277  0.00  0.00    +0.000 NA
ATOM     20  C   UNL     1      -1.063  12.226  20.885  0.00  0.00    +0.000 C 
ATOM     21  N   UNL     1      -0.497  11.300  20.005  0.00  0.00    +0.000 N 
BRANCH  20  22
ATOM     22  S   UNL     1      -0.017  13.572  21.376  0.00  0.00    +0.000 S 
ATOM     23  H   UNL     1      -0.937  14.354  21.940  0.00  0.00    +0.000 HD
ENDBRANCH  20  22
BRANCH  21  24
ATOM     24  C   UNL     1      -1.343  10.431  19.165  0.00  0.00    +0.000 C 
BRANCH  24  25
ATOM     25  C   UNL     1      -1.655  10.978  17.768  0.00  0.00    +0.000 C 
BRANCH  25  26
ATOM     26  C   UNL     1      -2.021   9.893  16.747  0.00  0.00    +0.000 C 
BRANCH  26  27
ATOM     27  N   UNL     1      -3.331  10.102  16.101  0.00  0.00    +0.000 NA
ATOM     28  C   UNL     1      -4.028  11.276  16.627  0.00  0.00    +0.000 C 
ATOM     29  C   UNL     1      -3.166  10.223  14.653  0.00  0.00    +0.000 C 
ENDBRANCH  26  27
ENDBRANCH  25  26
ENDBRANCH  24  25
ENDBRANCH  21  24
ENDBRANCH  17  21
ENDBRANCH   1  17
TORSDOF 8
ENDMDL
MODEL 5
REMARK VINA RESULT:      -7.0      2.153      4.356
REMARK  Name = 
REMARK  11 active torsions:
REMARK  status: ('A' for Active; 'I' for Inactive)
REMARK    1  A    between atoms: C_1  and  N_2
REMARK    2  A    between atoms: C_3  and  S_4
REMARK    3  A    between atoms: N_5  and  C_6
REMARK    4  A    between atoms: N_5  and  C_12
REMARK    5  A    between atoms: C_6  and  C_7
REMARK    6  A    between atoms: C_7  and  C_8
REMARK    7  A    between atoms: C_8  and  N_9
REMARK    8  A    between atoms: N_9  and  C_10
REMARK    9  A    between atoms: N_9  and  C_11
REMARK   10  A    between atoms: C_12  and  C_13
REMARK   11  A    between atoms: C_22  and  O_23
REMARK                            x       y       z     vdW  Elec       q    Type
REMARK                         _______ _______ _______ _____ _____    ______ ____
ROOT
ATOM      1  C   UNL     1       3.417   5.932  18.309  0.00  0.00    +0.000 A 
ATOM      2  C   UNL     1       3.013   7.216  17.925  0.00  0.00    +0.000 A 
ATOM      3  C   UNL     1       2.203   7.988  18.771  0.00  0.00    +0.000 A 
ATOM      4  C   UNL     1       1.740   9.259  18.387  0.00  0.00    +0.000 A 
ATOM      5  C   UNL     1       0.907   9.981  19.238  0.00  0.00    +0.000 A 
ATOM      6  C   UNL     1       0.580   9.461  20.489  0.00  0.00    +0.000 A 
ATOM      7  C   UNL     1       1.036   8.197  20.865  0.00  0.00    +0.000 A 
ATOM      8  C   UNL     1       1.841   7.440  20.022  0.00  0.00    +0.000 A 
ATOM      9  N   UNL     1       2.245   6.221  20.417  0.00  0.00    +0.000 NA
ATOM     10  C   UNL     1       3.002   5.514  19.558  0.00  0.00    +0.000 A 
ATOM     11  O   UNL     1      -0.193  10.135  21.402  0.00  0.00    +0.000 OA
ATOM     12  C   UNL     1      -0.305  11.522  21.064  0.00  0.00    +0.000 C 
ATOM     13  C   UNL     1      -0.628  11.681  19.587  0.00  0.00    +0.000 C 
ATOM     14  O   UNL     1       0.452  11.191  18.782  0.00  0.00    +0.000 OA
ENDROOT
BRANCH  10  15
ATOM     15  O   UNL     1       3.332   4.291  20.040  0.00  0.00    +0.000 OA
ATOM     16  H   UNL     1       3.628   3.863  19.216  0.00  0.00    +0.000 HD
ENDBRANCH  10  15
BRANCH   1  17
ATOM     17  C   UNL     1       4.248   5.070  17.397  0.00  0.00    +0.000 C 
BRANCH  17  21
ATOM     18  C   UNL     1       8.173   7.976  17.773  0.00  0.00    +0.000 C 
ATOM     19  N   UNL     1       7.092   7.325  17.075  0.00  0.00    +0.000 NA
ATOM     20  C   UNL     1       6.395   6.333  17.525  0.00  0.00    +0.000 C 
ATOM     21  N   UNL     1       5.425   5.690  16.751  0.00  0.00    +0.000 N 
BRANCH  20  22
ATOM     22  S   UNL     1       6.673   5.658  19.142  0.00  0.00    +0.000 S 
ATOM     23  H   UNL     1       7.548   6.556  19.594  0.00  0.00    +0.000 HD
ENDBRANCH  20  22
BRANCH  21  24
ATOM     24  C   UNL     1       5.414   5.820  15.281  0.00  0.00    +0.000 C 
BRANCH  24  25
ATOM     25  C   UNL     1       6.414   4.927  14.540  0.00  0.00    +0.000 C 
BRANCH  25  26
ATOM     26  C   UNL     1       5.767   3.728  13.836  0.00  0.00    +0.000 C 
BRANCH  26  27
ATOM     27  N   UNL     1       5.810   3.810  12.363  0.00  0.00    +0.000 NA
ATOM     28  C   UNL     1       7.009   3.183  11.807  0.00  0.00    +0.000 C 
ATOM     29  C   UNL     1       4.611   3.199  11.788  0.00  0.00    +0.000 C 
ENDBRANCH  26  27
ENDBRANCH  25  26
ENDBRANCH  24  25
ENDBRANCH  21  24
ENDBRANCH  17  21
ENDBRANCH   1  17
TORSDOF 8
ENDMDL
MODEL 6
REMARK VINA RESULT:      -6.9      2.590      4.416
REMARK  Name = 
REMARK  11 active torsions:
REMARK  status: ('A' for Active; 'I' for Inactive)
REMARK    1  A    between atoms: C_1  and  N_2
REMARK    2  A    between atoms: C_3  and  S_4
REMARK    3  A    between atoms: N_5  and  C_6
REMARK    4  A    between atoms: N_5  and  C_12
REMARK    5  A    between atoms: C_6  and  C_7
REMARK    6  A    between atoms: C_7  and  C_8
REMARK    7  A    between atoms: C_8  and  N_9
REMARK    8  A    between atoms: N_9  and  C_10
REMARK    9  A    between atoms: N_9  and  C_11
REMARK   10  A    between atoms: C_12  and  C_13
REMARK   11  A    between atoms: C_22  and  O_23
REMARK                            x       y       z     vdW  Elec       q    Type
REMARK                         _______ _______ _______ _____ _____    ______ ____
ROOT
ATOM      1  C   UNL     1       2.608   5.920  18.994  0.00  0.00    +0.000 A 
ATOM      2  C   UNL     1       2.562   7.159  18.345  0.00  0.00    +0.000 A 
ATOM      3  C   UNL     1       1.971   8.265  18.970  0.00  0.00    +0.000 A 
ATOM      4  C   UNL     1       1.863   9.508  18.321  0.00  0.00    +0.000 A 
ATOM      5  C   UNL     1       1.237  10.575  18.960  0.00  0.00    +0.000 A 
ATOM      6  C   UNL     1       0.766  10.420  20.262  0.00  0.00    +0.000 A 
ATOM      7  C   UNL     1       0.868   9.184  20.903  0.00  0.00    +0.000 A 
ATOM      8  C   UNL     1       1.459   8.093  20.276  0.00  0.00    +0.000 A 
ATOM      9  N   UNL     1       1.522   6.917  20.923  0.00  0.00    +0.000 NA
ATOM     10  C   UNL     1       2.079   5.883  20.268  0.00  0.00    +0.000 A 
ATOM     11  O   UNL     1       0.183  11.438  20.975  0.00  0.00    +0.000 OA
ATOM     12  C   UNL     1       0.446  12.710  20.371  0.00  0.00    +0.000 C 
ATOM     13  C   UNL     1       0.198  12.644  18.873  0.00  0.00    +0.000 C 
ATOM     14  O   UNL     1       1.123  11.743  18.251  0.00  0.00    +0.000 OA
ENDROOT
BRANCH  10  15
ATOM     15  O   UNL     1       2.069   4.739  20.996  0.00  0.00    +0.000 OA
ATOM     16  H   UNL     1       1.977   5.114  21.892  0.00  0.00    +0.000 HD
ENDBRANCH  10  15
BRANCH   1  17
ATOM     17  C   UNL     1       3.197   4.708  18.321  0.00  0.00    +0.000 C 
BRANCH  17  21
ATOM     18  C   UNL     1       5.140   0.992  20.852  0.00  0.00    +0.000 C 
ATOM     19  N   UNL     1       5.059   2.354  20.388  0.00  0.00    +0.000 NA
ATOM     20  C   UNL     1       4.343   2.770  19.394  0.00  0.00    +0.000 C 
ATOM     21  N   UNL     1       4.390   4.091  18.941  0.00  0.00    +0.000 N 
BRANCH  20  22
ATOM     22  S   UNL     1       3.299   1.668  18.475  0.00  0.00    +0.000 S 
ATOM     23  H   UNL     1       2.448   1.332  19.444  0.00  0.00    +0.000 HD
ENDBRANCH  20  22
BRANCH  21  24
ATOM     24  C   UNL     1       5.521   4.974  19.282  0.00  0.00    +0.000 C 
BRANCH  24  25
ATOM     25  C   UNL     1       6.681   4.963  18.281  0.00  0.00    +0.000 C 
BRANCH  25  26
ATOM     26  C   UNL     1       7.585   6.199  18.368  0.00  0.00    +0.000 C 
BRANCH  26  27
ATOM     27  N   UNL     1       7.397   7.153  17.258  0.00  0.00    +0.000 NA
ATOM     28  C   UNL     1       6.014   7.185  16.784  0.00  0.00    +0.000 C 
ATOM     29  C   UNL     1       7.820   8.492  17.666  0.00  0.00    +0.000 C 
ENDBRANCH  26  27
ENDBRANCH  25  26
ENDBRANCH  24  25
ENDBRANCH  21  24
ENDBRANCH  17  21
ENDBRANCH   1  17
TORSDOF 8
ENDMDL
MODEL 7
REMARK VINA RESULT:      -6.9      2.019      2.722
REMARK  Name = 
REMARK  11 active torsions:
REMARK  status: ('A' for Active; 'I' for Inactive)
REMARK    1  A    between atoms: C_1  and  N_2
REMARK    2  A    between atoms: C_3  and  S_4
REMARK    3  A    between atoms: N_5  and  C_6
REMARK    4  A    between atoms: N_5  and  C_12
REMARK    5  A    between atoms: C_6  and  C_7
REMARK    6  A    between atoms: C_7  and  C_8
REMARK    7  A    between atoms: C_8  and  N_9
REMARK    8  A    between atoms: N_9  and  C_10
REMARK    9  A    between atoms: N_9  and  C_11
REMARK   10  A    between atoms: C_12  and  C_13
REMARK   11  A    between atoms: C_22  and  O_23
REMARK                            x       y       z     vdW  Elec       q    Type
REMARK                         _______ _______ _______ _____ _____    ______ ____
ROOT
ATOM      1  C   UNL     1       2.365   6.848  18.803  0.00  0.00    +0.000 A 
ATOM      2  C   UNL     1       2.232   8.090  18.171  0.00  0.00    +0.000 A 
ATOM      3  C   UNL     1       1.707   9.188  18.867  0.00  0.00    +0.000 A 
ATOM      4  C   UNL     1       1.514  10.432  18.241  0.00  0.00    +0.000 A 
ATOM      5  C   UNL     1       0.956  11.490  18.954  0.00  0.00    +0.000 A 
ATOM      6  C   UNL     1       0.641  11.324  20.301  0.00  0.00    +0.000 A 
ATOM      7  C   UNL     1       0.828  10.087  20.919  0.00  0.00    +0.000 A 
ATOM      8  C   UNL     1       1.352   9.005  20.222  0.00  0.00    +0.000 A 
ATOM      9  N   UNL     1       1.501   7.827  20.851  0.00  0.00    +0.000 NA
ATOM     10  C   UNL     1       1.988   6.800  20.131  0.00  0.00    +0.000 A 
ATOM     11  O   UNL     1       0.136  12.334  21.082  0.00  0.00    +0.000 OA
ATOM     12  C   UNL     1       0.314  13.611  20.459  0.00  0.00    +0.000 C 
ATOM     13  C   UNL     1      -0.105  13.549  18.999  0.00  0.00    +0.000 C 
ATOM     14  O   UNL     1       0.750  12.660  18.270  0.00  0.00    +0.000 OA
ENDROOT
BRANCH  10  15
ATOM     15  O   UNL     1       2.073   5.654  20.849  0.00  0.00    +0.000 OA
ATOM     16  H   UNL     1       2.423   5.054  20.163  0.00  0.00    +0.000 HD
ENDBRANCH  10  15
BRANCH   1  17
ATOM     17  C   UNL     1       2.883   5.645  18.060  0.00  0.00    +0.000 C 
BRANCH  17  21
ATOM     18  C   UNL     1       7.277   4.725  16.101  0.00  0.00    +0.000 C 
ATOM     19  N   UNL     1       6.243   4.611  17.099  0.00  0.00    +0.000 NA
ATOM     20  C   UNL     1       5.213   5.386  17.206  0.00  0.00    +0.000 C 
ATOM     21  N   UNL     1       4.301   5.274  18.259  0.00  0.00    +0.000 N 
BRANCH  20  22
ATOM     22  S   UNL     1       4.919   6.708  16.060  0.00  0.00    +0.000 S 
ATOM     23  H   UNL     1       5.337   7.728  16.808  0.00  0.00    +0.000 HD
ENDBRANCH  20  22
BRANCH  21  24
ATOM     24  C   UNL     1       4.657   4.565  19.503  0.00  0.00    +0.000 C 
BRANCH  24  25
ATOM     25  C   UNL     1       4.516   3.041  19.449  0.00  0.00    +0.000 C 
BRANCH  25  26
ATOM     26  C   UNL     1       3.605   2.464  20.540  0.00  0.00    +0.000 C 
BRANCH  26  27
ATOM     27  N   UNL     1       2.191   2.865  20.407  0.00  0.00    +0.000 NA
ATOM     28  C   UNL     1       1.548   2.254  19.244  0.00  0.00    +0.000 C 
ATOM     29  C   UNL     1       1.454   2.528  21.624  0.00  0.00    +0.000 C 
ENDBRANCH  26  27
ENDBRANCH  25  26
ENDBRANCH  24  25
ENDBRANCH  21  24
ENDBRANCH  17  21
ENDBRANCH   1  17
TORSDOF 8
ENDMDL
MODEL 8
REMARK VINA RESULT:      -6.7      3.876      8.174
REMARK  Name = 
REMARK  11 active torsions:
REMARK  status: ('A' for Active; 'I' for Inactive)
REMARK    1  A    between atoms: C_1  and  N_2
REMARK    2  A    between atoms: C_3  and  S_4
REMARK    3  A    between atoms: N_5  and  C_6
REMARK    4  A    between atoms: N_5  and  C_12
REMARK    5  A    between atoms: C_6  and  C_7
REMARK    6  A    between atoms: C_7  and  C_8
REMARK    7  A    between atoms: C_8  and  N_9
REMARK    8  A    between atoms: N_9  and  C_10
REMARK    9  A    between atoms: N_9  and  C_11
REMARK   10  A    between atoms: C_12  and  C_13
REMARK   11  A    between atoms: C_22  and  O_23
REMARK                            x       y       z     vdW  Elec       q    Type
REMARK                         _______ _______ _______ _____ _____    ______ ____
ROOT
ATOM      1  C   UNL     1       1.013   9.309  19.338  0.00  0.00    +0.000 A 
ATOM      2  C   UNL     1       1.078   8.172  20.151  0.00  0.00    +0.000 A 
ATOM      3  C   UNL     1       1.891   7.088  19.790  0.00  0.00    +0.000 A 
ATOM      4  C   UNL     1       1.935   5.912  20.561  0.00  0.00    +0.000 A 
ATOM      5  C   UNL     1       2.726   4.842  20.152  0.00  0.00    +0.000 A 
ATOM      6  C   UNL     1       3.512   4.962  19.008  0.00  0.00    +0.000 A 
ATOM      7  C   UNL     1       3.463   6.127  18.241  0.00  0.00    +0.000 A 
ATOM      8  C   UNL     1       2.657   7.198  18.608  0.00  0.00    +0.000 A 
ATOM      9  N   UNL     1       2.627   8.295  17.833  0.00  0.00    +0.000 NA
ATOM     10  C   UNL     1       1.814   9.297  18.212  0.00  0.00    +0.000 A 
ATOM     11  O   UNL     1       4.354   3.970  18.569  0.00  0.00    +0.000 OA
ATOM     12  C   UNL     1       4.584   2.995  19.593  0.00  0.00    +0.000 C 
ATOM     13  C   UNL     1       3.270   2.592  20.242  0.00  0.00    +0.000 C 
ATOM     14  O   UNL     1       2.684   3.709  20.922  0.00  0.00    +0.000 OA
ENDROOT
BRANCH  10  15
ATOM     15  O   UNL     1       1.837  10.343  17.351  0.00  0.00    +0.000 OA
ATOM     16  H   UNL     1       1.510  11.049  17.938  0.00  0.00    +0.000 HD
ENDBRANCH  10  15
BRANCH   1  17
ATOM     17  C   UNL     1       0.112  10.465  19.683  0.00  0.00    +0.000 C 
BRANCH  17  21
ATOM     18  C   UNL     1       2.692  14.338  21.212  0.00  0.00    +0.000 C 
ATOM     19  N   UNL     1       2.039  13.061  21.364  0.00  0.00    +0.000 NA
ATOM     20  C   UNL     1       1.190  12.547  20.535  0.00  0.00    +0.000 C 
ATOM     21  N   UNL     1       0.524  11.347  20.797  0.00  0.00    +0.000 N 
BRANCH  20  22
ATOM     22  S   UNL     1       0.746  13.370  19.027  0.00  0.00    +0.000 S 
ATOM     23  H   UNL     1       0.875  14.632  19.434  0.00  0.00    +0.000 HD
ENDBRANCH  20  22
BRANCH  21  24
ATOM     24  C   UNL     1       0.430  10.811  22.168  0.00  0.00    +0.000 C 
BRANCH  24  25
ATOM     25  C   UNL     1      -0.991  10.704  22.731  0.00  0.00    +0.000 C 
BRANCH  25  26
ATOM     26  C   UNL     1      -1.633  12.059  23.053  0.00  0.00    +0.000 C 
BRANCH  26  27
ATOM     27  N   UNL     1      -3.104  12.064  22.934  0.00  0.00    +0.000 NA
ATOM     28  C   UNL     1      -3.751  12.683  24.091  0.00  0.00    +0.000 C 
ATOM     29  C   UNL     1      -3.510  12.746  21.706  0.00  0.00    +0.000 C 
ENDBRANCH  26  27
ENDBRANCH  25  26
ENDBRANCH  24  25
ENDBRANCH  21  24
ENDBRANCH  17  21
ENDBRANCH   1  17
TORSDOF 8
ENDMDL
MODEL 9
REMARK VINA RESULT:      -6.7      2.174      3.948
REMARK  Name = 
REMARK  11 active torsions:
REMARK  status: ('A' for Active; 'I' for Inactive)
REMARK    1  A    between atoms: C_1  and  N_2
REMARK    2  A    between atoms: C_3  and  S_4
REMARK    3  A    between atoms: N_5  and  C_6
REMARK    4  A    between atoms: N_5  and  C_12
REMARK    5  A    between atoms: C_6  and  C_7
REMARK    6  A    between atoms: C_7  and  C_8
REMARK    7  A    between atoms: C_8  and  N_9
REMARK    8  A    between atoms: N_9  and  C_10
REMARK    9  A    between atoms: N_9  and  C_11
REMARK   10  A    between atoms: C_12  and  C_13
REMARK   11  A    between atoms: C_22  and  O_23
REMARK                            x       y       z     vdW  Elec       q    Type
REMARK                         _______ _______ _______ _____ _____    ______ ____
ROOT
ATOM      1  C   UNL     1       2.396   7.329  19.630  0.00  0.00    +0.000 A 
ATOM      2  C   UNL     1       1.647   7.629  20.773  0.00  0.00    +0.000 A 
ATOM      3  C   UNL     1       0.860   8.788  20.822  0.00  0.00    +0.000 A 
ATOM      4  C   UNL     1       0.139   9.141  21.977  0.00  0.00    +0.000 A 
ATOM      5  C   UNL     1      -0.604  10.318  22.000  0.00  0.00    +0.000 A 
ATOM      6  C   UNL     1      -0.670  11.115  20.859  0.00  0.00    +0.000 A 
ATOM      7  C   UNL     1       0.050  10.767  19.716  0.00  0.00    +0.000 A 
ATOM      8  C   UNL     1       0.825   9.614  19.676  0.00  0.00    +0.000 A 
ATOM      9  N   UNL     1       1.516   9.324  18.561  0.00  0.00    +0.000 NA
ATOM     10  C   UNL     1       2.273   8.212  18.575  0.00  0.00    +0.000 A 
ATOM     11  O   UNL     1      -1.420  12.263  20.789  0.00  0.00    +0.000 OA
ATOM     12  C   UNL     1      -2.367  12.330  21.862  0.00  0.00    +0.000 C 
ATOM     13  C   UNL     1      -1.694  11.987  23.182  0.00  0.00    +0.000 C 
ATOM     14  O   UNL     1      -1.241  10.627  23.174  0.00  0.00    +0.000 OA
ENDROOT
BRANCH  10  15
ATOM     15  O   UNL     1       2.948   8.025  17.415  0.00  0.00    +0.000 OA
ATOM     16  H   UNL     1       2.401   8.567  16.816  0.00  0.00    +0.000 HD
ENDBRANCH  10  15
BRANCH   1  17
ATOM     17  C   UNL     1       3.283   6.113  19.575  0.00  0.00    +0.000 C 
BRANCH  17  21
ATOM     18  C   UNL     1       1.556   1.584  18.873  0.00  0.00    +0.000 C 
ATOM     19  N   UNL     1       2.323   2.756  18.533  0.00  0.00    +0.000 NA
ATOM     20  C   UNL     1       2.201   3.921  19.081  0.00  0.00    +0.000 C 
ATOM     21  N   UNL     1       2.913   5.036  18.631  0.00  0.00    +0.000 N 
BRANCH  20  22
ATOM     22  S   UNL     1       1.054   4.211  20.403  0.00  0.00    +0.000 S 
ATOM     23  H   UNL     1      -0.011   4.559  19.681  0.00  0.00    +0.000 HD
ENDBRANCH  20  22
BRANCH  21  24
ATOM     24  C   UNL     1       3.522   5.060  17.288  0.00  0.00    +0.000 C 
BRANCH  24  25
ATOM     25  C   UNL     1       5.012   4.709  17.241  0.00  0.00    +0.000 C 
BRANCH  25  26
ATOM     26  C   UNL     1       5.846   5.665  16.378  0.00  0.00    +0.000 C 
BRANCH  26  27
ATOM     27  N   UNL     1       7.245   5.805  16.827  0.00  0.00    +0.000 NA
ATOM     28  C   UNL     1       7.473   7.059  17.545  0.00  0.00    +0.000 C 
ATOM     29  C   UNL     1       7.622   4.669  17.667  0.00  0.00    +0.000 C 
ENDBRANCH  26  27
ENDBRANCH  25  26
ENDBRANCH  24  25
ENDBRANCH  21  24
ENDBRANCH  17  21
ENDBRANCH   1  17
TORSDOF 8
ENDMDL
