MODEL 1
REMARK VINA RESULT:      -8.1      0.000      0.000
REMARK  Name = 
REMARK  7 active torsions:
REMARK  status: ('A' for Active; 'I' for Inactive)
REMARK    1  A    between atoms: C_1  and  N_2
REMARK    2  A    between atoms: N_2  and  C_3
REMARK    3  A    between atoms: N_2  and  S_4
REMARK    4  A    between atoms: S_4  and  C_7
REMARK    5  A    between atoms: C_11  and  N_12
REMARK    6  A    between atoms: C_13  and  C_15
REMARK    7  A    between atoms: C_20  and  C_22
REMARK                            x       y       z     vdW  Elec       q    Type
REMARK                         _______ _______ _______ _____ _____    ______ ____
ROOT
ATOM      1  N   UNL     1       2.188   7.854  20.713  0.00  0.00    +0.000 N 
ATOM      2  C   UNL     1       1.058   8.361  21.321  0.00  0.00    +0.000 C 
ATOM      3  O   UNL     1      -0.062   7.857  21.216  0.00  0.00    +0.000 OA
ATOM      4  H   UNL     1       3.090   8.180  21.035  0.00  0.00    +0.000 HD
ENDROOT
BRANCH   2   5
ATOM      5  C   UNL     1       1.294   9.550  22.261  0.00  0.00    +0.000 C 
ATOM      6  C   UNL     1       0.305   9.478  23.442  0.00  0.00    +0.000 C 
ATOM      7  C   UNL     1      -1.120   9.812  23.001  0.00  0.00    +0.000 C 
ATOM      8  C   UNL     1      -1.175  11.142  22.267  0.00  0.00    +0.000 C 
ATOM      9  N   UNL     1      -0.205  11.202  21.168  0.00  0.00    +0.000 N 
ATOM     10  C   UNL     1      -0.460  11.351  19.798  0.00  0.00    +0.000 C 
ATOM     11  O   UNL     1       0.446  11.326  18.961  0.00  0.00    +0.000 OA
ATOM     12  C   UNL     1       1.173  10.919  21.575  0.00  0.00    +0.000 C 
BRANCH  10  13
ATOM     13  C   UNL     1      -1.849  11.464  19.272  0.00  0.00    +0.000 A 
ATOM     14  C   UNL     1      -2.787  12.383  19.751  0.00  0.00    +0.000 A 
ATOM     15  C   UNL     1      -4.117  12.319  19.326  0.00  0.00    +0.000 A 
ATOM     16  C   UNL     1      -4.486  11.416  18.332  0.00  0.00    +0.000 A 
ATOM     17 CL   UNL     1      -6.124  11.336  17.816  0.00  0.00    +0.000 Cl
ATOM     18  C   UNL     1      -3.532  10.585  17.750  0.00  0.00    +0.000 A 
ATOM     19  C   UNL     1      -2.218  10.602  18.226  0.00  0.00    +0.000 A 
ENDBRANCH  10  13
ENDBRANCH   2   5
BRANCH   1  24
ATOM     20  C   UNL     1       1.790   4.459  19.326  0.00  0.00    +0.000 A 
ATOM     21  C   UNL     1       2.155   4.619  17.987  0.00  0.00    +0.000 A 
ATOM     22  C   UNL     1       2.581   5.868  17.555  0.00  0.00    +0.000 A 
ATOM     23  C   UNL     1       2.612   6.942  18.448  0.00  0.00    +0.000 A 
ATOM     24  C   UNL     1       2.190   6.795  19.777  0.00  0.00    +0.000 A 
ATOM     25  C   UNL     1       1.777   5.538  20.214  0.00  0.00    +0.000 A 
BRANCH  20  26
ATOM     26  S   UNL     1       1.386   2.835  19.933  0.00  0.00    +0.000 S 
ATOM     27  O   UNL     1       0.378   2.269  19.063  0.00  0.00    +0.000 OA
ATOM     28  O   UNL     1       1.166   2.956  21.360  0.00  0.00    +0.000 OA
BRANCH  26  30
ATOM     29  C   UNL     1       3.139   1.582  18.300  0.00  0.00    +0.000 C 
ATOM     30  N   UNL     1       2.854   1.996  19.687  0.00  0.00    +0.000 NA
ATOM     31  C   UNL     1       4.042   2.545  20.374  0.00  0.00    +0.000 C 
ENDBRANCH  26  30
ENDBRANCH  20  26
ENDBRANCH   1  24
TORSDOF 5
ENDMDL
MODEL 2
REMARK VINA RESULT:      -7.9      2.763      3.186
REMARK  Name = 
REMARK  7 active torsions:
REMARK  status: ('A' for Active; 'I' for Inactive)
REMARK    1  A    between atoms: C_1  and  N_2
REMARK    2  A    between atoms: N_2  and  C_3
REMARK    3  A    between atoms: N_2  and  S_4
REMARK    4  A    between atoms: S_4  and  C_7
REMARK    5  A    between atoms: C_11  and  N_12
REMARK    6  A    between atoms: C_13  and  C_15
REMARK    7  A    between atoms: C_20  and  C_22
REMARK                            x       y       z     vdW  Elec       q    Type
REMARK                         _______ _______ _______ _____ _____    ______ ____
ROOT
ATOM      1  N   UNL     1       2.460   7.271  20.332  0.00  0.00    +0.000 N 
ATOM      2  C   UNL     1       1.793   8.467  20.159  0.00  0.00    +0.000 C 
ATOM      3  O   UNL     1       1.122   8.740  19.161  0.00  0.00    +0.000 OA
ATOM      4  H   UNL     1       2.784   7.035  21.261  0.00  0.00    +0.000 HD
ENDROOT
BRANCH   2   5
ATOM      5  C   UNL     1       1.827   9.419  21.361  0.00  0.00    +0.000 C 
ATOM      6  C   UNL     1       0.968   8.840  22.503  0.00  0.00    +0.000 C 
ATOM      7  C   UNL     1      -0.523   8.928  22.182  0.00  0.00    +0.000 C 
ATOM      8  C   UNL     1      -0.925  10.344  21.803  0.00  0.00    +0.000 C 
ATOM      9  N   UNL     1      -0.076  10.888  20.737  0.00  0.00    +0.000 N 
ATOM     10  C   UNL     1      -0.457  11.295  19.451  0.00  0.00    +0.000 C 
ATOM     11  O   UNL     1       0.368  11.681  18.620  0.00  0.00    +0.000 OA
ATOM     12  C   UNL     1       1.357  10.844  21.038  0.00  0.00    +0.000 C 
BRANCH  10  13
ATOM     13  C   UNL     1      -1.872  11.203  18.992  0.00  0.00    +0.000 A 
ATOM     14  C   UNL     1      -2.339  10.219  18.116  0.00  0.00    +0.000 A 
ATOM     15  C   UNL     1      -3.635  10.292  17.598  0.00  0.00    +0.000 A 
ATOM     16  C   UNL     1      -4.506  11.282  18.048  0.00  0.00    +0.000 A 
ATOM     17 CL   UNL     1      -6.098  11.374  17.406  0.00  0.00    +0.000 Cl
ATOM     18  C   UNL     1      -4.095  12.189  19.022  0.00  0.00    +0.000 A 
ATOM     19  C   UNL     1      -2.777  12.156  19.485  0.00  0.00    +0.000 A 
ENDBRANCH  10  13
ENDBRANCH   2   5
BRANCH   1  24
ATOM     20  C   UNL     1       3.871   5.364  17.507  0.00  0.00    +0.000 A 
ATOM     21  C   UNL     1       2.948   4.329  17.330  0.00  0.00    +0.000 A 
ATOM     22  C   UNL     1       1.819   4.297  18.137  0.00  0.00    +0.000 A 
ATOM     23  C   UNL     1       1.637   5.271  19.123  0.00  0.00    +0.000 A 
ATOM     24  C   UNL     1       2.592   6.274  19.339  0.00  0.00    +0.000 A 
ATOM     25  C   UNL     1       3.718   6.315  18.519  0.00  0.00    +0.000 A 
BRANCH  20  26
ATOM     26  S   UNL     1       5.247   5.508  16.386  0.00  0.00    +0.000 S 
ATOM     27  O   UNL     1       5.075   6.724  15.621  0.00  0.00    +0.000 OA
ATOM     28  O   UNL     1       5.402   4.224  15.734  0.00  0.00    +0.000 OA
BRANCH  26  30
ATOM     29  C   UNL     1       7.502   4.597  17.566  0.00  0.00    +0.000 C 
ATOM     30  N   UNL     1       6.554   5.722  17.466  0.00  0.00    +0.000 NA
ATOM     31  C   UNL     1       7.228   7.037  17.422  0.00  0.00    +0.000 C 
ENDBRANCH  26  30
ENDBRANCH  20  26
ENDBRANCH   1  24
TORSDOF 5
ENDMDL
MODEL 3
REMARK VINA RESULT:      -7.9      3.057      4.422
REMARK  Name = 
REMARK  7 active torsions:
REMARK  status: ('A' for Active; 'I' for Inactive)
REMARK    1  A    between atoms: C_1  and  N_2
REMARK    2  A    between atoms: N_2  and  C_3
REMARK    3  A    between atoms: N_2  and  S_4
REMARK    4  A    between atoms: S_4  and  C_7
REMARK    5  A    between atoms: C_11  and  N_12
REMARK    6  A    between atoms: C_13  and  C_15
REMARK    7  A    between atoms: C_20  and  C_22
REMARK                            x       y       z     vdW  Elec       q    Type
REMARK                         _______ _______ _______ _____ _____    ______ ____
ROOT
ATOM      1  N   UNL     1       0.875  10.971  18.814  0.00  0.00    +0.000 N 
ATOM      2  C   UNL     1       1.488  12.167  19.133  0.00  0.00    +0.000 C 
ATOM      3  O   UNL     1       2.455  12.260  19.892  0.00  0.00    +0.000 OA
ATOM      4  H   UNL     1       0.254  10.953  18.016  0.00  0.00    +0.000 HD
ENDROOT
BRANCH   2   5
ATOM      5  C   UNL     1       0.968  13.395  18.377  0.00  0.00    +0.000 C 
ATOM      6  C   UNL     1       1.342  14.675  19.153  0.00  0.00    +0.000 C 
ATOM      7  C   UNL     1       0.513  14.820  20.428  0.00  0.00    +0.000 C 
ATOM      8  C   UNL     1      -0.976  14.724  20.134  0.00  0.00    +0.000 C 
ATOM      9  N   UNL     1      -1.306  13.516  19.369  0.00  0.00    +0.000 N 
ATOM     10  C   UNL     1      -2.131  12.450  19.751  0.00  0.00    +0.000 C 
ATOM     11  O   UNL     1      -2.282  11.456  19.036  0.00  0.00    +0.000 OA
ATOM     12  C   UNL     1      -0.547  13.374  18.124  0.00  0.00    +0.000 C 
BRANCH  10  13
ATOM     13  C   UNL     1      -2.803  12.422  21.081  0.00  0.00    +0.000 A 
ATOM     14  C   UNL     1      -4.121  12.837  21.291  0.00  0.00    +0.000 A 
ATOM     15  C   UNL     1      -4.630  12.940  22.589  0.00  0.00    +0.000 A 
ATOM     16  C   UNL     1      -3.863  12.513  23.670  0.00  0.00    +0.000 A 
ATOM     17 CL   UNL     1      -4.489  12.646  25.266  0.00  0.00    +0.000 Cl
ATOM     18  C   UNL     1      -2.596  11.971  23.463  0.00  0.00    +0.000 A 
ATOM     19  C   UNL     1      -2.064  11.936  22.171  0.00  0.00    +0.000 A 
ENDBRANCH  10  13
ENDBRANCH   2   5
BRANCH   1  24
ATOM     20  C   UNL     1       2.179   7.548  19.247  0.00  0.00    +0.000 A 
ATOM     21  C   UNL     1       1.804   7.229  20.554  0.00  0.00    +0.000 A 
ATOM     22  C   UNL     1       1.068   8.154  21.282  0.00  0.00    +0.000 A 
ATOM     23  C   UNL     1       0.740   9.388  20.715  0.00  0.00    +0.000 A 
ATOM     24  C   UNL     1       1.167   9.731  19.424  0.00  0.00    +0.000 A 
ATOM     25  C   UNL     1       1.893   8.797  18.688  0.00  0.00    +0.000 A 
BRANCH  20  26
ATOM     26  S   UNL     1       2.992   6.320  18.246  0.00  0.00    +0.000 S 
ATOM     27  O   UNL     1       3.919   7.000  17.368  0.00  0.00    +0.000 OA
ATOM     28  O   UNL     1       1.962   5.446  17.723  0.00  0.00    +0.000 OA
BRANCH  26  30
ATOM     29  C   UNL     1       3.319   4.158  19.836  0.00  0.00    +0.000 C 
ATOM     30  N   UNL     1       3.885   5.454  19.418  0.00  0.00    +0.000 NA
ATOM     31  C   UNL     1       5.348   5.400  19.215  0.00  0.00    +0.000 C 
ENDBRANCH  26  30
ENDBRANCH  20  26
ENDBRANCH   1  24
TORSDOF 5
ENDMDL
MODEL 4
REMARK VINA RESULT:      -7.8      0.568      1.220
REMARK  Name = 
REMARK  7 active torsions:
REMARK  status: ('A' for Active; 'I' for Inactive)
REMARK    1  A    between atoms: C_1  and  N_2
REMARK    2  A    between atoms: N_2  and  C_3
REMARK    3  A    between atoms: N_2  and  S_4
REMARK    4  A    between atoms: S_4  and  C_7
REMARK    5  A    between atoms: C_11  and  N_12
REMARK    6  A    between atoms: C_13  and  C_15
REMARK    7  A    between atoms: C_20  and  C_22
REMARK                            x       y       z     vdW  Elec       q    Type
REMARK                         _______ _______ _______ _____ _____    ______ ____
ROOT
ATOM      1  N   UNL     1       2.193   7.854  20.742  0.00  0.00    +0.000 N 
ATOM      2  C   UNL     1       1.070   8.336  21.384  0.00  0.00    +0.000 C 
ATOM      3  O   UNL     1      -0.023   7.765  21.376  0.00  0.00    +0.000 OA
ATOM      4  H   UNL     1       3.090   8.249  20.990  0.00  0.00    +0.000 HD
ENDROOT
BRANCH   2   5
ATOM      5  C   UNL     1       1.287   9.594  22.234  0.00  0.00    +0.000 C 
ATOM      6  C   UNL     1       0.299   9.593  23.418  0.00  0.00    +0.000 C 
ATOM      7  C   UNL     1      -1.130   9.872  22.955  0.00  0.00    +0.000 C 
ATOM      8  C   UNL     1      -1.205  11.144  22.126  0.00  0.00    +0.000 C 
ATOM      9  N   UNL     1      -0.237  11.138  21.024  0.00  0.00    +0.000 N 
ATOM     10  C   UNL     1      -0.494  11.183  19.648  0.00  0.00    +0.000 C 
ATOM     11  O   UNL     1       0.413  11.111  18.814  0.00  0.00    +0.000 OA
ATOM     12  C   UNL     1       1.146  10.907  21.450  0.00  0.00    +0.000 C 
BRANCH  10  13
ATOM     13  C   UNL     1      -1.884  11.235  19.116  0.00  0.00    +0.000 A 
ATOM     14  C   UNL     1      -2.373  10.363  18.139  0.00  0.00    +0.000 A 
ATOM     15  C   UNL     1      -3.631  10.576  17.568  0.00  0.00    +0.000 A 
ATOM     16  C   UNL     1      -4.452  11.589  18.059  0.00  0.00    +0.000 A 
ATOM     17 CL   UNL     1      -5.997  11.853  17.351  0.00  0.00    +0.000 Cl
ATOM     18  C   UNL     1      -4.031  12.381  19.124  0.00  0.00    +0.000 A 
ATOM     19  C   UNL     1      -2.744  12.211  19.644  0.00  0.00    +0.000 A 
ENDBRANCH  10  13
ENDBRANCH   2   5
BRANCH   1  24
ATOM     20  C   UNL     1       2.231   4.339  19.622  0.00  0.00    +0.000 A 
ATOM     21  C   UNL     1       2.224   4.451  18.229  0.00  0.00    +0.000 A 
ATOM     22  C   UNL     1       2.252   5.717  17.660  0.00  0.00    +0.000 A 
ATOM     23  C   UNL     1       2.258   6.850  18.478  0.00  0.00    +0.000 A 
ATOM     24  C   UNL     1       2.205   6.739  19.875  0.00  0.00    +0.000 A 
ATOM     25  C   UNL     1       2.192   5.468  20.446  0.00  0.00    +0.000 A 
BRANCH  20  26
ATOM     26  S   UNL     1       2.346   2.727  20.369  0.00  0.00    +0.000 S 
ATOM     27  O   UNL     1       1.279   1.909  19.836  0.00  0.00    +0.000 OA
ATOM     28  O   UNL     1       2.500   2.929  21.795  0.00  0.00    +0.000 OA
BRANCH  26  30
ATOM     29  C   UNL     1       4.814   1.685  20.738  0.00  0.00    +0.000 C 
ATOM     30  N   UNL     1       3.833   2.161  19.744  0.00  0.00    +0.000 NA
ATOM     31  C   UNL     1       3.750   1.285  18.557  0.00  0.00    +0.000 C 
ENDBRANCH  26  30
ENDBRANCH  20  26
ENDBRANCH   1  24
TORSDOF 5
ENDMDL
MODEL 5
REMARK VINA RESULT:      -7.7      2.056      2.527
REMARK  Name = 
REMARK  7 active torsions:
REMARK  status: ('A' for Active; 'I' for Inactive)
REMARK    1  A    between atoms: C_1  and  N_2
REMARK    2  A    between atoms: N_2  and  C_3
REMARK    3  A    between atoms: N_2  and  S_4
REMARK    4  A    between atoms: S_4  and  C_7
REMARK    5  A    between atoms: C_11  and  N_12
REMARK    6  A    between atoms: C_13  and  C_15
REMARK    7  A    between atoms: C_20  and  C_22
REMARK                            x       y       z     vdW  Elec       q    Type
REMARK                         _______ _______ _______ _____ _____    ______ ____
ROOT
ATOM      1  N   UNL     1       1.953   7.136  21.304  0.00  0.00    +0.000 N 
ATOM      2  C   UNL     1       1.557   8.378  20.850  0.00  0.00    +0.000 C 
ATOM      3  O   UNL     1       1.050   8.574  19.743  0.00  0.00    +0.000 OA
ATOM      4  H   UNL     1       2.135   7.026  22.293  0.00  0.00    +0.000 HD
ENDROOT
BRANCH   2   5
ATOM      5  C   UNL     1       1.668   9.518  21.870  0.00  0.00    +0.000 C 
ATOM      6  C   UNL     1       0.707   9.253  23.047  0.00  0.00    +0.000 C 
ATOM      7  C   UNL     1      -0.751   9.453  22.635  0.00  0.00    +0.000 C 
ATOM      8  C   UNL     1      -0.964  10.816  21.996  0.00  0.00    +0.000 C 
ATOM      9  N   UNL     1      -0.020  11.061  20.900  0.00  0.00    +0.000 N 
ATOM     10  C   UNL     1      -0.306  11.275  19.545  0.00  0.00    +0.000 C 
ATOM     11  O   UNL     1       0.588  11.411  18.706  0.00  0.00    +0.000 OA
ATOM     12  C   UNL     1       1.386  10.908  21.282  0.00  0.00    +0.000 C 
BRANCH  10  13
ATOM     13  C   UNL     1      -1.704  11.266  19.032  0.00  0.00    +0.000 A 
ATOM     14  C   UNL     1      -2.660  12.229  19.370  0.00  0.00    +0.000 A 
ATOM     15  C   UNL     1      -3.993  12.065  18.986  0.00  0.00    +0.000 A 
ATOM     16  C   UNL     1      -4.352  11.000  18.162  0.00  0.00    +0.000 A 
ATOM     17 CL   UNL     1      -5.994  10.797  17.696  0.00  0.00    +0.000 Cl
ATOM     18  C   UNL     1      -3.384  10.107  17.708  0.00  0.00    +0.000 A 
ATOM     19  C   UNL     1      -2.064  10.234  18.151  0.00  0.00    +0.000 A 
ENDBRANCH  10  13
ENDBRANCH   2   5
BRANCH   1  24
ATOM     20  C   UNL     1       3.178   4.562  18.964  0.00  0.00    +0.000 A 
ATOM     21  C   UNL     1       2.122   3.647  18.917  0.00  0.00    +0.000 A 
ATOM     22  C   UNL     1       0.971   3.920  19.644  0.00  0.00    +0.000 A 
ATOM     23  C   UNL     1       0.895   5.077  20.424  0.00  0.00    +0.000 A 
ATOM     24  C   UNL     1       1.977   5.964  20.517  0.00  0.00    +0.000 A 
ATOM     25  C   UNL     1       3.126   5.698  19.776  0.00  0.00    +0.000 A 
BRANCH  20  26
ATOM     26  S   UNL     1       4.601   4.306  17.925  0.00  0.00    +0.000 S 
ATOM     27  O   UNL     1       4.136   3.858  16.630  0.00  0.00    +0.000 OA
ATOM     28  O   UNL     1       5.555   3.532  18.691  0.00  0.00    +0.000 OA
BRANCH  26  30
ATOM     29  C   UNL     1       6.614   6.097  18.157  0.00  0.00    +0.000 C 
ATOM     30  N   UNL     1       5.206   5.898  17.768  0.00  0.00    +0.000 NA
ATOM     31  C   UNL     1       4.850   6.609  16.522  0.00  0.00    +0.000 C 
ENDBRANCH  26  30
ENDBRANCH  20  26
ENDBRANCH   1  24
TORSDOF 5
ENDMDL
MODEL 6
REMARK VINA RESULT:      -7.7      5.585      8.409
REMARK  Name = 
REMARK  7 active torsions:
REMARK  status: ('A' for Active; 'I' for Inactive)
REMARK    1  A    between atoms: C_1  and  N_2
REMARK    2  A    between atoms: N_2  and  C_3
REMARK    3  A    between atoms: N_2  and  S_4
REMARK    4  A    between atoms: S_4  and  C_7
REMARK    5  A    between atoms: C_11  and  N_12
REMARK    6  A    between atoms: C_13  and  C_15
REMARK    7  A    between atoms: C_20  and  C_22
REMARK                            x       y       z     vdW  Elec       q    Type
REMARK                         _______ _______ _______ _____ _____    ______ ____
ROOT
ATOM      1  N   UNL     1      -1.794  12.905  22.280  0.00  0.00    +0.000 N 
ATOM      2  C   UNL     1      -1.091  14.047  21.951  0.00  0.00    +0.000 C 
ATOM      3  O   UNL     1      -1.555  15.186  22.034  0.00  0.00    +0.000 OA
ATOM      4  H   UNL     1      -1.275  12.046  22.410  0.00  0.00    +0.000 HD
ENDROOT
BRANCH   2   5
ATOM      5  C   UNL     1       0.382  13.829  21.585  0.00  0.00    +0.000 C 
ATOM      6  C   UNL     1       0.816  14.882  20.545  0.00  0.00    +0.000 C 
ATOM      7  C   UNL     1       0.195  14.607  19.176  0.00  0.00    +0.000 C 
ATOM      8  C   UNL     1       0.468  13.182  18.721  0.00  0.00    +0.000 C 
ATOM      9  N   UNL     1       0.077  12.198  19.737  0.00  0.00    +0.000 N 
ATOM     10  C   UNL     1      -0.891  11.190  19.636  0.00  0.00    +0.000 C 
ATOM     11  O   UNL     1      -1.171  10.459  20.590  0.00  0.00    +0.000 OA
ATOM     12  C   UNL     1       0.689  12.423  21.049  0.00  0.00    +0.000 C 
BRANCH  10  13
ATOM     13  C   UNL     1      -1.695  11.002  18.396  0.00  0.00    +0.000 A 
ATOM     14  C   UNL     1      -2.837  11.750  18.093  0.00  0.00    +0.000 A 
ATOM     15  C   UNL     1      -3.634  11.407  16.997  0.00  0.00    +0.000 A 
ATOM     16  C   UNL     1      -3.226  10.394  16.132  0.00  0.00    +0.000 A 
ATOM     17 CL   UNL     1      -4.211   9.970  14.789  0.00  0.00    +0.000 Cl
ATOM     18  C   UNL     1      -2.021   9.730  16.348  0.00  0.00    +0.000 A 
ATOM     19  C   UNL     1      -1.262  10.027  17.484  0.00  0.00    +0.000 A 
ENDBRANCH  10  13
ENDBRANCH   2   5
BRANCH   1  24
ATOM     20  C   UNL     1      -5.455  12.894  21.829  0.00  0.00    +0.000 A 
ATOM     21  C   UNL     1      -5.936  12.812  23.139  0.00  0.00    +0.000 A 
ATOM     22  C   UNL     1      -5.023  12.805  24.185  0.00  0.00    +0.000 A 
ATOM     23  C   UNL     1      -3.652  12.851  23.917  0.00  0.00    +0.000 A 
ATOM     24  C   UNL     1      -3.169  12.874  22.601  0.00  0.00    +0.000 A 
ATOM     25  C   UNL     1      -4.085  12.896  21.552  0.00  0.00    +0.000 A 
BRANCH  20  26
ATOM     26  S   UNL     1      -6.610  13.055  20.484  0.00  0.00    +0.000 S 
ATOM     27  O   UNL     1      -6.045  13.969  19.515  0.00  0.00    +0.000 OA
ATOM     28  O   UNL     1      -7.915  13.288  21.067  0.00  0.00    +0.000 OA
BRANCH  26  30
ATOM     29  C   UNL     1      -7.334  10.451  20.576  0.00  0.00    +0.000 C 
ATOM     30  N   UNL     1      -6.593  11.479  19.822  0.00  0.00    +0.000 NA
ATOM     31  C   UNL     1      -6.806  11.382  18.363  0.00  0.00    +0.000 C 
ENDBRANCH  26  30
ENDBRANCH  20  26
ENDBRANCH   1  24
TORSDOF 5
ENDMDL
MODEL 7
REMARK VINA RESULT:      -7.7      0.568      1.050
REMARK  Name = 
REMARK  7 active torsions:
REMARK  status: ('A' for Active; 'I' for Inactive)
REMARK    1  A    between atoms: C_1  and  N_2
REMARK    2  A    between atoms: N_2  and  C_3
REMARK    3  A    between atoms: N_2  and  S_4
REMARK    4  A    between atoms: S_4  and  C_7
REMARK    5  A    between atoms: C_11  and  N_12
REMARK    6  A    between atoms: C_13  and  C_15
REMARK    7  A    between atoms: C_20  and  C_22
REMARK                            x       y       z     vdW  Elec       q    Type
REMARK                         _______ _______ _______ _____ _____    ______ ____
ROOT
ATOM      1  N   UNL     1       2.099   7.835  20.818  0.00  0.00    +0.000 N 
ATOM      2  C   UNL     1       1.190   8.874  20.793  0.00  0.00    +0.000 C 
ATOM      3  O   UNL     1       0.253   8.946  19.995  0.00  0.00    +0.000 OA
ATOM      4  H   UNL     1       2.682   7.732  21.638  0.00  0.00    +0.000 HD
ENDROOT
BRANCH   2   5
ATOM      5  C   UNL     1       1.336   9.903  21.920  0.00  0.00    +0.000 C 
ATOM      6  C   UNL     1       0.458   9.485  23.117  0.00  0.00    +0.000 C 
ATOM      7  C   UNL     1      -1.028   9.682  22.816  0.00  0.00    +0.000 C 
ATOM      8  C   UNL     1      -1.315  11.097  22.341  0.00  0.00    +0.000 C 
ATOM      9  N   UNL     1      -0.447  11.485  21.223  0.00  0.00    +0.000 N 
ATOM     10  C   UNL     1      -0.822  11.831  19.918  0.00  0.00    +0.000 C 
ATOM     11  O   UNL     1       0.014  12.083  19.046  0.00  0.00    +0.000 OA
ATOM     12  C   UNL     1       0.983  11.338  21.502  0.00  0.00    +0.000 C 
BRANCH  10  13
ATOM     13  C   UNL     1      -2.250  11.832  19.491  0.00  0.00    +0.000 A 
ATOM     14  C   UNL     1      -2.739  11.075  18.422  0.00  0.00    +0.000 A 
ATOM     15  C   UNL     1      -4.051  11.252  17.975  0.00  0.00    +0.000 A 
ATOM     16  C   UNL     1      -4.913  12.096  18.671  0.00  0.00    +0.000 A 
ATOM     17 CL   UNL     1      -6.525  12.317  18.115  0.00  0.00    +0.000 Cl
ATOM     18  C   UNL     1      -4.477  12.754  19.818  0.00  0.00    +0.000 A 
ATOM     19  C   UNL     1      -3.144  12.630  20.222  0.00  0.00    +0.000 A 
ENDBRANCH  10  13
ENDBRANCH   2   5
BRANCH   1  24
ATOM     20  C   UNL     1       1.812   4.489  19.292  0.00  0.00    +0.000 A 
ATOM     21  C   UNL     1       2.273   4.694  17.989  0.00  0.00    +0.000 A 
ATOM     22  C   UNL     1       2.726   5.957  17.632  0.00  0.00    +0.000 A 
ATOM     23  C   UNL     1       2.689   7.000  18.561  0.00  0.00    +0.000 A 
ATOM     24  C   UNL     1       2.171   6.808  19.850  0.00  0.00    +0.000 A 
ATOM     25  C   UNL     1       1.731   5.538  20.212  0.00  0.00    +0.000 A 
BRANCH  20  26
ATOM     26  S   UNL     1       1.367   2.845  19.813  0.00  0.00    +0.000 S 
ATOM     27  O   UNL     1       0.391   2.328  18.879  0.00  0.00    +0.000 OA
ATOM     28  O   UNL     1       1.091   2.909  21.233  0.00  0.00    +0.000 OA
BRANCH  26  30
ATOM     29  C   UNL     1       3.158   1.613  18.205  0.00  0.00    +0.000 C 
ATOM     30  N   UNL     1       2.837   2.002  19.591  0.00  0.00    +0.000 NA
ATOM     31  C   UNL     1       4.008   2.529  20.322  0.00  0.00    +0.000 C 
ENDBRANCH  26  30
ENDBRANCH  20  26
ENDBRANCH   1  24
TORSDOF 5
ENDMDL
MODEL 8
REMARK VINA RESULT:      -7.5      2.184      2.464
REMARK  Name = 
REMARK  7 active torsions:
REMARK  status: ('A' for Active; 'I' for Inactive)
REMARK    1  A    between atoms: C_1  and  N_2
REMARK    2  A    between atoms: N_2  and  C_3
REMARK    3  A    between atoms: N_2  and  S_4
REMARK    4  A    between atoms: S_4  and  C_7
REMARK    5  A    between atoms: C_11  and  N_12
REMARK    6  A    between atoms: C_13  and  C_15
REMARK    7  A    between atoms: C_20  and  C_22
REMARK                            x       y       z     vdW  Elec       q    Type
REMARK                         _______ _______ _______ _____ _____    ______ ____
ROOT
ATOM      1  N   UNL     1       1.908   7.336  21.162  0.00  0.00    +0.000 N 
ATOM      2  C   UNL     1       1.516   8.601  20.774  0.00  0.00    +0.000 C 
ATOM      3  O   UNL     1       1.049   8.864  19.664  0.00  0.00    +0.000 OA
ATOM      4  H   UNL     1       2.054   7.163  22.148  0.00  0.00    +0.000 HD
ENDROOT
BRANCH   2   5
ATOM      5  C   UNL     1       1.578   9.673  21.869  0.00  0.00    +0.000 C 
ATOM      6  C   UNL     1       0.631   9.288  23.023  0.00  0.00    +0.000 C 
ATOM      7  C   UNL     1      -0.835   9.451  22.623  0.00  0.00    +0.000 C 
ATOM      8  C   UNL     1      -1.108  10.843  22.077  0.00  0.00    +0.000 C 
ATOM      9  N   UNL     1      -0.176  11.203  21.002  0.00  0.00    +0.000 N 
ATOM     10  C   UNL     1      -0.473  11.495  19.664  0.00  0.00    +0.000 C 
ATOM     11  O   UNL     1       0.413  11.726  18.837  0.00  0.00    +0.000 OA
ATOM     12  C   UNL     1       1.235  11.086  21.375  0.00  0.00    +0.000 C 
BRANCH  10  13
ATOM     13  C   UNL     1      -1.870  11.458  19.149  0.00  0.00    +0.000 A 
ATOM     14  C   UNL     1      -2.867  12.354  19.549  0.00  0.00    +0.000 A 
ATOM     15  C   UNL     1      -4.192  12.157  19.152  0.00  0.00    +0.000 A 
ATOM     16  C   UNL     1      -4.504  11.136  18.257  0.00  0.00    +0.000 A 
ATOM     17 CL   UNL     1      -6.137  10.893  17.776  0.00  0.00    +0.000 Cl
ATOM     18  C   UNL     1      -3.499  10.319  17.746  0.00  0.00    +0.000 A 
ATOM     19  C   UNL     1      -2.186  10.474  18.200  0.00  0.00    +0.000 A 
ENDBRANCH  10  13
ENDBRANCH   2   5
BRANCH   1  24
ATOM     20  C   UNL     1       3.079   5.097  18.474  0.00  0.00    +0.000 A 
ATOM     21  C   UNL     1       2.188   4.024  18.544  0.00  0.00    +0.000 A 
ATOM     22  C   UNL     1       1.157   4.072  19.473  0.00  0.00    +0.000 A 
ATOM     23  C   UNL     1       1.042   5.167  20.334  0.00  0.00    +0.000 A 
ATOM     24  C   UNL     1       1.972   6.216  20.302  0.00  0.00    +0.000 A 
ATOM     25  C   UNL     1       2.998   6.175  19.361  0.00  0.00    +0.000 A 
BRANCH  20  26
ATOM     26  S   UNL     1       4.316   5.124  17.193  0.00  0.00    +0.000 S 
ATOM     27  O   UNL     1       4.348   6.456  16.629  0.00  0.00    +0.000 OA
ATOM     28  O   UNL     1       4.093   3.959  16.361  0.00  0.00    +0.000 OA
BRANCH  26  30
ATOM     29  C   UNL     1       5.645   3.953  19.235  0.00  0.00    +0.000 C 
ATOM     30  N   UNL     1       5.750   4.875  18.089  0.00  0.00    +0.000 NA
ATOM     31  C   UNL     1       6.983   4.672  17.302  0.00  0.00    +0.000 C 
ENDBRANCH  26  30
ENDBRANCH  20  26
ENDBRANCH   1  24
TORSDOF 5
ENDMDL
MODEL 9
REMARK VINA RESULT:      -7.5      5.814      8.307
REMARK  Name = 
REMARK  7 active torsions:
REMARK  status: ('A' for Active; 'I' for Inactive)
REMARK    1  A    between atoms: C_1  and  N_2
REMARK    2  A    between atoms: N_2  and  C_3
REMARK    3  A    between atoms: N_2  and  S_4
REMARK    4  A    between atoms: S_4  and  C_7
REMARK    5  A    between atoms: C_11  and  N_12
REMARK    6  A    between atoms: C_13  and  C_15
REMARK    7  A    between atoms: C_20  and  C_22
REMARK                            x       y       z     vdW  Elec       q    Type
REMARK                         _______ _______ _______ _____ _____    ______ ____
ROOT
ATOM      1  N   UNL     1      -5.258  12.495  18.123  0.00  0.00    +0.000 N 
ATOM      2  C   UNL     1      -6.236  12.142  19.031  0.00  0.00    +0.000 C 
ATOM      3  O   UNL     1      -6.196  11.121  19.720  0.00  0.00    +0.000 OA
ATOM      4  H   UNL     1      -5.247  13.446  17.780  0.00  0.00    +0.000 HD
ENDROOT
BRANCH   2   5
ATOM      5  C   UNL     1      -7.348  13.178  19.236  0.00  0.00    +0.000 C 
ATOM      6  C   UNL     1      -6.940  14.510  18.574  0.00  0.00    +0.000 C 
ATOM      7  C   UNL     1      -5.828  15.207  19.357  0.00  0.00    +0.000 C 
ATOM      8  C   UNL     1      -6.199  15.368  20.822  0.00  0.00    +0.000 C 
ATOM      9  N   UNL     1      -6.614  14.095  21.425  0.00  0.00    +0.000 N 
ATOM     10  C   UNL     1      -6.011  13.404  22.484  0.00  0.00    +0.000 C 
ATOM     11  O   UNL     1      -6.424  12.305  22.861  0.00  0.00    +0.000 OA
ATOM     12  C   UNL     1      -7.703  13.426  20.709  0.00  0.00    +0.000 C 
BRANCH  10  13
ATOM     13  C   UNL     1      -4.786  13.921  23.155  0.00  0.00    +0.000 A 
ATOM     14  C   UNL     1      -3.514  13.368  22.979  0.00  0.00    +0.000 A 
ATOM     15  C   UNL     1      -2.443  13.797  23.767  0.00  0.00    +0.000 A 
ATOM     16  C   UNL     1      -2.613  14.863  24.647  0.00  0.00    +0.000 A 
ATOM     17 CL   UNL     1      -1.294  15.385  25.620  0.00  0.00    +0.000 Cl
ATOM     18  C   UNL     1      -3.842  15.512  24.736  0.00  0.00    +0.000 A 
ATOM     19  C   UNL     1      -4.930  15.034  23.999  0.00  0.00    +0.000 A 
ENDBRANCH  10  13
ENDBRANCH   2   5
BRANCH   1  24
ATOM     20  C   UNL     1      -1.945  10.876  18.228  0.00  0.00    +0.000 A 
ATOM     21  C   UNL     1      -1.958  10.055  17.097  0.00  0.00    +0.000 A 
ATOM     22  C   UNL     1      -3.071  10.078  16.268  0.00  0.00    +0.000 A 
ATOM     23  C   UNL     1      -4.162  10.891  16.586  0.00  0.00    +0.000 A 
ATOM     24  C   UNL     1      -4.173  11.670  17.751  0.00  0.00    +0.000 A 
ATOM     25  C   UNL     1      -3.050  11.658  18.575  0.00  0.00    +0.000 A 
BRANCH  20  26
ATOM     26  S   UNL     1      -0.470  10.974  19.220  0.00  0.00    +0.000 S 
ATOM     27  O   UNL     1       0.652  10.583  18.395  0.00  0.00    +0.000 OA
ATOM     28  O   UNL     1      -0.754  10.303  20.472  0.00  0.00    +0.000 OA
BRANCH  26  30
ATOM     29  C   UNL     1      -0.072  13.043  20.915  0.00  0.00    +0.000 C 
ATOM     30  N   UNL     1      -0.367  12.653  19.524  0.00  0.00    +0.000 NA
ATOM     31  C   UNL     1       0.390  13.448  18.534  0.00  0.00    +0.000 C 
ENDBRANCH  26  30
ENDBRANCH  20  26
ENDBRANCH   1  24
TORSDOF 5
ENDMDL
