MODEL 1
REMARK VINA RESULT:      -6.8      0.000      0.000
REMARK  Name = 
REMARK  11 active torsions:
REMARK  status: ('A' for Active; 'I' for Inactive)
REMARK    1  A    between atoms: C_1  and  C_2
REMARK    2  A    between atoms: C_2  and  N_3
REMARK    3  A    between atoms: N_3  and  C_4
REMARK    4  A    between atoms: N_3  and  S_6
REMARK    5  A    between atoms: C_4  and  C_5
REMARK    6  A    between atoms: S_6  and  C_9
REMARK    7  A    between atoms: C_11  and  C_12
REMARK    8  A    between atoms: C_12  and  N_14
REMARK    9  A    between atoms: N_19  and  C_20
REMARK   10  A    between atoms: C_23  and  O_24
REMARK   11  A    between atoms: O_24  and  C_25
REMARK                            x       y       z     vdW  Elec       q    Type
REMARK                         _______ _______ _______ _____ _____    ______ ____
ROOT
ATOM      1  C   UNL     1       3.977   6.403  18.016  0.00  0.00    +0.000 A 
ATOM      2  C   UNL     1       3.371   7.641  17.661  0.00  0.00    +0.000 A 
ATOM      3  C   UNL     1       2.317   8.205  18.391  0.00  0.00    +0.000 A 
ATOM      4  C   UNL     1       1.849   7.532  19.508  0.00  0.00    +0.000 A 
ATOM      5  C   UNL     1       2.447   6.320  19.872  0.00  0.00    +0.000 A 
ATOM      6  C   UNL     1       3.511   5.724  19.146  0.00  0.00    +0.000 A 
ENDROOT
BRANCH   1   7
ATOM      7  S   UNL     1       5.264   5.943  16.863  0.00  0.00    +0.000 S 
ATOM      8  O   UNL     1       5.137   6.833  15.727  0.00  0.00    +0.000 OA
ATOM      9  O   UNL     1       5.339   4.520  16.645  0.00  0.00    +0.000 OA
BRANCH   7  10
ATOM     10  N   UNL     1       6.705   6.377  17.707  0.00  0.00    +0.000 NA
BRANCH  10  12
ATOM     11  C   UNL     1       7.968   5.512  19.703  0.00  0.00    +0.000 C 
ATOM     12  C   UNL     1       7.427   5.217  18.313  0.00  0.00    +0.000 C 
ENDBRANCH  10  12
BRANCH  10  13
ATOM     13  C   UNL     1       7.568   7.352  16.969  0.00  0.00    +0.000 C 
ATOM     14  C   UNL     1       7.863   8.622  17.752  0.00  0.00    +0.000 C 
ENDBRANCH  10  13
ENDBRANCH   7  10
ENDBRANCH   1   7
BRANCH   3  15
ATOM     15  C   UNL     1       1.730   9.503  17.940  0.00  0.00    +0.000 C 
ATOM     16  O   UNL     1       2.501  10.369  17.542  0.00  0.00    +0.000 OA
BRANCH  15  17
ATOM     17  N   UNL     1       0.360   9.560  17.885  0.00  0.00    +0.000 NA
ATOM     18  C   UNL     1      -0.293  10.425  18.596  0.00  0.00    +0.000 A 
ATOM     19  S   UNL     1       0.370  11.498  19.875  0.00  0.00    +0.000 S 
ATOM     20  C   UNL     1      -1.188  12.232  20.140  0.00  0.00    +0.000 A 
ATOM     21  C   UNL     1      -2.117  11.679  19.351  0.00  0.00    +0.000 A 
ATOM     22  N   UNL     1      -1.665  10.672  18.515  0.00  0.00    +0.000 N 
ATOM     23  C   UNL     1      -2.505   9.984  17.557  0.00  0.00    +0.000 C 
ENDBRANCH  15  17
ENDBRANCH   3  15
BRANCH   6  24
ATOM     24  O   UNL     1       3.846   4.575  19.790  0.00  0.00    +0.000 OA
ATOM     25  C   UNL     1       3.349   3.297  19.469  0.00  0.00    +0.000 C 
ENDBRANCH   6  24
TORSDOF 7
ENDMDL
MODEL 2
REMARK VINA RESULT:      -6.8      1.554      2.014
REMARK  Name = 
REMARK  11 active torsions:
REMARK  status: ('A' for Active; 'I' for Inactive)
REMARK    1  A    between atoms: C_1  and  C_2
REMARK    2  A    between atoms: C_2  and  N_3
REMARK    3  A    between atoms: N_3  and  C_4
REMARK    4  A    between atoms: N_3  and  S_6
REMARK    5  A    between atoms: C_4  and  C_5
REMARK    6  A    between atoms: S_6  and  C_9
REMARK    7  A    between atoms: C_11  and  C_12
REMARK    8  A    between atoms: C_12  and  N_14
REMARK    9  A    between atoms: N_19  and  C_20
REMARK   10  A    between atoms: C_23  and  O_24
REMARK   11  A    between atoms: O_24  and  C_25
REMARK                            x       y       z     vdW  Elec       q    Type
REMARK                         _______ _______ _______ _____ _____    ______ ____
ROOT
ATOM      1  C   UNL     1       3.233   5.194  19.364  0.00  0.00    +0.000 A 
ATOM      2  C   UNL     1       3.037   6.373  18.592  0.00  0.00    +0.000 A 
ATOM      3  C   UNL     1       2.163   7.396  18.980  0.00  0.00    +0.000 A 
ATOM      4  C   UNL     1       1.465   7.256  20.169  0.00  0.00    +0.000 A 
ATOM      5  C   UNL     1       1.660   6.106  20.941  0.00  0.00    +0.000 A 
ATOM      6  C   UNL     1       2.534   5.052  20.567  0.00  0.00    +0.000 A 
ENDROOT
BRANCH   1   7
ATOM      7  S   UNL     1       4.380   4.071  18.576  0.00  0.00    +0.000 S 
ATOM      8  O   UNL     1       3.679   3.491  17.448  0.00  0.00    +0.000 OA
ATOM      9  O   UNL     1       5.054   3.208  19.513  0.00  0.00    +0.000 OA
BRANCH   7  10
ATOM     10  N   UNL     1       5.586   5.135  17.949  0.00  0.00    +0.000 NA
BRANCH  10  12
ATOM     11  C   UNL     1       7.658   6.486  18.403  0.00  0.00    +0.000 C 
ATOM     12  C   UNL     1       6.706   5.409  18.899  0.00  0.00    +0.000 C 
ENDBRANCH  10  12
BRANCH  10  13
ATOM     13  C   UNL     1       5.998   4.821  16.546  0.00  0.00    +0.000 C 
ATOM     14  C   UNL     1       5.433   5.783  15.512  0.00  0.00    +0.000 C 
ENDBRANCH  10  13
ENDBRANCH   7  10
ENDBRANCH   1   7
BRANCH   3  15
ATOM     15  C   UNL     1       2.008   8.595  18.103  0.00  0.00    +0.000 C 
ATOM     16  O   UNL     1       3.019   9.062  17.590  0.00  0.00    +0.000 OA
BRANCH  15  17
ATOM     17  N   UNL     1       0.720   8.990  17.839  0.00  0.00    +0.000 NA
ATOM     18  C   UNL     1       0.238  10.067  18.374  0.00  0.00    +0.000 A 
ATOM     19  S   UNL     1       0.999  11.080  19.647  0.00  0.00    +0.000 S 
ATOM     20  C   UNL     1      -0.328  12.208  19.618  0.00  0.00    +0.000 A 
ATOM     21  C   UNL     1      -1.266  11.820  18.745  0.00  0.00    +0.000 A 
ATOM     22  N   UNL     1      -0.998  10.641  18.069  0.00  0.00    +0.000 N 
ATOM     23  C   UNL     1      -1.866  10.080  17.054  0.00  0.00    +0.000 C 
ENDBRANCH  15  17
ENDBRANCH   3  15
BRANCH   6  24
ATOM     24  O   UNL     1       2.484   4.116  21.551  0.00  0.00    +0.000 OA
ATOM     25  C   UNL     1       1.705   2.944  21.508  0.00  0.00    +0.000 C 
ENDBRANCH   6  24
TORSDOF 7
ENDMDL
MODEL 3
REMARK VINA RESULT:      -6.8      0.442      1.276
REMARK  Name = 
REMARK  11 active torsions:
REMARK  status: ('A' for Active; 'I' for Inactive)
REMARK    1  A    between atoms: C_1  and  C_2
REMARK    2  A    between atoms: C_2  and  N_3
REMARK    3  A    between atoms: N_3  and  C_4
REMARK    4  A    between atoms: N_3  and  S_6
REMARK    5  A    between atoms: C_4  and  C_5
REMARK    6  A    between atoms: S_6  and  C_9
REMARK    7  A    between atoms: C_11  and  C_12
REMARK    8  A    between atoms: C_12  and  N_14
REMARK    9  A    between atoms: N_19  and  C_20
REMARK   10  A    between atoms: C_23  and  O_24
REMARK   11  A    between atoms: O_24  and  C_25
REMARK                            x       y       z     vdW  Elec       q    Type
REMARK                         _______ _______ _______ _____ _____    ______ ____
ROOT
ATOM      1  C   UNL     1       4.139   6.369  17.674  0.00  0.00    +0.000 A 
ATOM      2  C   UNL     1       3.506   7.616  17.410  0.00  0.00    +0.000 A 
ATOM      3  C   UNL     1       2.520   8.157  18.245  0.00  0.00    +0.000 A 
ATOM      4  C   UNL     1       2.151   7.451  19.378  0.00  0.00    +0.000 A 
ATOM      5  C   UNL     1       2.777   6.230  19.653  0.00  0.00    +0.000 A 
ATOM      6  C   UNL     1       3.773   5.657  18.820  0.00  0.00    +0.000 A 
ENDROOT
BRANCH   1   7
ATOM      7  S   UNL     1       5.320   5.944  16.400  0.00  0.00    +0.000 S 
ATOM      8  O   UNL     1       5.092   6.863  15.304  0.00  0.00    +0.000 OA
ATOM      9  O   UNL     1       5.377   4.528  16.139  0.00  0.00    +0.000 OA
BRANCH   7  10
ATOM     10  N   UNL     1       6.830   6.360  17.125  0.00  0.00    +0.000 NA
BRANCH  10  12
ATOM     11  C   UNL     1       8.131   8.467  17.564  0.00  0.00    +0.000 C 
ATOM     12  C   UNL     1       6.837   7.701  17.785  0.00  0.00    +0.000 C 
ENDBRANCH  10  12
BRANCH  10  13
ATOM     13  C   UNL     1       7.444   5.252  17.921  0.00  0.00    +0.000 C 
ATOM     14  C   UNL     1       7.554   5.553  19.407  0.00  0.00    +0.000 C 
ENDBRANCH  10  13
ENDBRANCH   7  10
ENDBRANCH   1   7
BRANCH   3  15
ATOM     15  C   UNL     1       1.899   9.467  17.885  0.00  0.00    +0.000 C 
ATOM     16  O   UNL     1       2.638  10.358  17.481  0.00  0.00    +0.000 OA
BRANCH  15  17
ATOM     17  N   UNL     1       0.527   9.512  17.912  0.00  0.00    +0.000 NA
ATOM     18  C   UNL     1      -0.090  10.361  18.672  0.00  0.00    +0.000 A 
ATOM     19  S   UNL     1       0.638  11.423  19.924  0.00  0.00    +0.000 S 
ATOM     20  C   UNL     1      -0.908  12.139  20.291  0.00  0.00    +0.000 A 
ATOM     21  C   UNL     1      -1.877  11.589  19.550  0.00  0.00    +0.000 A 
ATOM     22  N   UNL     1      -1.467  10.597  18.675  0.00  0.00    +0.000 N 
ATOM     23  C   UNL     1      -2.356   9.914  17.758  0.00  0.00    +0.000 C 
ENDBRANCH  15  17
ENDBRANCH   3  15
BRANCH   6  24
ATOM     24  O   UNL     1       4.162   4.490  19.399  0.00  0.00    +0.000 OA
ATOM     25  C   UNL     1       3.766   3.208  18.971  0.00  0.00    +0.000 C 
ENDBRANCH   6  24
TORSDOF 7
ENDMDL
MODEL 4
REMARK VINA RESULT:      -6.6      1.800      2.385
REMARK  Name = 
REMARK  11 active torsions:
REMARK  status: ('A' for Active; 'I' for Inactive)
REMARK    1  A    between atoms: C_1  and  C_2
REMARK    2  A    between atoms: C_2  and  N_3
REMARK    3  A    between atoms: N_3  and  C_4
REMARK    4  A    between atoms: N_3  and  S_6
REMARK    5  A    between atoms: C_4  and  C_5
REMARK    6  A    between atoms: S_6  and  C_9
REMARK    7  A    between atoms: C_11  and  C_12
REMARK    8  A    between atoms: C_12  and  N_14
REMARK    9  A    between atoms: N_19  and  C_20
REMARK   10  A    between atoms: C_23  and  O_24
REMARK   11  A    between atoms: O_24  and  C_25
REMARK                            x       y       z     vdW  Elec       q    Type
REMARK                         _______ _______ _______ _____ _____    ______ ____
ROOT
ATOM      1  C   UNL     1       2.978   5.343  19.308  0.00  0.00    +0.000 A 
ATOM      2  C   UNL     1       2.852   6.598  18.648  0.00  0.00    +0.000 A 
ATOM      3  C   UNL     1       2.110   7.661  19.178  0.00  0.00    +0.000 A 
ATOM      4  C   UNL     1       1.478   7.485  20.398  0.00  0.00    +0.000 A 
ATOM      5  C   UNL     1       1.606   6.259  21.060  0.00  0.00    +0.000 A 
ATOM      6  C   UNL     1       2.346   5.164  20.541  0.00  0.00    +0.000 A 
ENDROOT
BRANCH   1   7
ATOM      7  S   UNL     1       3.956   4.190  18.352  0.00  0.00    +0.000 S 
ATOM      8  O   UNL     1       3.199   3.904  17.152  0.00  0.00    +0.000 OA
ATOM      9  O   UNL     1       4.469   3.101  19.144  0.00  0.00    +0.000 OA
BRANCH   7  10
ATOM     10  N   UNL     1       5.323   5.138  17.894  0.00  0.00    +0.000 NA
BRANCH  10  12
ATOM     11  C   UNL     1       7.567   6.076  18.532  0.00  0.00    +0.000 C 
ATOM     12  C   UNL     1       6.324   5.329  18.987  0.00  0.00    +0.000 C 
ENDBRANCH  10  12
BRANCH  10  13
ATOM     13  C   UNL     1       5.894   4.770  16.561  0.00  0.00    +0.000 C 
ATOM     14  C   UNL     1       5.501   5.723  15.443  0.00  0.00    +0.000 C 
ENDBRANCH  10  13
ENDBRANCH   7  10
ENDBRANCH   1   7
BRANCH   3  15
ATOM     15  C   UNL     1       2.020   8.941  18.412  0.00  0.00    +0.000 C 
ATOM     16  O   UNL     1       2.203   8.895  17.201  0.00  0.00    +0.000 OA
BRANCH  15  17
ATOM     17  N   UNL     1       1.605  10.041  19.121  0.00  0.00    +0.000 NA
ATOM     18  C   UNL     1       0.390  10.477  19.009  0.00  0.00    +0.000 A 
ATOM     19  S   UNL     1      -0.853   9.931  17.834  0.00  0.00    +0.000 S 
ATOM     20  C   UNL     1      -2.039  11.019  18.502  0.00  0.00    +0.000 A 
ATOM     21  C   UNL     1      -1.514  11.744  19.497  0.00  0.00    +0.000 A 
ATOM     22  N   UNL     1      -0.183  11.490  19.781  0.00  0.00    +0.000 N 
ATOM     23  C   UNL     1       0.551  12.138  20.849  0.00  0.00    +0.000 C 
ENDBRANCH  15  17
ENDBRANCH   3  15
BRANCH   6  24
ATOM     24  O   UNL     1       2.265   4.155  21.449  0.00  0.00    +0.000 OA
ATOM     25  C   UNL     1       1.465   3.005  21.305  0.00  0.00    +0.000 C 
ENDBRANCH   6  24
TORSDOF 7
ENDMDL
MODEL 5
REMARK VINA RESULT:      -6.5      1.662      2.245
REMARK  Name = 
REMARK  11 active torsions:
REMARK  status: ('A' for Active; 'I' for Inactive)
REMARK    1  A    between atoms: C_1  and  C_2
REMARK    2  A    between atoms: C_2  and  N_3
REMARK    3  A    between atoms: N_3  and  C_4
REMARK    4  A    between atoms: N_3  and  S_6
REMARK    5  A    between atoms: C_4  and  C_5
REMARK    6  A    between atoms: S_6  and  C_9
REMARK    7  A    between atoms: C_11  and  C_12
REMARK    8  A    between atoms: C_12  and  N_14
REMARK    9  A    between atoms: N_19  and  C_20
REMARK   10  A    between atoms: C_23  and  O_24
REMARK   11  A    between atoms: O_24  and  C_25
REMARK                            x       y       z     vdW  Elec       q    Type
REMARK                         _______ _______ _______ _____ _____    ______ ____
ROOT
ATOM      1  C   UNL     1       4.396   5.506  17.155  0.00  0.00    +0.000 A 
ATOM      2  C   UNL     1       3.800   6.775  17.403  0.00  0.00    +0.000 A 
ATOM      3  C   UNL     1       2.680   6.938  18.228  0.00  0.00    +0.000 A 
ATOM      4  C   UNL     1       2.134   5.817  18.832  0.00  0.00    +0.000 A 
ATOM      5  C   UNL     1       2.719   4.567  18.604  0.00  0.00    +0.000 A 
ATOM      6  C   UNL     1       3.850   4.374  17.767  0.00  0.00    +0.000 A 
ENDROOT
BRANCH   1   7
ATOM      7  S   UNL     1       5.781   5.634  16.031  0.00  0.00    +0.000 S 
ATOM      8  O   UNL     1       5.493   6.747  15.149  0.00  0.00    +0.000 OA
ATOM      9  O   UNL     1       6.166   4.364  15.469  0.00  0.00    +0.000 OA
BRANCH   7  10
ATOM     10  N   UNL     1       7.072   6.113  17.071  0.00  0.00    +0.000 NA
BRANCH  10  12
ATOM     11  C   UNL     1       8.042   8.391  17.509  0.00  0.00    +0.000 C 
ATOM     12  C   UNL     1       6.871   7.445  17.716  0.00  0.00    +0.000 C 
ENDBRANCH  10  12
BRANCH  10  13
ATOM     13  C   UNL     1       7.548   5.025  17.982  0.00  0.00    +0.000 C 
ATOM     14  C   UNL     1       7.712   5.467  19.428  0.00  0.00    +0.000 C 
ENDBRANCH  10  13
ENDBRANCH   7  10
ENDBRANCH   1   7
BRANCH   3  15
ATOM     15  C   UNL     1       2.112   8.305  18.424  0.00  0.00    +0.000 C 
ATOM     16  O   UNL     1       2.155   9.083  17.477  0.00  0.00    +0.000 OA
BRANCH  15  17
ATOM     17  N   UNL     1       1.465   8.526  19.615  0.00  0.00    +0.000 NA
ATOM     18  C   UNL     1       0.930   9.678  19.870  0.00  0.00    +0.000 A 
ATOM     19  S   UNL     1       1.092  11.186  18.909  0.00  0.00    +0.000 S 
ATOM     20  C   UNL     1       0.038  12.053  19.991  0.00  0.00    +0.000 A 
ATOM     21  C   UNL     1      -0.362  11.268  20.999  0.00  0.00    +0.000 A 
ATOM     22  N   UNL     1       0.128   9.973  20.975  0.00  0.00    +0.000 N 
ATOM     23  C   UNL     1      -0.223   8.961  21.950  0.00  0.00    +0.000 C 
ENDBRANCH  15  17
ENDBRANCH   3  15
BRANCH   6  24
ATOM     24  O   UNL     1       4.149   3.049  17.792  0.00  0.00    +0.000 OA
ATOM     25  C   UNL     1       3.212   2.015  17.979  0.00  0.00    +0.000 C 
ENDBRANCH   6  24
TORSDOF 7
ENDMDL
MODEL 6
REMARK VINA RESULT:      -6.5      2.021      2.585
REMARK  Name = 
REMARK  11 active torsions:
REMARK  status: ('A' for Active; 'I' for Inactive)
REMARK    1  A    between atoms: C_1  and  C_2
REMARK    2  A    between atoms: C_2  and  N_3
REMARK    3  A    between atoms: N_3  and  C_4
REMARK    4  A    between atoms: N_3  and  S_6
REMARK    5  A    between atoms: C_4  and  C_5
REMARK    6  A    between atoms: S_6  and  C_9
REMARK    7  A    between atoms: C_11  and  C_12
REMARK    8  A    between atoms: C_12  and  N_14
REMARK    9  A    between atoms: N_19  and  C_20
REMARK   10  A    between atoms: C_23  and  O_24
REMARK   11  A    between atoms: O_24  and  C_25
REMARK                            x       y       z     vdW  Elec       q    Type
REMARK                         _______ _______ _______ _____ _____    ______ ____
ROOT
ATOM      1  C   UNL     1       4.309   6.484  17.821  0.00  0.00    +0.000 A 
ATOM      2  C   UNL     1       3.415   7.592  17.808  0.00  0.00    +0.000 A 
ATOM      3  C   UNL     1       2.383   7.744  18.743  0.00  0.00    +0.000 A 
ATOM      4  C   UNL     1       2.230   6.777  19.724  0.00  0.00    +0.000 A 
ATOM      5  C   UNL     1       3.111   5.691  19.752  0.00  0.00    +0.000 A 
ATOM      6  C   UNL     1       4.161   5.510  18.812  0.00  0.00    +0.000 A 
ENDROOT
BRANCH   1   7
ATOM      7  S   UNL     1       5.484   6.568  16.475  0.00  0.00    +0.000 S 
ATOM      8  O   UNL     1       6.636   7.287  16.979  0.00  0.00    +0.000 OA
ATOM      9  O   UNL     1       4.882   6.973  15.230  0.00  0.00    +0.000 OA
BRANCH   7  10
ATOM     10  N   UNL     1       5.947   4.918  16.271  0.00  0.00    +0.000 NA
BRANCH  10  12
ATOM     11  C   UNL     1       6.297   3.974  13.966  0.00  0.00    +0.000 C 
ATOM     12  C   UNL     1       5.315   4.251  15.094  0.00  0.00    +0.000 C 
ENDBRANCH  10  12
BRANCH  10  13
ATOM     13  C   UNL     1       7.416   4.679  16.429  0.00  0.00    +0.000 C 
ATOM     14  C   UNL     1       7.854   4.495  17.874  0.00  0.00    +0.000 C 
ENDBRANCH  10  13
ENDBRANCH   7  10
ENDBRANCH   1   7
BRANCH   3  15
ATOM     15  C   UNL     1       1.483   8.932  18.648  0.00  0.00    +0.000 C 
ATOM     16  O   UNL     1       1.167   9.322  17.530  0.00  0.00    +0.000 OA
BRANCH  15  17
ATOM     17  N   UNL     1       0.976   9.402  19.835  0.00  0.00    +0.000 NA
ATOM     18  C   UNL     1       0.895  10.676  20.058  0.00  0.00    +0.000 A 
ATOM     19  S   UNL     1       1.575  11.998  19.051  0.00  0.00    +0.000 S 
ATOM     20  C   UNL     1       0.919  13.215  20.111  0.00  0.00    +0.000 A 
ATOM     21  C   UNL     1       0.279  12.654  21.144  0.00  0.00    +0.000 A 
ATOM     22  N   UNL     1       0.270  11.269  21.157  0.00  0.00    +0.000 N 
ATOM     23  C   UNL     1      -0.407  10.477  22.163  0.00  0.00    +0.000 C 
ENDBRANCH  15  17
ENDBRANCH   3  15
BRANCH   6  24
ATOM     24  O   UNL     1       4.815   4.369  19.152  0.00  0.00    +0.000 OA
ATOM     25  C   UNL     1       4.216   3.098  19.256  0.00  0.00    +0.000 C 
ENDBRANCH   6  24
TORSDOF 7
ENDMDL
MODEL 7
REMARK VINA RESULT:      -6.5      2.754      4.427
REMARK  Name = 
REMARK  11 active torsions:
REMARK  status: ('A' for Active; 'I' for Inactive)
REMARK    1  A    between atoms: C_1  and  C_2
REMARK    2  A    between atoms: C_2  and  N_3
REMARK    3  A    between atoms: N_3  and  C_4
REMARK    4  A    between atoms: N_3  and  S_6
REMARK    5  A    between atoms: C_4  and  C_5
REMARK    6  A    between atoms: S_6  and  C_9
REMARK    7  A    between atoms: C_11  and  C_12
REMARK    8  A    between atoms: C_12  and  N_14
REMARK    9  A    between atoms: N_19  and  C_20
REMARK   10  A    between atoms: C_23  and  O_24
REMARK   11  A    between atoms: O_24  and  C_25
REMARK                            x       y       z     vdW  Elec       q    Type
REMARK                         _______ _______ _______ _____ _____    ______ ____
ROOT
ATOM      1  C   UNL     1       3.948   5.105  18.138  0.00  0.00    +0.000 A 
ATOM      2  C   UNL     1       3.062   5.743  19.051  0.00  0.00    +0.000 A 
ATOM      3  C   UNL     1       2.698   7.091  18.937  0.00  0.00    +0.000 A 
ATOM      4  C   UNL     1       3.217   7.831  17.887  0.00  0.00    +0.000 A 
ATOM      5  C   UNL     1       4.079   7.209  16.977  0.00  0.00    +0.000 A 
ATOM      6  C   UNL     1       4.469   5.847  17.074  0.00  0.00    +0.000 A 
ENDROOT
BRANCH   1   7
ATOM      7  S   UNL     1       4.239   3.397  18.583  0.00  0.00    +0.000 S 
ATOM      8  O   UNL     1       5.366   3.396  19.494  0.00  0.00    +0.000 OA
ATOM      9  O   UNL     1       4.246   2.515  17.445  0.00  0.00    +0.000 OA
BRANCH   7  10
ATOM     10  N   UNL     1       2.830   2.996  19.495  0.00  0.00    +0.000 NA
BRANCH  10  12
ATOM     11  C   UNL     1       0.470   2.577  18.735  0.00  0.00    +0.000 C 
ATOM     12  C   UNL     1       1.899   2.062  18.794  0.00  0.00    +0.000 C 
ENDBRANCH  10  12
BRANCH  10  13
ATOM     13  C   UNL     1       3.112   2.665  20.927  0.00  0.00    +0.000 C 
ATOM     14  C   UNL     1       2.110   3.263  21.902  0.00  0.00    +0.000 C 
ENDBRANCH  10  13
ENDBRANCH   7  10
ENDBRANCH   1   7
BRANCH   3  15
ATOM     15  C   UNL     1       1.771   7.684  19.947  0.00  0.00    +0.000 C 
ATOM     16  O   UNL     1       1.465   6.995  20.914  0.00  0.00    +0.000 OA
BRANCH  15  17
ATOM     17  N   UNL     1       1.451   9.007  19.770  0.00  0.00    +0.000 NA
ATOM     18  C   UNL     1       0.731   9.633  20.647  0.00  0.00    +0.000 A 
ATOM     19  S   UNL     1      -0.127   8.921  22.055  0.00  0.00    +0.000 S 
ATOM     20  C   UNL     1      -0.697  10.485  22.566  0.00  0.00    +0.000 A 
ATOM     21  C   UNL     1      -0.295  11.441  21.720  0.00  0.00    +0.000 A 
ATOM     22  N   UNL     1       0.464  11.004  20.647  0.00  0.00    +0.000 N 
ATOM     23  C   UNL     1       1.030  11.888  19.648  0.00  0.00    +0.000 C 
ENDBRANCH  15  17
ENDBRANCH   3  15
BRANCH   6  24
ATOM     24  O   UNL     1       5.291   5.586  16.024  0.00  0.00    +0.000 OA
ATOM     25  C   UNL     1       6.627   5.156  16.134  0.00  0.00    +0.000 C 
ENDBRANCH   6  24
TORSDOF 7
ENDMDL
MODEL 8
REMARK VINA RESULT:      -6.4      1.865      2.595
REMARK  Name = 
REMARK  11 active torsions:
REMARK  status: ('A' for Active; 'I' for Inactive)
REMARK    1  A    between atoms: C_1  and  C_2
REMARK    2  A    between atoms: C_2  and  N_3
REMARK    3  A    between atoms: N_3  and  C_4
REMARK    4  A    between atoms: N_3  and  S_6
REMARK    5  A    between atoms: C_4  and  C_5
REMARK    6  A    between atoms: S_6  and  C_9
REMARK    7  A    between atoms: C_11  and  C_12
REMARK    8  A    between atoms: C_12  and  N_14
REMARK    9  A    between atoms: N_19  and  C_20
REMARK   10  A    between atoms: C_23  and  O_24
REMARK   11  A    between atoms: O_24  and  C_25
REMARK                            x       y       z     vdW  Elec       q    Type
REMARK                         _______ _______ _______ _____ _____    ______ ____
ROOT
ATOM      1  C   UNL     1       2.583   6.049  18.952  0.00  0.00    +0.000 A 
ATOM      2  C   UNL     1       2.452   7.365  18.425  0.00  0.00    +0.000 A 
ATOM      3  C   UNL     1       1.856   8.412  19.139  0.00  0.00    +0.000 A 
ATOM      4  C   UNL     1       1.380   8.156  20.415  0.00  0.00    +0.000 A 
ATOM      5  C   UNL     1       1.516   6.869  20.947  0.00  0.00    +0.000 A 
ATOM      6  C   UNL     1       2.109   5.789  20.241  0.00  0.00    +0.000 A 
ENDROOT
BRANCH   1   7
ATOM      7  S   UNL     1       3.350   4.940  17.777  0.00  0.00    +0.000 S 
ATOM      8  O   UNL     1       4.086   5.770  16.846  0.00  0.00    +0.000 OA
ATOM      9  O   UNL     1       2.441   3.942  17.273  0.00  0.00    +0.000 OA
BRANCH   7  10
ATOM     10  N   UNL     1       4.502   4.096  18.747  0.00  0.00    +0.000 NA
BRANCH  10  12
ATOM     11  C   UNL     1       4.530   2.131  20.316  0.00  0.00    +0.000 C 
ATOM     12  C   UNL     1       4.199   2.643  18.924  0.00  0.00    +0.000 C 
ENDBRANCH  10  12
BRANCH  10  13
ATOM     13  C   UNL     1       5.924   4.416  18.411  0.00  0.00    +0.000 C 
ATOM     14  C   UNL     1       6.548   5.462  19.322  0.00  0.00    +0.000 C 
ENDBRANCH  10  13
ENDBRANCH   7  10
ENDBRANCH   1   7
BRANCH   3  15
ATOM     15  C   UNL     1       1.749   9.759  18.504  0.00  0.00    +0.000 C 
ATOM     16  O   UNL     1       2.078   9.864  17.328  0.00  0.00    +0.000 OA
BRANCH  15  17
ATOM     17  N   UNL     1       1.159  10.740  19.263  0.00  0.00    +0.000 NA
ATOM     18  C   UNL     1      -0.098  11.018  19.119  0.00  0.00    +0.000 A 
ATOM     19  S   UNL     1      -1.206  10.400  17.848  0.00  0.00    +0.000 S 
ATOM     20  C   UNL     1      -2.555  11.269  18.527  0.00  0.00    +0.000 A 
ATOM     21  C   UNL     1      -2.176  11.981  19.595  0.00  0.00    +0.000 A 
ATOM     22  N   UNL     1      -0.835  11.886  19.928  0.00  0.00    +0.000 N 
ATOM     23  C   UNL     1      -0.241  12.545  21.073  0.00  0.00    +0.000 C 
ENDBRANCH  15  17
ENDBRANCH   3  15
BRANCH   6  24
ATOM     24  O   UNL     1       2.084   4.707  21.062  0.00  0.00    +0.000 OA
ATOM     25  C   UNL     1       1.241   3.591  20.897  0.00  0.00    +0.000 C 
ENDBRANCH   6  24
TORSDOF 7
ENDMDL
MODEL 9
REMARK VINA RESULT:      -6.4      3.760      7.865
REMARK  Name = 
REMARK  11 active torsions:
REMARK  status: ('A' for Active; 'I' for Inactive)
REMARK    1  A    between atoms: C_1  and  C_2
REMARK    2  A    between atoms: C_2  and  N_3
REMARK    3  A    between atoms: N_3  and  C_4
REMARK    4  A    between atoms: N_3  and  S_6
REMARK    5  A    between atoms: C_4  and  C_5
REMARK    6  A    between atoms: S_6  and  C_9
REMARK    7  A    between atoms: C_11  and  C_12
REMARK    8  A    between atoms: C_12  and  N_14
REMARK    9  A    between atoms: N_19  and  C_20
REMARK   10  A    between atoms: C_23  and  O_24
REMARK   11  A    between atoms: O_24  and  C_25
REMARK                            x       y       z     vdW  Elec       q    Type
REMARK                         _______ _______ _______ _____ _____    ______ ____
ROOT
ATOM      1  C   UNL     1       3.582   5.213  17.707  0.00  0.00    +0.000 A 
ATOM      2  C   UNL     1       4.901   4.773  17.405  0.00  0.00    +0.000 A 
ATOM      3  C   UNL     1       5.900   5.637  16.937  0.00  0.00    +0.000 A 
ATOM      4  C   UNL     1       5.590   6.977  16.767  0.00  0.00    +0.000 A 
ATOM      5  C   UNL     1       4.299   7.421  17.073  0.00  0.00    +0.000 A 
ATOM      6  C   UNL     1       3.268   6.565  17.541  0.00  0.00    +0.000 A 
ENDROOT
BRANCH   1   7
ATOM      7  S   UNL     1       2.541   3.861  18.243  0.00  0.00    +0.000 S 
ATOM      8  O   UNL     1       3.285   2.644  17.992  0.00  0.00    +0.000 OA
ATOM      9  O   UNL     1       1.186   3.974  17.766  0.00  0.00    +0.000 OA
BRANCH   7  10
ATOM     10  N   UNL     1       2.471   4.088  19.952  0.00  0.00    +0.000 NA
BRANCH  10  12
ATOM     11  C   UNL     1       1.604   6.277  20.835  0.00  0.00    +0.000 C 
ATOM     12  C   UNL     1       1.275   4.854  20.414  0.00  0.00    +0.000 C 
ENDBRANCH  10  12
BRANCH  10  13
ATOM     13  C   UNL     1       2.784   2.854  20.739  0.00  0.00    +0.000 C 
ATOM     14  C   UNL     1       1.697   2.468  21.729  0.00  0.00    +0.000 C 
ENDBRANCH  10  13
ENDBRANCH   7  10
ENDBRANCH   1   7
BRANCH   3  15
ATOM     15  C   UNL     1       7.255   5.088  16.633  0.00  0.00    +0.000 C 
ATOM     16  O   UNL     1       7.785   4.374  17.477  0.00  0.00    +0.000 OA
BRANCH  15  17
ATOM     17  N   UNL     1       7.733   5.325  15.368  0.00  0.00    +0.000 NA
ATOM     18  C   UNL     1       7.206   4.734  14.343  0.00  0.00    +0.000 A 
ATOM     19  S   UNL     1       5.987   3.414  14.360  0.00  0.00    +0.000 S 
ATOM     20  C   UNL     1       5.923   3.380  12.619  0.00  0.00    +0.000 A 
ATOM     21  C   UNL     1       6.775   4.266  12.092  0.00  0.00    +0.000 A 
ATOM     22  N   UNL     1       7.509   5.003  13.006  0.00  0.00    +0.000 N 
ATOM     23  C   UNL     1       8.449   6.041  12.635  0.00  0.00    +0.000 C 
ENDBRANCH  15  17
ENDBRANCH   3  15
BRANCH   6  24
ATOM     24  O   UNL     1       2.166   7.334  17.746  0.00  0.00    +0.000 OA
ATOM     25  C   UNL     1       2.187   8.715  18.018  0.00  0.00    +0.000 C 
ENDBRANCH   6  24
TORSDOF 7
ENDMDL
