MODEL 1
REMARK VINA RESULT:      -7.6      0.000      0.000
REMARK  Name = 
REMARK  4 active torsions:
REMARK  status: ('A' for Active; 'I' for Inactive)
REMARK    1  A    between atoms: C_1  and  N_2
REMARK    2  A    between atoms: C_5  and  C_6
REMARK    3  A    between atoms: C_12  and  C_13
REMARK    4  A    between atoms: C_15  and  C_16
REMARK                            x       y       z     vdW  Elec       q    Type
REMARK                         _______ _______ _______ _____ _____    ______ ____
ROOT
ATOM      1  C   UNL     1       8.419   5.321  20.700  0.00  0.00    +0.000 C 
ATOM      2  N   UNL     1       8.252   5.645  19.303  0.00  0.00    +0.000 N 
ATOM      3  C   UNL     1       7.136   5.118  18.679  0.00  0.00    +0.000 A 
ATOM      4  N   UNL     1       6.037   4.828  19.378  0.00  0.00    +0.000 NA
ATOM      5  C   UNL     1       4.949   4.353  18.720  0.00  0.00    +0.000 A 
ATOM      6  C   UNL     1       4.965   4.172  17.344  0.00  0.00    +0.000 A 
ATOM      7  C   UNL     1       6.144   4.513  16.679  0.00  0.00    +0.000 A 
ATOM      8  N   UNL     1       7.230   4.960  17.356  0.00  0.00    +0.000 NA
ATOM      9  H   UNL     1       9.053   5.486  18.704  0.00  0.00    +0.000 HD
ENDROOT
BRANCH   7  10
ATOM     10  C   UNL     1       6.351   4.438  15.204  0.00  0.00    +0.000 A 
ATOM     11  C   UNL     1       5.538   3.663  14.353  0.00  0.00    +0.000 A 
ATOM     12  C   UNL     1       5.797   3.565  12.985  0.00  0.00    +0.000 A 
ATOM     13  F   UNL     1       5.027   2.769  12.233  0.00  0.00    +0.000 F 
ATOM     14  C   UNL     1       6.827   4.276  12.400  0.00  0.00    +0.000 A 
ATOM     15  C   UNL     1       7.600   5.093  13.206  0.00  0.00    +0.000 A 
ATOM     16  F   UNL     1       8.582   5.817  12.654  0.00  0.00    +0.000 F 
ATOM     17  C   UNL     1       7.381   5.174  14.584  0.00  0.00    +0.000 A 
ENDBRANCH   7  10
BRANCH   5  18
ATOM     18  C   UNL     1       3.760   4.142  19.601  0.00  0.00    +0.000 A 
ATOM     19  C   UNL     1       2.861   5.199  19.841  0.00  0.00    +0.000 A 
ATOM     20  C   UNL     1       1.688   5.017  20.586  0.00  0.00    +0.000 A 
ATOM     21  C   UNL     1       1.376   3.764  21.100  0.00  0.00    +0.000 A 
ATOM     22  C   UNL     1       2.261   2.711  20.915  0.00  0.00    +0.000 A 
ATOM     23  C   UNL     1       3.450   2.909  20.208  0.00  0.00    +0.000 A 
ENDBRANCH   5  18
BRANCH   6  24
ATOM     24  C   UNL     1       3.843   3.667  16.633  0.00  0.00    +0.000 C 
ATOM     25  N   UNL     1       2.915   3.253  16.067  0.00  0.00    +0.000 NA
ENDBRANCH   6  24
TORSDOF 3
ENDMDL
MODEL 2
REMARK VINA RESULT:      -7.4      3.036      4.577
REMARK  Name = 
REMARK  4 active torsions:
REMARK  status: ('A' for Active; 'I' for Inactive)
REMARK    1  A    between atoms: C_1  and  N_2
REMARK    2  A    between atoms: C_5  and  C_6
REMARK    3  A    between atoms: C_12  and  C_13
REMARK    4  A    between atoms: C_15  and  C_16
REMARK                            x       y       z     vdW  Elec       q    Type
REMARK                         _______ _______ _______ _____ _____    ______ ____
ROOT
ATOM      1  C   UNL     1       1.231   2.973  21.820  0.00  0.00    +0.000 C 
ATOM      2  N   UNL     1       2.497   3.064  21.132  0.00  0.00    +0.000 N 
ATOM      3  C   UNL     1       2.679   4.169  20.322  0.00  0.00    +0.000 A 
ATOM      4  N   UNL     1       2.031   5.310  20.570  0.00  0.00    +0.000 NA
ATOM      5  C   UNL     1       2.270   6.385  19.776  0.00  0.00    +0.000 A 
ATOM      6  C   UNL     1       3.175   6.313  18.725  0.00  0.00    +0.000 A 
ATOM      7  C   UNL     1       3.825   5.093  18.538  0.00  0.00    +0.000 A 
ATOM      8  N   UNL     1       3.553   4.022  19.323  0.00  0.00    +0.000 NA
ATOM      9  H   UNL     1       2.789   2.243  20.615  0.00  0.00    +0.000 HD
ENDROOT
BRANCH   7  10
ATOM     10  C   UNL     1       4.862   4.822  17.500  0.00  0.00    +0.000 A 
ATOM     11  C   UNL     1       4.567   4.738  16.125  0.00  0.00    +0.000 A 
ATOM     12  C   UNL     1       5.550   4.421  15.186  0.00  0.00    +0.000 A 
ATOM     13  F   UNL     1       5.203   4.297  13.898  0.00  0.00    +0.000 F 
ATOM     14  C   UNL     1       6.866   4.238  15.562  0.00  0.00    +0.000 A 
ATOM     15  C   UNL     1       7.191   4.378  16.900  0.00  0.00    +0.000 A 
ATOM     16  F   UNL     1       8.466   4.239  17.282  0.00  0.00    +0.000 F 
ATOM     17  C   UNL     1       6.214   4.657  17.860  0.00  0.00    +0.000 A 
ENDBRANCH   7  10
BRANCH   5  18
ATOM     18  C   UNL     1       1.546   7.620  20.204  0.00  0.00    +0.000 A 
ATOM     19  C   UNL     1       1.188   7.798  21.555  0.00  0.00    +0.000 A 
ATOM     20  C   UNL     1       0.590   8.980  22.011  0.00  0.00    +0.000 A 
ATOM     21  C   UNL     1       0.347  10.025  21.128  0.00  0.00    +0.000 A 
ATOM     22  C   UNL     1       0.653   9.866  19.782  0.00  0.00    +0.000 A 
ATOM     23  C   UNL     1       1.209   8.668  19.326  0.00  0.00    +0.000 A 
ENDBRANCH   5  18
BRANCH   6  24
ATOM     24  C   UNL     1       3.435   7.421  17.874  0.00  0.00    +0.000 C 
ATOM     25  N   UNL     1       3.633   8.325  17.170  0.00  0.00    +0.000 NA
ENDBRANCH   6  24
TORSDOF 3
ENDMDL
MODEL 3
REMARK VINA RESULT:      -7.3      8.925     11.924
REMARK  Name = 
REMARK  4 active torsions:
REMARK  status: ('A' for Active; 'I' for Inactive)
REMARK    1  A    between atoms: C_1  and  N_2
REMARK    2  A    between atoms: C_5  and  C_6
REMARK    3  A    between atoms: C_12  and  C_13
REMARK    4  A    between atoms: C_15  and  C_16
REMARK                            x       y       z     vdW  Elec       q    Type
REMARK                         _______ _______ _______ _____ _____    ______ ____
ROOT
ATOM      1  C   UNL     1      -2.523  11.078  16.293  0.00  0.00    +0.000 C 
ATOM      2  N   UNL     1      -2.420  11.987  17.410  0.00  0.00    +0.000 N 
ATOM      3  C   UNL     1      -1.750  11.519  18.525  0.00  0.00    +0.000 A 
ATOM      4  N   UNL     1      -0.809  10.578  18.410  0.00  0.00    +0.000 NA
ATOM      5  C   UNL     1      -0.145  10.177  19.523  0.00  0.00    +0.000 A 
ATOM      6  C   UNL     1      -0.426  10.730  20.765  0.00  0.00    +0.000 A 
ATOM      7  C   UNL     1      -1.410  11.719  20.804  0.00  0.00    +0.000 A 
ATOM      8  N   UNL     1      -2.083  12.088  19.686  0.00  0.00    +0.000 NA
ATOM      9  H   UNL     1      -3.283  12.420  17.720  0.00  0.00    +0.000 HD
ENDROOT
BRANCH   7  10
ATOM     10  C   UNL     1      -1.827  12.469  22.024  0.00  0.00    +0.000 A 
ATOM     11  C   UNL     1      -2.983  12.150  22.763  0.00  0.00    +0.000 A 
ATOM     12  C   UNL     1      -3.379  12.910  23.864  0.00  0.00    +0.000 A 
ATOM     13  F   UNL     1      -4.518  12.597  24.495  0.00  0.00    +0.000 F 
ATOM     14  C   UNL     1      -2.617  13.972  24.311  0.00  0.00    +0.000 A 
ATOM     15  C   UNL     1      -1.444  14.265  23.638  0.00  0.00    +0.000 A 
ATOM     16  F   UNL     1      -0.672  15.268  24.076  0.00  0.00    +0.000 F 
ATOM     17  C   UNL     1      -1.051  13.540  22.511  0.00  0.00    +0.000 A 
ENDBRANCH   7  10
BRANCH   5  18
ATOM     18  C   UNL     1       0.935   9.180  19.250  0.00  0.00    +0.000 A 
ATOM     19  C   UNL     1       1.215   8.165  20.185  0.00  0.00    +0.000 A 
ATOM     20  C   UNL     1       2.155   7.160  19.925  0.00  0.00    +0.000 A 
ATOM     21  C   UNL     1       2.833   7.135  18.712  0.00  0.00    +0.000 A 
ATOM     22  C   UNL     1       2.608   8.144  17.784  0.00  0.00    +0.000 A 
ATOM     23  C   UNL     1       1.700   9.168  18.067  0.00  0.00    +0.000 A 
ENDBRANCH   5  18
BRANCH   6  24
ATOM     24  C   UNL     1       0.249  10.320  21.946  0.00  0.00    +0.000 C 
ATOM     25  N   UNL     1       0.811   9.999  22.912  0.00  0.00    +0.000 NA
ENDBRANCH   6  24
TORSDOF 3
ENDMDL
MODEL 4
REMARK VINA RESULT:      -7.2      3.011      4.734
REMARK  Name = 
REMARK  4 active torsions:
REMARK  status: ('A' for Active; 'I' for Inactive)
REMARK    1  A    between atoms: C_1  and  N_2
REMARK    2  A    between atoms: C_5  and  C_6
REMARK    3  A    between atoms: C_12  and  C_13
REMARK    4  A    between atoms: C_15  and  C_16
REMARK                            x       y       z     vdW  Elec       q    Type
REMARK                         _______ _______ _______ _____ _____    ______ ____
ROOT
ATOM      1  C   UNL     1       1.167   2.964  21.744  0.00  0.00    +0.000 C 
ATOM      2  N   UNL     1       2.441   3.032  21.069  0.00  0.00    +0.000 N 
ATOM      3  C   UNL     1       2.655   4.137  20.266  0.00  0.00    +0.000 A 
ATOM      4  N   UNL     1       2.029   5.290  20.513  0.00  0.00    +0.000 NA
ATOM      5  C   UNL     1       2.298   6.363  19.727  0.00  0.00    +0.000 A 
ATOM      6  C   UNL     1       3.212   6.277  18.686  0.00  0.00    +0.000 A 
ATOM      7  C   UNL     1       3.839   5.045  18.499  0.00  0.00    +0.000 A 
ATOM      8  N   UNL     1       3.536   3.976  19.276  0.00  0.00    +0.000 NA
ATOM      9  H   UNL     1       2.722   2.207  20.551  0.00  0.00    +0.000 HD
ENDROOT
BRANCH   7  10
ATOM     10  C   UNL     1       4.880   4.757  17.471  0.00  0.00    +0.000 A 
ATOM     11  C   UNL     1       6.244   4.591  17.785  0.00  0.00    +0.000 A 
ATOM     12  C   UNL     1       7.202   4.385  16.792  0.00  0.00    +0.000 A 
ATOM     13  F   UNL     1       8.491   4.291  17.142  0.00  0.00    +0.000 F 
ATOM     14  C   UNL     1       6.843   4.274  15.463  0.00  0.00    +0.000 A 
ATOM     15  C   UNL     1       5.501   4.371  15.137  0.00  0.00    +0.000 A 
ATOM     16  F   UNL     1       5.126   4.232  13.859  0.00  0.00    +0.000 F 
ATOM     17  C   UNL     1       4.531   4.616  16.113  0.00  0.00    +0.000 A 
ENDBRANCH   7  10
BRANCH   5  18
ATOM     18  C   UNL     1       1.595   7.611  20.155  0.00  0.00    +0.000 A 
ATOM     19  C   UNL     1       1.271   7.812  21.510  0.00  0.00    +0.000 A 
ATOM     20  C   UNL     1       0.695   9.006  21.963  0.00  0.00    +0.000 A 
ATOM     21  C   UNL     1       0.441  10.040  21.070  0.00  0.00    +0.000 A 
ATOM     22  C   UNL     1       0.714   9.859  19.721  0.00  0.00    +0.000 A 
ATOM     23  C   UNL     1       1.248   8.650  19.269  0.00  0.00    +0.000 A 
ENDBRANCH   5  18
BRANCH   6  24
ATOM     24  C   UNL     1       3.505   7.384  17.843  0.00  0.00    +0.000 C 
ATOM     25  N   UNL     1       3.761   8.283  17.152  0.00  0.00    +0.000 NA
ENDBRANCH   6  24
TORSDOF 3
ENDMDL
MODEL 5
REMARK VINA RESULT:      -7.2      0.098      1.671
REMARK  Name = 
REMARK  4 active torsions:
REMARK  status: ('A' for Active; 'I' for Inactive)
REMARK    1  A    between atoms: C_1  and  N_2
REMARK    2  A    between atoms: C_5  and  C_6
REMARK    3  A    between atoms: C_12  and  C_13
REMARK    4  A    between atoms: C_15  and  C_16
REMARK                            x       y       z     vdW  Elec       q    Type
REMARK                         _______ _______ _______ _____ _____    ______ ____
ROOT
ATOM      1  C   UNL     1       8.462   5.260  20.733  0.00  0.00    +0.000 C 
ATOM      2  N   UNL     1       8.319   5.593  19.336  0.00  0.00    +0.000 N 
ATOM      3  C   UNL     1       7.203   5.089  18.694  0.00  0.00    +0.000 A 
ATOM      4  N   UNL     1       6.089   4.815  19.377  0.00  0.00    +0.000 NA
ATOM      5  C   UNL     1       5.003   4.361  18.702  0.00  0.00    +0.000 A 
ATOM      6  C   UNL     1       5.034   4.187  17.325  0.00  0.00    +0.000 A 
ATOM      7  C   UNL     1       6.227   4.510  16.678  0.00  0.00    +0.000 A 
ATOM      8  N   UNL     1       7.312   4.935  17.372  0.00  0.00    +0.000 NA
ATOM      9  H   UNL     1       9.126   5.423  18.747  0.00  0.00    +0.000 HD
ENDROOT
BRANCH   7  10
ATOM     10  C   UNL     1       6.453   4.438  15.206  0.00  0.00    +0.000 A 
ATOM     11  C   UNL     1       7.440   5.194  14.543  0.00  0.00    +0.000 A 
ATOM     12  C   UNL     1       7.584   5.151  13.156  0.00  0.00    +0.000 A 
ATOM     13  F   UNL     1       8.500   5.933  12.572  0.00  0.00    +0.000 F 
ATOM     14  C   UNL     1       6.802   4.316  12.381  0.00  0.00    +0.000 A 
ATOM     15  C   UNL     1       5.868   3.517  13.017  0.00  0.00    +0.000 A 
ATOM     16  F   UNL     1       5.123   2.675  12.290  0.00  0.00    +0.000 F 
ATOM     17  C   UNL     1       5.683   3.575  14.401  0.00  0.00    +0.000 A 
ENDBRANCH   7  10
BRANCH   5  18
ATOM     18  C   UNL     1       3.799   4.168  19.567  0.00  0.00    +0.000 A 
ATOM     19  C   UNL     1       2.931   5.247  19.825  0.00  0.00    +0.000 A 
ATOM     20  C   UNL     1       1.746   5.085  20.553  0.00  0.00    +0.000 A 
ATOM     21  C   UNL     1       1.388   3.830  21.033  0.00  0.00    +0.000 A 
ATOM     22  C   UNL     1       2.240   2.753  20.828  0.00  0.00    +0.000 A 
ATOM     23  C   UNL     1       3.443   2.930  20.138  0.00  0.00    +0.000 A 
ENDBRANCH   5  18
BRANCH   6  24
ATOM     24  C   UNL     1       3.913   3.705  16.598  0.00  0.00    +0.000 C 
ATOM     25  N   UNL     1       2.999   3.322  15.990  0.00  0.00    +0.000 NA
ENDBRANCH   6  24
TORSDOF 3
ENDMDL
MODEL 6
REMARK VINA RESULT:      -7.2      8.872     11.977
REMARK  Name = 
REMARK  4 active torsions:
REMARK  status: ('A' for Active; 'I' for Inactive)
REMARK    1  A    between atoms: C_1  and  N_2
REMARK    2  A    between atoms: C_5  and  C_6
REMARK    3  A    between atoms: C_12  and  C_13
REMARK    4  A    between atoms: C_15  and  C_16
REMARK                            x       y       z     vdW  Elec       q    Type
REMARK                         _______ _______ _______ _____ _____    ______ ____
ROOT
ATOM      1  C   UNL     1      -2.458  11.019  16.256  0.00  0.00    +0.000 C 
ATOM      2  N   UNL     1      -2.349  11.942  17.361  0.00  0.00    +0.000 N 
ATOM      3  C   UNL     1      -1.681  11.484  18.482  0.00  0.00    +0.000 A 
ATOM      4  N   UNL     1      -0.746  10.537  18.378  0.00  0.00    +0.000 NA
ATOM      5  C   UNL     1      -0.083  10.146  19.496  0.00  0.00    +0.000 A 
ATOM      6  C   UNL     1      -0.360  10.717  20.731  0.00  0.00    +0.000 A 
ATOM      7  C   UNL     1      -1.338  11.712  20.758  0.00  0.00    +0.000 A 
ATOM      8  N   UNL     1      -2.009  12.071  19.635  0.00  0.00    +0.000 NA
ATOM      9  H   UNL     1      -3.209  12.384  17.666  0.00  0.00    +0.000 HD
ENDROOT
BRANCH   7  10
ATOM     10  C   UNL     1      -1.749  12.480  21.968  0.00  0.00    +0.000 A 
ATOM     11  C   UNL     1      -1.074  13.635  22.410  0.00  0.00    +0.000 A 
ATOM     12  C   UNL     1      -1.446  14.295  23.582  0.00  0.00    +0.000 A 
ATOM     13  F   UNL     1      -0.733  15.354  23.987  0.00  0.00    +0.000 F 
ATOM     14  C   UNL     1      -2.533  13.876  24.324  0.00  0.00    +0.000 A 
ATOM     15  C   UNL     1      -3.250  12.781  23.875  0.00  0.00    +0.000 A 
ATOM     16  F   UNL     1      -4.328  12.379  24.560  0.00  0.00    +0.000 F 
ATOM     17  C   UNL     1      -2.870  12.084  22.725  0.00  0.00    +0.000 A 
ENDBRANCH   7  10
BRANCH   5  18
ATOM     18  C   UNL     1       0.990   9.139  19.235  0.00  0.00    +0.000 A 
ATOM     19  C   UNL     1       1.218   8.093  20.150  0.00  0.00    +0.000 A 
ATOM     20  C   UNL     1       2.152   7.080  19.897  0.00  0.00    +0.000 A 
ATOM     21  C   UNL     1       2.875   7.079  18.710  0.00  0.00    +0.000 A 
ATOM     22  C   UNL     1       2.702   8.116  17.804  0.00  0.00    +0.000 A 
ATOM     23  C   UNL     1       1.800   9.148  18.082  0.00  0.00    +0.000 A 
ENDBRANCH   5  18
BRANCH   6  24
ATOM     24  C   UNL     1       0.313  10.319  21.917  0.00  0.00    +0.000 C 
ATOM     25  N   UNL     1       0.874  10.007  22.886  0.00  0.00    +0.000 NA
ENDBRANCH   6  24
TORSDOF 3
ENDMDL
MODEL 7
REMARK VINA RESULT:      -7.2      5.175      8.110
REMARK  Name = 
REMARK  4 active torsions:
REMARK  status: ('A' for Active; 'I' for Inactive)
REMARK    1  A    between atoms: C_1  and  N_2
REMARK    2  A    between atoms: C_5  and  C_6
REMARK    3  A    between atoms: C_12  and  C_13
REMARK    4  A    between atoms: C_15  and  C_16
REMARK                            x       y       z     vdW  Elec       q    Type
REMARK                         _______ _______ _______ _____ _____    ______ ____
ROOT
ATOM      1  C   UNL     1       2.867   2.746  21.401  0.00  0.00    +0.000 C 
ATOM      2  N   UNL     1       1.876   3.795  21.410  0.00  0.00    +0.000 N 
ATOM      3  C   UNL     1       2.129   4.888  20.601  0.00  0.00    +0.000 A 
ATOM      4  N   UNL     1       2.885   4.766  19.507  0.00  0.00    +0.000 NA
ATOM      5  C   UNL     1       3.074   5.854  18.718  0.00  0.00    +0.000 A 
ATOM      6  C   UNL     1       2.492   7.075  19.028  0.00  0.00    +0.000 A 
ATOM      7  C   UNL     1       1.702   7.122  20.177  0.00  0.00    +0.000 A 
ATOM      8  N   UNL     1       1.547   6.032  20.970  0.00  0.00    +0.000 NA
ATOM      9  H   UNL     1       1.588   4.136  22.320  0.00  0.00    +0.000 HD
ENDROOT
BRANCH   7  10
ATOM     10  C   UNL     1       0.955   8.319  20.659  0.00  0.00    +0.000 A 
ATOM     11  C   UNL     1       0.373   9.262  19.789  0.00  0.00    +0.000 A 
ATOM     12  C   UNL     1      -0.265  10.405  20.272  0.00  0.00    +0.000 A 
ATOM     13  F   UNL     1      -0.751  11.297  19.399  0.00  0.00    +0.000 F 
ATOM     14  C   UNL     1      -0.407  10.626  21.628  0.00  0.00    +0.000 A 
ATOM     15  C   UNL     1       0.103   9.682  22.502  0.00  0.00    +0.000 A 
ATOM     16  F   UNL     1      -0.053   9.859  23.820  0.00  0.00    +0.000 F 
ATOM     17  C   UNL     1       0.779   8.551  22.038  0.00  0.00    +0.000 A 
ENDBRANCH   7  10
BRANCH   5  18
ATOM     18  C   UNL     1       3.871   5.568  17.486  0.00  0.00    +0.000 A 
ATOM     19  C   UNL     1       4.569   6.605  16.838  0.00  0.00    +0.000 A 
ATOM     20  C   UNL     1       5.399   6.362  15.736  0.00  0.00    +0.000 A 
ATOM     21  C   UNL     1       5.564   5.067  15.260  0.00  0.00    +0.000 A 
ATOM     22  C   UNL     1       4.860   4.027  15.852  0.00  0.00    +0.000 A 
ATOM     23  C   UNL     1       4.000   4.283  16.924  0.00  0.00    +0.000 A 
ENDBRANCH   5  18
BRANCH   6  24
ATOM     24  C   UNL     1       2.682   8.230  18.222  0.00  0.00    +0.000 C 
ATOM     25  N   UNL     1       2.849   9.166  17.553  0.00  0.00    +0.000 NA
ENDBRANCH   6  24
TORSDOF 3
ENDMDL
MODEL 8
REMARK VINA RESULT:      -7.2      3.023      4.756
REMARK  Name = 
REMARK  4 active torsions:
REMARK  status: ('A' for Active; 'I' for Inactive)
REMARK    1  A    between atoms: C_1  and  N_2
REMARK    2  A    between atoms: C_5  and  C_6
REMARK    3  A    between atoms: C_12  and  C_13
REMARK    4  A    between atoms: C_15  and  C_16
REMARK                            x       y       z     vdW  Elec       q    Type
REMARK                         _______ _______ _______ _____ _____    ______ ____
ROOT
ATOM      1  C   UNL     1       1.192   2.881  21.946  0.00  0.00    +0.000 C 
ATOM      2  N   UNL     1       2.471   2.995  21.287  0.00  0.00    +0.000 N 
ATOM      3  C   UNL     1       2.651   4.103  20.480  0.00  0.00    +0.000 A 
ATOM      4  N   UNL     1       1.977   5.233  20.713  0.00  0.00    +0.000 NA
ATOM      5  C   UNL     1       2.215   6.311  19.925  0.00  0.00    +0.000 A 
ATOM      6  C   UNL     1       3.144   6.256  18.894  0.00  0.00    +0.000 A 
ATOM      7  C   UNL     1       3.820   5.048  18.722  0.00  0.00    +0.000 A 
ATOM      8  N   UNL     1       3.550   3.972  19.502  0.00  0.00    +0.000 NA
ATOM      9  H   UNL     1       2.789   2.179  20.777  0.00  0.00    +0.000 HD
ENDROOT
BRANCH   7  10
ATOM     10  C   UNL     1       4.884   4.796  17.708  0.00  0.00    +0.000 A 
ATOM     11  C   UNL     1       6.242   4.625  18.046  0.00  0.00    +0.000 A 
ATOM     12  C   UNL     1       7.222   4.453  17.068  0.00  0.00    +0.000 A 
ATOM     13  F   UNL     1       8.504   4.354  17.442  0.00  0.00    +0.000 F 
ATOM     14  C   UNL     1       6.891   4.381  15.729  0.00  0.00    +0.000 A 
ATOM     15  C   UNL     1       5.556   4.483  15.378  0.00  0.00    +0.000 A 
ATOM     16  F   UNL     1       5.209   4.381  14.088  0.00  0.00    +0.000 F 
ATOM     17  C   UNL     1       4.565   4.695  16.339  0.00  0.00    +0.000 A 
ENDBRANCH   7  10
BRANCH   5  18
ATOM     18  C   UNL     1       1.459   7.533  20.337  0.00  0.00    +0.000 A 
ATOM     19  C   UNL     1       1.391   8.647  19.479  0.00  0.00    +0.000 A 
ATOM     20  C   UNL     1       0.618   9.773  19.788  0.00  0.00    +0.000 A 
ATOM     21  C   UNL     1      -0.123   9.809  20.964  0.00  0.00    +0.000 A 
ATOM     22  C   UNL     1      -0.048   8.742  21.850  0.00  0.00    +0.000 A 
ATOM     23  C   UNL     1       0.759   7.640  21.555  0.00  0.00    +0.000 A 
ENDBRANCH   5  18
BRANCH   6  24
ATOM     24  C   UNL     1       3.403   7.368  18.049  0.00  0.00    +0.000 C 
ATOM     25  N   UNL     1       3.612   8.290  17.371  0.00  0.00    +0.000 NA
ENDBRANCH   6  24
TORSDOF 3
ENDMDL
MODEL 9
REMARK VINA RESULT:      -7.1      5.163      8.100
REMARK  Name = 
REMARK  4 active torsions:
REMARK  status: ('A' for Active; 'I' for Inactive)
REMARK    1  A    between atoms: C_1  and  N_2
REMARK    2  A    between atoms: C_5  and  C_6
REMARK    3  A    between atoms: C_12  and  C_13
REMARK    4  A    between atoms: C_15  and  C_16
REMARK                            x       y       z     vdW  Elec       q    Type
REMARK                         _______ _______ _______ _____ _____    ______ ____
ROOT
ATOM      1  C   UNL     1       2.915   2.767  21.410  0.00  0.00    +0.000 C 
ATOM      2  N   UNL     1       1.918   3.810  21.418  0.00  0.00    +0.000 N 
ATOM      3  C   UNL     1       2.162   4.900  20.603  0.00  0.00    +0.000 A 
ATOM      4  N   UNL     1       2.914   4.777  19.506  0.00  0.00    +0.000 NA
ATOM      5  C   UNL     1       3.094   5.861  18.710  0.00  0.00    +0.000 A 
ATOM      6  C   UNL     1       2.507   7.081  19.017  0.00  0.00    +0.000 A 
ATOM      7  C   UNL     1       1.722   7.129  20.169  0.00  0.00    +0.000 A 
ATOM      8  N   UNL     1       1.576   6.043  20.968  0.00  0.00    +0.000 NA
ATOM      9  H   UNL     1       1.632   4.155  22.327  0.00  0.00    +0.000 HD
ENDROOT
BRANCH   7  10
ATOM     10  C   UNL     1       0.970   8.325  20.648  0.00  0.00    +0.000 A 
ATOM     11  C   UNL     1       0.847   8.659  22.011  0.00  0.00    +0.000 A 
ATOM     12  C   UNL     1       0.084   9.750  22.430  0.00  0.00    +0.000 A 
ATOM     13  F   UNL     1      -0.046   9.988  23.741  0.00  0.00    +0.000 F 
ATOM     14  C   UNL     1      -0.531  10.585  21.518  0.00  0.00    +0.000 A 
ATOM     15  C   UNL     1      -0.373  10.312  20.170  0.00  0.00    +0.000 A 
ATOM     16  F   UNL     1      -0.932  11.128  19.267  0.00  0.00    +0.000 F 
ATOM     17  C   UNL     1       0.355   9.202  19.732  0.00  0.00    +0.000 A 
ENDBRANCH   7  10
BRANCH   5  18
ATOM     18  C   UNL     1       3.887   5.574  17.477  0.00  0.00    +0.000 A 
ATOM     19  C   UNL     1       4.581   6.610  16.823  0.00  0.00    +0.000 A 
ATOM     20  C   UNL     1       5.407   6.366  15.719  0.00  0.00    +0.000 A 
ATOM     21  C   UNL     1       5.574   5.069  15.247  0.00  0.00    +0.000 A 
ATOM     22  C   UNL     1       4.875   4.030  15.845  0.00  0.00    +0.000 A 
ATOM     23  C   UNL     1       4.018   4.287  16.919  0.00  0.00    +0.000 A 
ENDBRANCH   5  18
BRANCH   6  24
ATOM     24  C   UNL     1       2.688   8.233  18.205  0.00  0.00    +0.000 C 
ATOM     25  N   UNL     1       2.853   9.174  17.541  0.00  0.00    +0.000 NA
ENDBRANCH   6  24
TORSDOF 3
ENDMDL
