MODEL 1
REMARK VINA RESULT:      -8.9      0.000      0.000
REMARK  Name = 
REMARK  4 active torsions:
REMARK  status: ('A' for Active; 'I' for Inactive)
REMARK    1  A    between atoms: C_1  and  C_2
REMARK    2  A    between atoms: C_8  and  N_9
REMARK    3  A    between atoms: N_12  and  C_13
REMARK    4  A    between atoms: C_16  and  C_17
REMARK                            x       y       z     vdW  Elec       q    Type
REMARK                         _______ _______ _______ _____ _____    ______ ____
ROOT
ATOM      1  N   UNL     1       6.729   7.936  17.077  0.00  0.00    +0.000 N 
ATOM      2  C   UNL     1       7.853   8.152  17.857  0.00  0.00    +0.000 C 
ATOM      3  O   UNL     1       8.431   7.300  18.523  0.00  0.00    +0.000 OA
ATOM      4  N   UNL     1       8.268   9.467  17.819  0.00  0.00    +0.000 N 
ATOM      5  H   UNL     1       6.110   8.725  17.021  0.00  0.00    +0.000 HD
ATOM      6  H   UNL     1       7.695  10.143  17.339  0.00  0.00    +0.000 HD
ENDROOT
BRANCH   1  14
ATOM      7  C   UNL     1       2.433   3.420  17.807  0.00  0.00    +0.000 C 
ATOM      8  C   UNL     1       3.002   4.812  17.736  0.00  0.00    +0.000 A 
ATOM      9  N   UNL     1       2.177   5.785  18.196  0.00  0.00    +0.000 NA
ATOM     10  C   UNL     1       2.638   7.035  18.213  0.00  0.00    +0.000 A 
ATOM     11  N   UNL     1       1.768   8.010  18.698  0.00  0.00    +0.000 N 
ATOM     12  C   UNL     1       3.918   7.377  17.810  0.00  0.00    +0.000 A 
ATOM     13  C   UNL     1       4.799   6.391  17.320  0.00  0.00    +0.000 A 
ATOM     14  C   UNL     1       6.150   6.643  16.938  0.00  0.00    +0.000 A 
ATOM     15  C   UNL     1       6.937   5.608  16.414  0.00  0.00    +0.000 A 
ATOM     16  C   UNL     1       6.438   4.316  16.316  0.00  0.00    +0.000 A 
ATOM     17  C   UNL     1       5.151   4.040  16.761  0.00  0.00    +0.000 A 
ATOM     18  C   UNL     1       4.311   5.059  17.262  0.00  0.00    +0.000 A 
ATOM     19  H   UNL     1       0.893   7.529  18.900  0.00  0.00    +0.000 HD
ATOM     20  H   UNL     1       1.632   8.751  18.021  0.00  0.00    +0.000 HD
ENDBRANCH   1  14
BRANCH   4  21
ATOM     21  C   UNL     1       9.331   9.945  18.686  0.00  0.00    +0.000 C 
ATOM     22  C   UNL     1       8.792  10.604  19.954  0.00  0.00    +0.000 C 
ATOM     23  C   UNL     1       9.927  11.496  20.455  0.00  0.00    +0.000 C 
ATOM     24  C   UNL     1      10.895  11.675  19.269  0.00  0.00    +0.000 C 
ATOM     25  C   UNL     1      10.173  11.056  18.062  0.00  0.00    +0.000 C 
BRANCH  24  26
ATOM     26  C   UNL     1      11.352  13.106  19.082  0.00  0.00    +0.000 A 
ATOM     27  C   UNL     1      11.820  13.532  17.826  0.00  0.00    +0.000 A 
ATOM     28  C   UNL     1      12.307  14.829  17.646  0.00  0.00    +0.000 A 
ATOM     29  C   UNL     1      12.332  15.721  18.716  0.00  0.00    +0.000 A 
ATOM     30  C   UNL     1      11.860  15.317  19.964  0.00  0.00    +0.000 A 
ATOM     31  C   UNL     1      11.374  14.021  20.143  0.00  0.00    +0.000 A 
ENDBRANCH  24  26
ENDBRANCH   4  21
TORSDOF 3
ENDMDL
MODEL 2
REMARK VINA RESULT:      -8.9      5.368      9.170
REMARK  Name = 
REMARK  4 active torsions:
REMARK  status: ('A' for Active; 'I' for Inactive)
REMARK    1  A    between atoms: C_1  and  C_2
REMARK    2  A    between atoms: C_8  and  N_9
REMARK    3  A    between atoms: N_12  and  C_13
REMARK    4  A    between atoms: C_16  and  C_17
REMARK                            x       y       z     vdW  Elec       q    Type
REMARK                         _______ _______ _______ _____ _____    ______ ____
ROOT
ATOM      1  N   UNL     1       2.936   6.409  19.362  0.00  0.00    +0.000 N 
ATOM      2  C   UNL     1       2.191   7.512  18.976  0.00  0.00    +0.000 C 
ATOM      3  O   UNL     1       1.876   7.788  17.824  0.00  0.00    +0.000 OA
ATOM      4  N   UNL     1       1.836   8.301  20.050  0.00  0.00    +0.000 N 
ATOM      5  H   UNL     1       3.515   6.565  20.168  0.00  0.00    +0.000 HD
ATOM      6  H   UNL     1       2.210   8.080  20.959  0.00  0.00    +0.000 HD
ENDROOT
BRANCH   1  14
ATOM      7  C   UNL     1       6.467   4.008  14.763  0.00  0.00    +0.000 C 
ATOM      8  C   UNL     1       6.085   4.901  15.913  0.00  0.00    +0.000 A 
ATOM      9  N   UNL     1       6.912   5.958  16.108  0.00  0.00    +0.000 NA
ATOM     10  C   UNL     1       6.602   6.820  17.076  0.00  0.00    +0.000 A 
ATOM     11  N   UNL     1       7.469   7.899  17.245  0.00  0.00    +0.000 N 
ATOM     12  C   UNL     1       5.471   6.700  17.865  0.00  0.00    +0.000 A 
ATOM     13  C   UNL     1       4.594   5.609  17.693  0.00  0.00    +0.000 A 
ATOM     14  C   UNL     1       3.379   5.436  18.421  0.00  0.00    +0.000 A 
ATOM     15  C   UNL     1       2.595   4.293  18.218  0.00  0.00    +0.000 A 
ATOM     16  C   UNL     1       2.952   3.345  17.268  0.00  0.00    +0.000 A 
ATOM     17  C   UNL     1       4.090   3.543  16.495  0.00  0.00    +0.000 A 
ATOM     18  C   UNL     1       4.929   4.662  16.690  0.00  0.00    +0.000 A 
ATOM     19  H   UNL     1       8.228   7.756  16.581  0.00  0.00    +0.000 HD
ATOM     20  H   UNL     1       7.816   7.946  18.195  0.00  0.00    +0.000 HD
ENDBRANCH   1  14
BRANCH   4  21
ATOM     21  C   UNL     1       1.189   9.587  19.855  0.00  0.00    +0.000 C 
ATOM     22  C   UNL     1       0.170   9.895  20.951  0.00  0.00    +0.000 C 
ATOM     23  C   UNL     1      -0.766  10.940  20.345  0.00  0.00    +0.000 C 
ATOM     24  C   UNL     1      -0.550  10.884  18.820  0.00  0.00    +0.000 C 
ATOM     25  C   UNL     1       0.346   9.658  18.583  0.00  0.00    +0.000 C 
BRANCH  24  26
ATOM     26  C   UNL     1      -1.843  10.898  18.033  0.00  0.00    +0.000 A 
ATOM     27  C   UNL     1      -2.923  11.684  18.475  0.00  0.00    +0.000 A 
ATOM     28  C   UNL     1      -4.147  11.662  17.802  0.00  0.00    +0.000 A 
ATOM     29  C   UNL     1      -4.311  10.858  16.676  0.00  0.00    +0.000 A 
ATOM     30  C   UNL     1      -3.247  10.084  16.219  0.00  0.00    +0.000 A 
ATOM     31  C   UNL     1      -2.024  10.105  16.892  0.00  0.00    +0.000 A 
ENDBRANCH  24  26
ENDBRANCH   4  21
TORSDOF 3
ENDMDL
MODEL 3
REMARK VINA RESULT:      -8.8      5.415      9.288
REMARK  Name = 
REMARK  4 active torsions:
REMARK  status: ('A' for Active; 'I' for Inactive)
REMARK    1  A    between atoms: C_1  and  C_2
REMARK    2  A    between atoms: C_8  and  N_9
REMARK    3  A    between atoms: N_12  and  C_13
REMARK    4  A    between atoms: C_16  and  C_17
REMARK                            x       y       z     vdW  Elec       q    Type
REMARK                         _______ _______ _______ _____ _____    ______ ____
ROOT
ATOM      1  N   UNL     1       2.557   6.967  19.147  0.00  0.00    +0.000 N 
ATOM      2  C   UNL     1       1.936   8.072  18.587  0.00  0.00    +0.000 C 
ATOM      3  O   UNL     1       1.737   8.244  17.390  0.00  0.00    +0.000 OA
ATOM      4  N   UNL     1       1.559   8.995  19.540  0.00  0.00    +0.000 N 
ATOM      5  H   UNL     1       3.081   7.169  19.981  0.00  0.00    +0.000 HD
ATOM      6  H   UNL     1       1.841   8.848  20.496  0.00  0.00    +0.000 HD
ENDROOT
BRANCH   1  14
ATOM      7  C   UNL     1       6.206   3.862  15.094  0.00  0.00    +0.000 C 
ATOM      8  C   UNL     1       5.812   4.902  16.109  0.00  0.00    +0.000 A 
ATOM      9  N   UNL     1       6.689   5.928  16.240  0.00  0.00    +0.000 NA
ATOM     10  C   UNL     1       6.375   6.911  17.082  0.00  0.00    +0.000 A 
ATOM     11  N   UNL     1       7.295   7.953  17.189  0.00  0.00    +0.000 N 
ATOM     12  C   UNL     1       5.193   6.945  17.801  0.00  0.00    +0.000 A 
ATOM     13  C   UNL     1       4.261   5.891  17.694  0.00  0.00    +0.000 A 
ATOM     14  C   UNL     1       2.996   5.870  18.353  0.00  0.00    +0.000 A 
ATOM     15  C   UNL     1       2.156   4.756  18.226  0.00  0.00    +0.000 A 
ATOM     16  C   UNL     1       2.511   3.687  17.413  0.00  0.00    +0.000 A 
ATOM     17  C   UNL     1       3.704   3.731  16.702  0.00  0.00    +0.000 A 
ATOM     18  C   UNL     1       4.597   4.818  16.827  0.00  0.00    +0.000 A 
ATOM     19  H   UNL     1       8.082   7.693  16.597  0.00  0.00    +0.000 HD
ATOM     20  H   UNL     1       7.585   8.091  18.148  0.00  0.00    +0.000 HD
ENDBRANCH   1  14
BRANCH   4  21
ATOM     21  C   UNL     1       1.034  10.295  19.159  0.00  0.00    +0.000 C 
ATOM     22  C   UNL     1       0.988  11.268  20.335  0.00  0.00    +0.000 C 
ATOM     23  C   UNL     1      -0.040  12.327  19.938  0.00  0.00    +0.000 C 
ATOM     24  C   UNL     1      -0.863  11.723  18.783  0.00  0.00    +0.000 C 
ATOM     25  C   UNL     1      -0.422  10.253  18.699  0.00  0.00    +0.000 C 
BRANCH  24  26
ATOM     26  C   UNL     1      -2.353  11.940  18.935  0.00  0.00    +0.000 A 
ATOM     27  C   UNL     1      -2.853  12.586  20.080  0.00  0.00    +0.000 A 
ATOM     28  C   UNL     1      -4.228  12.740  20.273  0.00  0.00    +0.000 A 
ATOM     29  C   UNL     1      -5.125  12.254  19.324  0.00  0.00    +0.000 A 
ATOM     30  C   UNL     1      -4.645  11.623  18.177  0.00  0.00    +0.000 A 
ATOM     31  C   UNL     1      -3.271  11.470  17.986  0.00  0.00    +0.000 A 
ENDBRANCH  24  26
ENDBRANCH   4  21
TORSDOF 3
ENDMDL
MODEL 4
REMARK VINA RESULT:      -8.7      0.700      1.118
REMARK  Name = 
REMARK  4 active torsions:
REMARK  status: ('A' for Active; 'I' for Inactive)
REMARK    1  A    between atoms: C_1  and  C_2
REMARK    2  A    between atoms: C_8  and  N_9
REMARK    3  A    between atoms: N_12  and  C_13
REMARK    4  A    between atoms: C_16  and  C_17
REMARK                            x       y       z     vdW  Elec       q    Type
REMARK                         _______ _______ _______ _____ _____    ______ ____
ROOT
ATOM      1  N   UNL     1       6.393   7.761  17.078  0.00  0.00    +0.000 N 
ATOM      2  C   UNL     1       7.600   7.963  17.726  0.00  0.00    +0.000 C 
ATOM      3  O   UNL     1       8.298   7.084  18.219  0.00  0.00    +0.000 OA
ATOM      4  N   UNL     1       7.949   9.297  17.772  0.00  0.00    +0.000 N 
ATOM      5  H   UNL     1       5.738   8.515  17.184  0.00  0.00    +0.000 HD
ATOM      6  H   UNL     1       7.289   9.982  17.442  0.00  0.00    +0.000 HD
ENDROOT
BRANCH   1  14
ATOM      7  C   UNL     1       2.731   2.789  18.198  0.00  0.00    +0.000 C 
ATOM      8  C   UNL     1       3.188   4.223  18.220  0.00  0.00    +0.000 A 
ATOM      9  N   UNL     1       2.503   5.024  19.073  0.00  0.00    +0.000 NA
ATOM     10  C   UNL     1       2.891   6.294  19.182  0.00  0.00    +0.000 A 
ATOM     11  N   UNL     1       2.170   7.088  20.072  0.00  0.00    +0.000 N 
ATOM     12  C   UNL     1       3.969   6.819  18.491  0.00  0.00    +0.000 A 
ATOM     13  C   UNL     1       4.700   6.016  17.590  0.00  0.00    +0.000 A 
ATOM     14  C   UNL     1       5.856   6.457  16.881  0.00  0.00    +0.000 A 
ATOM     15  C   UNL     1       6.489   5.602  15.968  0.00  0.00    +0.000 A 
ATOM     16  C   UNL     1       6.042   4.300  15.785  0.00  0.00    +0.000 A 
ATOM     17  C   UNL     1       4.966   3.832  16.531  0.00  0.00    +0.000 A 
ATOM     18  C   UNL     1       4.277   4.669  17.435  0.00  0.00    +0.000 A 
ATOM     19  H   UNL     1       1.421   6.497  20.431  0.00  0.00    +0.000 HD
ATOM     20  H   UNL     1       1.801   7.912  19.614  0.00  0.00    +0.000 HD
ENDBRANCH   1  14
BRANCH   4  21
ATOM     21  C   UNL     1       9.097   9.747  18.540  0.00  0.00    +0.000 C 
ATOM     22  C   UNL     1       8.689  10.428  19.846  0.00  0.00    +0.000 C 
ATOM     23  C   UNL     1       9.889  11.288  20.240  0.00  0.00    +0.000 C 
ATOM     24  C   UNL     1      10.755  11.432  18.974  0.00  0.00    +0.000 C 
ATOM     25  C   UNL     1       9.914  10.829  17.838  0.00  0.00    +0.000 C 
BRANCH  24  26
ATOM     26  C   UNL     1      11.236  12.848  18.737  0.00  0.00    +0.000 A 
ATOM     27  C   UNL     1      11.773  13.592  19.803  0.00  0.00    +0.000 A 
ATOM     28  C   UNL     1      12.163  14.921  19.624  0.00  0.00    +0.000 A 
ATOM     29  C   UNL     1      12.025  15.528  18.377  0.00  0.00    +0.000 A 
ATOM     30  C   UNL     1      11.508  14.799  17.308  0.00  0.00    +0.000 A 
ATOM     31  C   UNL     1      11.118  13.471  17.488  0.00  0.00    +0.000 A 
ENDBRANCH  24  26
ENDBRANCH   4  21
TORSDOF 3
ENDMDL
MODEL 5
REMARK VINA RESULT:      -8.5      6.634      9.446
REMARK  Name = 
REMARK  4 active torsions:
REMARK  status: ('A' for Active; 'I' for Inactive)
REMARK    1  A    between atoms: C_1  and  C_2
REMARK    2  A    between atoms: C_8  and  N_9
REMARK    3  A    between atoms: N_12  and  C_13
REMARK    4  A    between atoms: C_16  and  C_17
REMARK                            x       y       z     vdW  Elec       q    Type
REMARK                         _______ _______ _______ _____ _____    ______ ____
ROOT
ATOM      1  N   UNL     1       2.556   7.427  19.308  0.00  0.00    +0.000 N 
ATOM      2  C   UNL     1       1.839   8.437  18.686  0.00  0.00    +0.000 C 
ATOM      3  O   UNL     1       1.648   8.534  17.479  0.00  0.00    +0.000 OA
ATOM      4  N   UNL     1       1.353   9.361  19.588  0.00  0.00    +0.000 N 
ATOM      5  H   UNL     1       3.039   7.718  20.139  0.00  0.00    +0.000 HD
ATOM      6  H   UNL     1       1.628   9.286  20.554  0.00  0.00    +0.000 HD
ENDROOT
BRANCH   1  14
ATOM      7  C   UNL     1       3.910   1.452  17.948  0.00  0.00    +0.000 C 
ATOM      8  C   UNL     1       3.173   2.617  18.554  0.00  0.00    +0.000 A 
ATOM      9  N   UNL     1       2.265   2.282  19.503  0.00  0.00    +0.000 NA
ATOM     10  C   UNL     1       1.615   3.269  20.119  0.00  0.00    +0.000 A 
ATOM     11  N   UNL     1       0.693   2.889  21.094  0.00  0.00    +0.000 N 
ATOM     12  C   UNL     1       1.844   4.608  19.856  0.00  0.00    +0.000 A 
ATOM     13  C   UNL     1       2.778   4.992  18.870  0.00  0.00    +0.000 A 
ATOM     14  C   UNL     1       3.118   6.345  18.573  0.00  0.00    +0.000 A 
ATOM     15  C   UNL     1       4.021   6.632  17.541  0.00  0.00    +0.000 A 
ATOM     16  C   UNL     1       4.643   5.610  16.836  0.00  0.00    +0.000 A 
ATOM     17  C   UNL     1       4.382   4.287  17.170  0.00  0.00    +0.000 A 
ATOM     18  C   UNL     1       3.452   3.951  18.179  0.00  0.00    +0.000 A 
ATOM     19  H   UNL     1       0.679   1.871  21.086  0.00  0.00    +0.000 HD
ATOM     20  H   UNL     1      -0.225   3.271  20.900  0.00  0.00    +0.000 HD
ENDBRANCH   1  14
BRANCH   4  21
ATOM     21  C   UNL     1       0.709  10.583  19.138  0.00  0.00    +0.000 C 
ATOM     22  C   UNL     1       0.637  11.639  20.239  0.00  0.00    +0.000 C 
ATOM     23  C   UNL     1      -0.489  12.582  19.816  0.00  0.00    +0.000 C 
ATOM     24  C   UNL     1      -1.311  11.827  18.752  0.00  0.00    +0.000 C 
ATOM     25  C   UNL     1      -0.758  10.394  18.757  0.00  0.00    +0.000 C 
BRANCH  24  26
ATOM     26  C   UNL     1      -2.806  11.941  18.962  0.00  0.00    +0.000 A 
ATOM     27  C   UNL     1      -3.689  11.418  18.000  0.00  0.00    +0.000 A 
ATOM     28  C   UNL     1      -5.071  11.568  18.140  0.00  0.00    +0.000 A 
ATOM     29  C   UNL     1      -5.592  12.241  19.243  0.00  0.00    +0.000 A 
ATOM     30  C   UNL     1      -4.731  12.754  20.211  0.00  0.00    +0.000 A 
ATOM     31  C   UNL     1      -3.350  12.603  20.070  0.00  0.00    +0.000 A 
ENDBRANCH  24  26
ENDBRANCH   4  21
TORSDOF 3
ENDMDL
MODEL 6
REMARK VINA RESULT:      -8.5      5.943      8.914
REMARK  Name = 
REMARK  4 active torsions:
REMARK  status: ('A' for Active; 'I' for Inactive)
REMARK    1  A    between atoms: C_1  and  C_2
REMARK    2  A    between atoms: C_8  and  N_9
REMARK    3  A    between atoms: N_12  and  C_13
REMARK    4  A    between atoms: C_16  and  C_17
REMARK                            x       y       z     vdW  Elec       q    Type
REMARK                         _______ _______ _______ _____ _____    ______ ____
ROOT
ATOM      1  N   UNL     1       2.697   5.824  20.160  0.00  0.00    +0.000 N 
ATOM      2  C   UNL     1       2.181   7.105  20.050  0.00  0.00    +0.000 C 
ATOM      3  O   UNL     1       2.029   7.723  19.002  0.00  0.00    +0.000 OA
ATOM      4  N   UNL     1       1.852   7.641  21.278  0.00  0.00    +0.000 N 
ATOM      5  H   UNL     1       3.212   5.660  21.008  0.00  0.00    +0.000 HD
ATOM      6  H   UNL     1       2.094   7.129  22.111  0.00  0.00    +0.000 HD
ENDROOT
BRANCH   1  14
ATOM      7  C   UNL     1       6.453   3.715  15.597  0.00  0.00    +0.000 C 
ATOM      8  C   UNL     1       6.061   4.324  16.917  0.00  0.00    +0.000 A 
ATOM      9  N   UNL     1       7.077   4.914  17.593  0.00  0.00    +0.000 NA
ATOM     10  C   UNL     1       6.788   5.520  18.744  0.00  0.00    +0.000 A 
ATOM     11  N   UNL     1       7.854   6.122  19.411  0.00  0.00    +0.000 N 
ATOM     12  C   UNL     1       5.507   5.596  19.261  0.00  0.00    +0.000 A 
ATOM     13  C   UNL     1       4.428   4.988  18.587  0.00  0.00    +0.000 A 
ATOM     14  C   UNL     1       3.070   5.064  19.015  0.00  0.00    +0.000 A 
ATOM     15  C   UNL     1       2.069   4.385  18.307  0.00  0.00    +0.000 A 
ATOM     16  C   UNL     1       2.372   3.681  17.149  0.00  0.00    +0.000 A 
ATOM     17  C   UNL     1       3.679   3.666  16.676  0.00  0.00    +0.000 A 
ATOM     18  C   UNL     1       4.724   4.307  17.376  0.00  0.00    +0.000 A 
ATOM     19  H   UNL     1       8.685   5.910  18.861  0.00  0.00    +0.000 HD
ATOM     20  H   UNL     1       7.941   5.773  20.357  0.00  0.00    +0.000 HD
ENDBRANCH   1  14
BRANCH   4  21
ATOM     21  C   UNL     1       1.442   9.029  21.406  0.00  0.00    +0.000 C 
ATOM     22  C   UNL     1       0.455   9.238  22.553  0.00  0.00    +0.000 C 
ATOM     23  C   UNL     1      -0.267  10.544  22.227  0.00  0.00    +0.000 C 
ATOM     24  C   UNL     1      -0.014  10.819  20.731  0.00  0.00    +0.000 C 
ATOM     25  C   UNL     1       0.667   9.549  20.197  0.00  0.00    +0.000 C 
BRANCH  24  26
ATOM     26  C   UNL     1      -1.258  11.246  19.984  0.00  0.00    +0.000 A 
ATOM     27  C   UNL     1      -2.139  12.177  20.564  0.00  0.00    +0.000 A 
ATOM     28  C   UNL     1      -3.326  12.537  19.922  0.00  0.00    +0.000 A 
ATOM     29  C   UNL     1      -3.651  11.976  18.689  0.00  0.00    +0.000 A 
ATOM     30  C   UNL     1      -2.783  11.062  18.095  0.00  0.00    +0.000 A 
ATOM     31  C   UNL     1      -1.597  10.703  18.737  0.00  0.00    +0.000 A 
ENDBRANCH  24  26
ENDBRANCH   4  21
TORSDOF 3
ENDMDL
MODEL 7
REMARK VINA RESULT:      -8.5      6.337     10.271
REMARK  Name = 
REMARK  4 active torsions:
REMARK  status: ('A' for Active; 'I' for Inactive)
REMARK    1  A    between atoms: C_1  and  C_2
REMARK    2  A    between atoms: C_8  and  N_9
REMARK    3  A    between atoms: N_12  and  C_13
REMARK    4  A    between atoms: C_16  and  C_17
REMARK                            x       y       z     vdW  Elec       q    Type
REMARK                         _______ _______ _______ _____ _____    ______ ____
ROOT
ATOM      1  N   UNL     1       0.313  10.237  17.724  0.00  0.00    +0.000 N 
ATOM      2  C   UNL     1       1.112   9.312  18.378  0.00  0.00    +0.000 C 
ATOM      3  O   UNL     1       0.972   8.948  19.540  0.00  0.00    +0.000 OA
ATOM      4  N   UNL     1       2.120   8.832  17.568  0.00  0.00    +0.000 N 
ATOM      5  H   UNL     1       0.798  10.785  17.036  0.00  0.00    +0.000 HD
ATOM      6  H   UNL     1       2.249   9.244  16.658  0.00  0.00    +0.000 HD
ENDROOT
BRANCH   1  14
ATOM      7  C   UNL     1      -5.500  12.557  18.187  0.00  0.00    +0.000 C 
ATOM      8  C   UNL     1      -4.357  11.743  17.640  0.00  0.00    +0.000 A 
ATOM      9  N   UNL     1      -4.583  11.198  16.420  0.00  0.00    +0.000 NA
ATOM     10  C   UNL     1      -3.593  10.510  15.852  0.00  0.00    +0.000 A 
ATOM     11  N   UNL     1      -3.856   9.968  14.595  0.00  0.00    +0.000 N 
ATOM     12  C   UNL     1      -2.348  10.352  16.436  0.00  0.00    +0.000 A 
ATOM     13  C   UNL     1      -2.081  10.901  17.707  0.00  0.00    +0.000 A 
ATOM     14  C   UNL     1      -0.813  10.836  18.357  0.00  0.00    +0.000 A 
ATOM     15  C   UNL     1      -0.654  11.367  19.644  0.00  0.00    +0.000 A 
ATOM     16  C   UNL     1      -1.705  12.016  20.280  0.00  0.00    +0.000 A 
ATOM     17  C   UNL     1      -2.922  12.158  19.624  0.00  0.00    +0.000 A 
ATOM     18  C   UNL     1      -3.137  11.607  18.342  0.00  0.00    +0.000 A 
ATOM     19  H   UNL     1      -4.830  10.188  14.393  0.00  0.00    +0.000 HD
ATOM     20  H   UNL     1      -3.696   8.968  14.584  0.00  0.00    +0.000 HD
ENDBRANCH   1  14
BRANCH   4  21
ATOM     21  C   UNL     1       3.165   7.973  18.099  0.00  0.00    +0.000 C 
ATOM     22  C   UNL     1       4.188   7.580  17.035  0.00  0.00    +0.000 C 
ATOM     23  C   UNL     1       4.853   6.312  17.570  0.00  0.00    +0.000 C 
ATOM     24  C   UNL     1       3.925   5.766  18.673  0.00  0.00    +0.000 C 
ATOM     25  C   UNL     1       2.651   6.621  18.588  0.00  0.00    +0.000 C 
BRANCH  24  26
ATOM     26  C   UNL     1       3.706   4.271  18.583  0.00  0.00    +0.000 A 
ATOM     27  C   UNL     1       2.823   3.751  17.620  0.00  0.00    +0.000 A 
ATOM     28  C   UNL     1       2.555   2.380  17.561  0.00  0.00    +0.000 A 
ATOM     29  C   UNL     1       3.166   1.509  18.461  0.00  0.00    +0.000 A 
ATOM     30  C   UNL     1       4.053   2.009  19.412  0.00  0.00    +0.000 A 
ATOM     31  C   UNL     1       4.320   3.378  19.471  0.00  0.00    +0.000 A 
ENDBRANCH  24  26
ENDBRANCH   4  21
TORSDOF 3
ENDMDL
MODEL 8
REMARK VINA RESULT:      -8.4      5.364      9.049
REMARK  Name = 
REMARK  4 active torsions:
REMARK  status: ('A' for Active; 'I' for Inactive)
REMARK    1  A    between atoms: C_1  and  C_2
REMARK    2  A    between atoms: C_8  and  N_9
REMARK    3  A    between atoms: N_12  and  C_13
REMARK    4  A    between atoms: C_16  and  C_17
REMARK                            x       y       z     vdW  Elec       q    Type
REMARK                         _______ _______ _______ _____ _____    ______ ____
ROOT
ATOM      1  N   UNL     1       2.710   6.920  19.235  0.00  0.00    +0.000 N 
ATOM      2  C   UNL     1       1.917   7.955  18.768  0.00  0.00    +0.000 C 
ATOM      3  O   UNL     1       1.537   8.093  17.611  0.00  0.00    +0.000 OA
ATOM      4  N   UNL     1       1.594   8.853  19.764  0.00  0.00    +0.000 N 
ATOM      5  H   UNL     1       3.325   7.179  19.987  0.00  0.00    +0.000 HD
ATOM      6  H   UNL     1       2.019   8.745  20.671  0.00  0.00    +0.000 HD
ENDROOT
BRANCH   1  14
ATOM      7  C   UNL     1       6.276   3.987  14.984  0.00  0.00    +0.000 C 
ATOM      8  C   UNL     1       5.902   4.984  16.049  0.00  0.00    +0.000 A 
ATOM      9  N   UNL     1       6.782   6.003  16.206  0.00  0.00    +0.000 NA
ATOM     10  C   UNL     1       6.485   6.951  17.094  0.00  0.00    +0.000 A 
ATOM     11  N   UNL     1       7.408   7.987  17.226  0.00  0.00    +0.000 N 
ATOM     12  C   UNL     1       5.318   6.954  17.838  0.00  0.00    +0.000 A 
ATOM     13  C   UNL     1       4.384   5.906  17.705  0.00  0.00    +0.000 A 
ATOM     14  C   UNL     1       3.132   5.857  18.387  0.00  0.00    +0.000 A 
ATOM     15  C   UNL     1       2.289   4.749  18.231  0.00  0.00    +0.000 A 
ATOM     16  C   UNL     1       2.627   3.714  17.368  0.00  0.00    +0.000 A 
ATOM     17  C   UNL     1       3.806   3.789  16.635  0.00  0.00    +0.000 A 
ATOM     18  C   UNL     1       4.702   4.869  16.788  0.00  0.00    +0.000 A 
ATOM     19  H   UNL     1       8.184   7.753  16.608  0.00  0.00    +0.000 HD
ATOM     20  H   UNL     1       7.718   8.085  18.184  0.00  0.00    +0.000 HD
ENDBRANCH   1  14
BRANCH   4  21
ATOM     21  C   UNL     1       0.903  10.095  19.461  0.00  0.00    +0.000 C 
ATOM     22  C   UNL     1       1.576  11.305  20.106  0.00  0.00    +0.000 C 
ATOM     23  C   UNL     1       0.493  12.381  20.164  0.00  0.00    +0.000 C 
ATOM     24  C   UNL     1      -0.853  11.655  19.972  0.00  0.00    +0.000 C 
ATOM     25  C   UNL     1      -0.514  10.156  20.027  0.00  0.00    +0.000 C 
BRANCH  24  26
ATOM     26  C   UNL     1      -1.920  12.109  20.944  0.00  0.00    +0.000 A 
ATOM     27  C   UNL     1      -1.738  11.914  22.325  0.00  0.00    +0.000 A 
ATOM     28  C   UNL     1      -2.737  12.266  23.236  0.00  0.00    +0.000 A 
ATOM     29  C   UNL     1      -3.932  12.820  22.783  0.00  0.00    +0.000 A 
ATOM     30  C   UNL     1      -4.122  13.032  21.419  0.00  0.00    +0.000 A 
ATOM     31  C   UNL     1      -3.124  12.680  20.509  0.00  0.00    +0.000 A 
ENDBRANCH  24  26
ENDBRANCH   4  21
TORSDOF 3
ENDMDL
MODEL 9
REMARK VINA RESULT:      -8.4      2.348      9.806
REMARK  Name = 
REMARK  4 active torsions:
REMARK  status: ('A' for Active; 'I' for Inactive)
REMARK    1  A    between atoms: C_1  and  C_2
REMARK    2  A    between atoms: C_8  and  N_9
REMARK    3  A    between atoms: N_12  and  C_13
REMARK    4  A    between atoms: C_16  and  C_17
REMARK                            x       y       z     vdW  Elec       q    Type
REMARK                         _______ _______ _______ _____ _____    ______ ____
ROOT
ATOM      1  N   UNL     1       9.001   9.102  19.237  0.00  0.00    +0.000 N 
ATOM      2  C   UNL     1       8.327   8.498  18.188  0.00  0.00    +0.000 C 
ATOM      3  O   UNL     1       8.024   9.041  17.131  0.00  0.00    +0.000 OA
ATOM      4  N   UNL     1       8.009   7.184  18.462  0.00  0.00    +0.000 N 
ATOM      5  H   UNL     1       8.742   8.758  20.145  0.00  0.00    +0.000 HD
ATOM      6  H   UNL     1       8.191   6.823  19.385  0.00  0.00    +0.000 HD
ENDROOT
BRANCH   1  14
ATOM      7  C   UNL     1       9.844  15.039  21.089  0.00  0.00    +0.000 C 
ATOM      8  C   UNL     1       9.573  13.562  21.204  0.00  0.00    +0.000 A 
ATOM      9  N   UNL     1       9.113  13.163  22.415  0.00  0.00    +0.000 NA
ATOM     10  C   UNL     1       8.801  11.876  22.569  0.00  0.00    +0.000 A 
ATOM     11  N   UNL     1       8.324  11.501  23.824  0.00  0.00    +0.000 N 
ATOM     12  C   UNL     1       8.899  10.945  21.549  0.00  0.00    +0.000 A 
ATOM     13  C   UNL     1       9.380  11.325  20.279  0.00  0.00    +0.000 A 
ATOM     14  C   UNL     1       9.461  10.447  19.158  0.00  0.00    +0.000 A 
ATOM     15  C   UNL     1      10.000  10.901  17.947  0.00  0.00    +0.000 A 
ATOM     16  C   UNL     1      10.405  12.221  17.800  0.00  0.00    +0.000 A 
ATOM     17  C   UNL     1      10.256  13.108  18.860  0.00  0.00    +0.000 A 
ATOM     18  C   UNL     1       9.751  12.685  20.109  0.00  0.00    +0.000 A 
ATOM     19  H   UNL     1       8.369  12.337  24.403  0.00  0.00    +0.000 HD
ATOM     20  H   UNL     1       8.878  10.750  24.218  0.00  0.00    +0.000 HD
ENDBRANCH   1  14
BRANCH   4  21
ATOM     21  C   UNL     1       7.165   6.413  17.565  0.00  0.00    +0.000 C 
ATOM     22  C   UNL     1       5.879   7.151  17.202  0.00  0.00    +0.000 C 
ATOM     23  C   UNL     1       4.908   6.063  16.745  0.00  0.00    +0.000 C 
ATOM     24  C   UNL     1       5.478   4.727  17.262  0.00  0.00    +0.000 C 
ATOM     25  C   UNL     1       6.646   5.116  18.183  0.00  0.00    +0.000 C 
BRANCH  24  26
ATOM     26  C   UNL     1       4.431   3.834  17.891  0.00  0.00    +0.000 A 
ATOM     27  C   UNL     1       4.619   3.351  19.199  0.00  0.00    +0.000 A 
ATOM     28  C   UNL     1       3.698   2.474  19.777  0.00  0.00    +0.000 A 
ATOM     29  C   UNL     1       2.575   2.067  19.059  0.00  0.00    +0.000 A 
ATOM     30  C   UNL     1       2.369   2.547  17.767  0.00  0.00    +0.000 A 
ATOM     31  C   UNL     1       3.289   3.424  17.191  0.00  0.00    +0.000 A 
ENDBRANCH  24  26
ENDBRANCH   4  21
TORSDOF 3
ENDMDL
