MODEL 1
REMARK VINA RESULT:      -7.1      0.000      0.000
REMARK  Name = 
REMARK  6 active torsions:
REMARK  status: ('A' for Active; 'I' for Inactive)
REMARK    1  A    between atoms: C_2  and  N_3
REMARK    2  A    between atoms: C_2  and  N_10
REMARK    3  A    between atoms: N_3  and  C_4
REMARK    4  A    between atoms: N_10  and  C_11
REMARK    5  A    between atoms: N_14  and  C_15
REMARK    6  A    between atoms: C_15  and  C_16
REMARK                            x       y       z     vdW  Elec       q    Type
REMARK                         _______ _______ _______ _____ _____    ______ ____
ROOT
ATOM      1  C   UNL     1       2.371   4.709  18.710  0.00  0.00    +0.000 C 
ATOM      2  C   UNL     1       2.316   6.109  18.098  0.00  0.00    +0.000 C 
ATOM      3  C   UNL     1       2.417   7.208  19.158  0.00  0.00    +0.000 C 
ATOM      4  N   UNL     1       1.531   7.039  20.314  0.00  0.00    +0.000 NA
ATOM      5  C   UNL     1       1.412   5.675  20.832  0.00  0.00    +0.000 C 
ATOM      6  C   UNL     1       1.261   4.602  19.752  0.00  0.00    +0.000 C 
ENDROOT
BRANCH   1   7
ATOM      7  N   UNL     1       3.692   4.440  19.300  0.00  0.00    +0.000 N 
ATOM      8  H   UNL     1       3.981   5.048  20.061  0.00  0.00    +0.000 HD
BRANCH   7  10
ATOM      9  S   UNL     1       3.940   1.900  18.989  0.00  0.00    +0.000 S 
ATOM     10  C   UNL     1       4.595   3.434  19.097  0.00  0.00    +0.000 C 
BRANCH  10  11
ATOM     11  N   UNL     1       5.906   3.814  18.984  0.00  0.00    +0.000 N 
ATOM     12  H   UNL     1       6.552   3.216  19.480  0.00  0.00    +0.000 HD
BRANCH  11  13
ATOM     13  C   UNL     1       6.481   4.994  18.444  0.00  0.00    +0.000 A 
ATOM     14  C   UNL     1       7.480   5.748  19.057  0.00  0.00    +0.000 A 
ATOM     15  C   UNL     1       7.946   6.919  18.458  0.00  0.00    +0.000 A 
ATOM     16  C   UNL     1       7.384   7.319  17.259  0.00  0.00    +0.000 A 
ATOM     17  N   UNL     1       6.403   6.636  16.637  0.00  0.00    +0.000 NA
ATOM     18  C   UNL     1       5.978   5.498  17.243  0.00  0.00    +0.000 A 
ENDBRANCH  11  13
ENDBRANCH  10  11
ENDBRANCH   7  10
ENDBRANCH   1   7
BRANCH   4  19
ATOM     19  C   UNL     1       1.820   8.019  21.389  0.00  0.00    +0.000 C 
BRANCH  19  20
ATOM     20  C   UNL     1       0.764   9.091  21.628  0.00  0.00    +0.000 A 
ATOM     21  C   UNL     1       0.354   9.935  20.582  0.00  0.00    +0.000 A 
ATOM     22  C   UNL     1      -0.550  10.974  20.811  0.00  0.00    +0.000 A 
ATOM     23  C   UNL     1      -1.072  11.174  22.086  0.00  0.00    +0.000 A 
ATOM     24  C   UNL     1      -0.700  10.330  23.129  0.00  0.00    +0.000 A 
ATOM     25  C   UNL     1       0.205   9.291  22.900  0.00  0.00    +0.000 A 
ENDBRANCH  19  20
ENDBRANCH   4  19
TORSDOF 6
ENDMDL
MODEL 2
REMARK VINA RESULT:      -7.0      1.809      2.614
REMARK  Name = 
REMARK  6 active torsions:
REMARK  status: ('A' for Active; 'I' for Inactive)
REMARK    1  A    between atoms: C_2  and  N_3
REMARK    2  A    between atoms: C_2  and  N_10
REMARK    3  A    between atoms: N_3  and  C_4
REMARK    4  A    between atoms: N_10  and  C_11
REMARK    5  A    between atoms: N_14  and  C_15
REMARK    6  A    between atoms: C_15  and  C_16
REMARK                            x       y       z     vdW  Elec       q    Type
REMARK                         _______ _______ _______ _____ _____    ______ ____
ROOT
ATOM      1  C   UNL     1       1.962   2.478  19.147  0.00  0.00    +0.000 C 
ATOM      2  C   UNL     1       1.361   3.369  18.061  0.00  0.00    +0.000 C 
ATOM      3  C   UNL     1       1.961   4.776  18.070  0.00  0.00    +0.000 C 
ATOM      4  N   UNL     1       2.020   5.418  19.386  0.00  0.00    +0.000 NA
ATOM      5  C   UNL     1       2.424   4.555  20.498  0.00  0.00    +0.000 C 
ATOM      6  C   UNL     1       1.770   3.173  20.493  0.00  0.00    +0.000 C 
ENDROOT
BRANCH   1   7
ATOM      7  N   UNL     1       3.383   2.202  18.881  0.00  0.00    +0.000 N 
ATOM      8  H   UNL     1       3.593   1.704  18.020  0.00  0.00    +0.000 HD
BRANCH   7  10
ATOM      9  S   UNL     1       5.039   1.561  20.740  0.00  0.00    +0.000 S 
ATOM     10  C   UNL     1       4.525   2.588  19.525  0.00  0.00    +0.000 C 
BRANCH  10  11
ATOM     11  N   UNL     1       5.110   3.742  19.076  0.00  0.00    +0.000 N 
ATOM     12  H   UNL     1       4.984   4.533  19.692  0.00  0.00    +0.000 HD
BRANCH  11  13
ATOM     13  C   UNL     1       5.699   4.051  17.822  0.00  0.00    +0.000 A 
ATOM     14  C   UNL     1       5.054   3.952  16.590  0.00  0.00    +0.000 A 
ATOM     15  C   UNL     1       5.741   4.239  15.410  0.00  0.00    +0.000 A 
ATOM     16  C   UNL     1       7.072   4.604  15.491  0.00  0.00    +0.000 A 
ATOM     17  N   UNL     1       7.746   4.694  16.655  0.00  0.00    +0.000 NA
ATOM     18  C   UNL     1       7.046   4.416  17.784  0.00  0.00    +0.000 A 
ENDBRANCH  11  13
ENDBRANCH  10  11
ENDBRANCH   7  10
ENDBRANCH   1   7
BRANCH   4  19
ATOM     19  C   UNL     1       2.789   6.686  19.358  0.00  0.00    +0.000 C 
BRANCH  19  20
ATOM     20  C   UNL     1       1.975   7.972  19.420  0.00  0.00    +0.000 A 
ATOM     21  C   UNL     1       1.859   8.798  18.289  0.00  0.00    +0.000 A 
ATOM     22  C   UNL     1       1.186  10.020  18.360  0.00  0.00    +0.000 A 
ATOM     23  C   UNL     1       0.604  10.426  19.557  0.00  0.00    +0.000 A 
ATOM     24  C   UNL     1       0.683   9.607  20.680  0.00  0.00    +0.000 A 
ATOM     25  C   UNL     1       1.357   8.385  20.610  0.00  0.00    +0.000 A 
ENDBRANCH  19  20
ENDBRANCH   4  19
TORSDOF 6
ENDMDL
MODEL 3
REMARK VINA RESULT:      -7.0      1.080      1.938
REMARK  Name = 
REMARK  6 active torsions:
REMARK  status: ('A' for Active; 'I' for Inactive)
REMARK    1  A    between atoms: C_2  and  N_3
REMARK    2  A    between atoms: C_2  and  N_10
REMARK    3  A    between atoms: N_3  and  C_4
REMARK    4  A    between atoms: N_10  and  C_11
REMARK    5  A    between atoms: N_14  and  C_15
REMARK    6  A    between atoms: C_15  and  C_16
REMARK                            x       y       z     vdW  Elec       q    Type
REMARK                         _______ _______ _______ _____ _____    ______ ____
ROOT
ATOM      1  C   UNL     1       2.228   4.462  19.046  0.00  0.00    +0.000 C 
ATOM      2  C   UNL     1       2.217   5.772  18.259  0.00  0.00    +0.000 C 
ATOM      3  C   UNL     1       2.405   6.991  19.164  0.00  0.00    +0.000 C 
ATOM      4  N   UNL     1       1.553   7.017  20.356  0.00  0.00    +0.000 NA
ATOM      5  C   UNL     1       1.388   5.738  21.050  0.00  0.00    +0.000 C 
ATOM      6  C   UNL     1       1.150   4.545  20.123  0.00  0.00    +0.000 C 
ENDROOT
BRANCH   1   7
ATOM      7  N   UNL     1       3.554   4.203  19.628  0.00  0.00    +0.000 N 
ATOM      8  H   UNL     1       3.729   4.598  20.548  0.00  0.00    +0.000 HD
BRANCH   7  10
ATOM      9  S   UNL     1       4.386   1.778  19.438  0.00  0.00    +0.000 S 
ATOM     10  C   UNL     1       4.597   3.421  19.216  0.00  0.00    +0.000 C 
BRANCH  10  11
ATOM     11  N   UNL     1       5.659   4.080  18.656  0.00  0.00    +0.000 N 
ATOM     12  H   UNL     1       6.257   4.540  19.326  0.00  0.00    +0.000 HD
BRANCH  11  13
ATOM     13  C   UNL     1       5.953   4.368  17.297  0.00  0.00    +0.000 A 
ATOM     14  C   UNL     1       5.186   3.954  16.209  0.00  0.00    +0.000 A 
ATOM     15  C   UNL     1       5.591   4.255  14.908  0.00  0.00    +0.000 A 
ATOM     16  C   UNL     1       6.770   4.954  14.725  0.00  0.00    +0.000 A 
ATOM     17  N   UNL     1       7.557   5.358  15.743  0.00  0.00    +0.000 NA
ATOM     18  C   UNL     1       7.131   5.055  16.995  0.00  0.00    +0.000 A 
ENDBRANCH  11  13
ENDBRANCH  10  11
ENDBRANCH   7  10
ENDBRANCH   1   7
BRANCH   4  19
ATOM     19  C   UNL     1       1.923   8.112  21.286  0.00  0.00    +0.000 C 
BRANCH  19  20
ATOM     20  C   UNL     1       0.867   9.183  21.524  0.00  0.00    +0.000 A 
ATOM     21  C   UNL     1       0.369   9.419  22.816  0.00  0.00    +0.000 A 
ATOM     22  C   UNL     1      -0.659  10.340  23.031  0.00  0.00    +0.000 A 
ATOM     23  C   UNL     1      -1.193  11.050  21.960  0.00  0.00    +0.000 A 
ATOM     24  C   UNL     1      -0.692  10.852  20.676  0.00  0.00    +0.000 A 
ATOM     25  C   UNL     1       0.336   9.930  20.461  0.00  0.00    +0.000 A 
ENDBRANCH  19  20
ENDBRANCH   4  19
TORSDOF 6
ENDMDL
MODEL 4
REMARK VINA RESULT:      -6.9      1.942      7.336
REMARK  Name = 
REMARK  6 active torsions:
REMARK  status: ('A' for Active; 'I' for Inactive)
REMARK    1  A    between atoms: C_2  and  N_3
REMARK    2  A    between atoms: C_2  and  N_10
REMARK    3  A    between atoms: N_3  and  C_4
REMARK    4  A    between atoms: N_10  and  C_11
REMARK    5  A    between atoms: N_14  and  C_15
REMARK    6  A    between atoms: C_15  and  C_16
REMARK                            x       y       z     vdW  Elec       q    Type
REMARK                         _______ _______ _______ _____ _____    ______ ____
ROOT
ATOM      1  C   UNL     1       2.002   4.551  20.213  0.00  0.00    +0.000 C 
ATOM      2  C   UNL     1       3.113   3.531  20.463  0.00  0.00    +0.000 C 
ATOM      3  C   UNL     1       4.153   3.523  19.342  0.00  0.00    +0.000 C 
ATOM      4  N   UNL     1       3.604   3.469  17.984  0.00  0.00    +0.000 NA
ATOM      5  C   UNL     1       2.424   4.301  17.741  0.00  0.00    +0.000 C 
ATOM      6  C   UNL     1       1.377   4.249  18.854  0.00  0.00    +0.000 C 
ENDROOT
BRANCH   1   7
ATOM      7  N   UNL     1       2.522   5.926  20.275  0.00  0.00    +0.000 N 
ATOM      8  H   UNL     1       3.526   6.026  20.402  0.00  0.00    +0.000 HD
BRANCH   7  10
ATOM      9  S   UNL     1       2.385   7.947  18.692  0.00  0.00    +0.000 S 
ATOM     10  C   UNL     1       1.923   7.139  20.080  0.00  0.00    +0.000 C 
BRANCH  10  11
ATOM     11  N   UNL     1       1.010   7.519  21.028  0.00  0.00    +0.000 N 
ATOM     12  H   UNL     1       0.573   6.747  21.511  0.00  0.00    +0.000 HD
BRANCH  11  13
ATOM     13  C   UNL     1       0.453   8.793  21.314  0.00  0.00    +0.000 A 
ATOM     14  C   UNL     1      -0.151   9.629  20.376  0.00  0.00    +0.000 A 
ATOM     15  C   UNL     1      -0.629  10.884  20.756  0.00  0.00    +0.000 A 
ATOM     16  C   UNL     1      -0.474  11.281  22.072  0.00  0.00    +0.000 A 
ATOM     17  N   UNL     1       0.122  10.519  23.010  0.00  0.00    +0.000 NA
ATOM     18  C   UNL     1       0.568   9.302  22.609  0.00  0.00    +0.000 A 
ENDBRANCH  11  13
ENDBRANCH  10  11
ENDBRANCH   7  10
ENDBRANCH   1   7
BRANCH   4  19
ATOM     19  C   UNL     1       4.647   3.667  16.949  0.00  0.00    +0.000 C 
BRANCH  19  20
ATOM     20  C   UNL     1       5.625   4.812  17.183  0.00  0.00    +0.000 A 
ATOM     21  C   UNL     1       6.849   4.583  17.834  0.00  0.00    +0.000 A 
ATOM     22  C   UNL     1       7.713   5.640  18.128  0.00  0.00    +0.000 A 
ATOM     23  C   UNL     1       7.374   6.939  17.762  0.00  0.00    +0.000 A 
ATOM     24  C   UNL     1       6.179   7.181  17.090  0.00  0.00    +0.000 A 
ATOM     25  C   UNL     1       5.314   6.124  16.796  0.00  0.00    +0.000 A 
ENDBRANCH  19  20
ENDBRANCH   4  19
TORSDOF 6
ENDMDL
MODEL 5
REMARK VINA RESULT:      -6.9      2.204      7.126
REMARK  Name = 
REMARK  6 active torsions:
REMARK  status: ('A' for Active; 'I' for Inactive)
REMARK    1  A    between atoms: C_2  and  N_3
REMARK    2  A    between atoms: C_2  and  N_10
REMARK    3  A    between atoms: N_3  and  C_4
REMARK    4  A    between atoms: N_10  and  C_11
REMARK    5  A    between atoms: N_14  and  C_15
REMARK    6  A    between atoms: C_15  and  C_16
REMARK                            x       y       z     vdW  Elec       q    Type
REMARK                         _______ _______ _______ _____ _____    ______ ____
ROOT
ATOM      1  C   UNL     1       1.601   4.140  20.998  0.00  0.00    +0.000 C 
ATOM      2  C   UNL     1       2.566   3.009  21.350  0.00  0.00    +0.000 C 
ATOM      3  C   UNL     1       3.578   2.744  20.233  0.00  0.00    +0.000 C 
ATOM      4  N   UNL     1       3.005   2.628  18.890  0.00  0.00    +0.000 NA
ATOM      5  C   UNL     1       1.945   3.585  18.564  0.00  0.00    +0.000 C 
ATOM      6  C   UNL     1       0.919   3.791  19.678  0.00  0.00    +0.000 C 
ENDROOT
BRANCH   1   7
ATOM      7  N   UNL     1       2.304   5.431  20.916  0.00  0.00    +0.000 N 
ATOM      8  H   UNL     1       3.297   5.420  21.135  0.00  0.00    +0.000 HD
BRANCH   7  10
ATOM      9  S   UNL     1       2.588   7.175  19.049  0.00  0.00    +0.000 S 
ATOM     10  C   UNL     1       1.903   6.665  20.486  0.00  0.00    +0.000 C 
BRANCH  10  11
ATOM     11  N   UNL     1       0.979   7.305  21.269  0.00  0.00    +0.000 N 
ATOM     12  H   UNL     1       0.389   6.681  21.801  0.00  0.00    +0.000 HD
BRANCH  11  13
ATOM     13  C   UNL     1       0.600   8.672  21.318  0.00  0.00    +0.000 A 
ATOM     14  C   UNL     1       0.384   9.481  20.204  0.00  0.00    +0.000 A 
ATOM     15  C   UNL     1       0.056  10.828  20.365  0.00  0.00    +0.000 A 
ATOM     16  C   UNL     1      -0.031  11.340  21.647  0.00  0.00    +0.000 A 
ATOM     17  N   UNL     1       0.190  10.604  22.755  0.00  0.00    +0.000 NA
ATOM     18  C   UNL     1       0.499   9.297  22.562  0.00  0.00    +0.000 A 
ENDBRANCH  11  13
ENDBRANCH  10  11
ENDBRANCH   7  10
ENDBRANCH   1   7
BRANCH   4  19
ATOM     19  C   UNL     1       4.049   2.574  17.837  0.00  0.00    +0.000 C 
BRANCH  19  20
ATOM     20  C   UNL     1       4.720   3.895  17.482  0.00  0.00    +0.000 A 
ATOM     21  C   UNL     1       4.641   4.406  16.175  0.00  0.00    +0.000 A 
ATOM     22  C   UNL     1       5.322   5.572  15.819  0.00  0.00    +0.000 A 
ATOM     23  C   UNL     1       6.079   6.254  16.768  0.00  0.00    +0.000 A 
ATOM     24  C   UNL     1       6.144   5.779  18.075  0.00  0.00    +0.000 A 
ATOM     25  C   UNL     1       5.464   4.612  18.431  0.00  0.00    +0.000 A 
ENDBRANCH  19  20
ENDBRANCH   4  19
TORSDOF 6
ENDMDL
MODEL 6
REMARK VINA RESULT:      -6.9      1.990      7.378
REMARK  Name = 
REMARK  6 active torsions:
REMARK  status: ('A' for Active; 'I' for Inactive)
REMARK    1  A    between atoms: C_2  and  N_3
REMARK    2  A    between atoms: C_2  and  N_10
REMARK    3  A    between atoms: N_3  and  C_4
REMARK    4  A    between atoms: N_10  and  C_11
REMARK    5  A    between atoms: N_14  and  C_15
REMARK    6  A    between atoms: C_15  and  C_16
REMARK                            x       y       z     vdW  Elec       q    Type
REMARK                         _______ _______ _______ _____ _____    ______ ____
ROOT
ATOM      1  C   UNL     1       2.023   5.065  19.795  0.00  0.00    +0.000 C 
ATOM      2  C   UNL     1       2.947   3.956  20.295  0.00  0.00    +0.000 C 
ATOM      3  C   UNL     1       4.240   3.870  19.482  0.00  0.00    +0.000 C 
ATOM      4  N   UNL     1       4.060   3.871  18.027  0.00  0.00    +0.000 NA
ATOM      5  C   UNL     1       3.052   4.798  17.510  0.00  0.00    +0.000 C 
ATOM      6  C   UNL     1       1.750   4.825  18.312  0.00  0.00    +0.000 C 
ENDROOT
BRANCH   1   7
ATOM      7  N   UNL     1       2.613   6.393  20.026  0.00  0.00    +0.000 N 
ATOM      8  H   UNL     1       3.625   6.430  20.111  0.00  0.00    +0.000 HD
BRANCH   7  10
ATOM      9  S   UNL     1       2.013   8.419  18.562  0.00  0.00    +0.000 S 
ATOM     10  C   UNL     1       2.067   7.646  20.043  0.00  0.00    +0.000 C 
BRANCH  10  11
ATOM     11  N   UNL     1       1.614   8.090  21.257  0.00  0.00    +0.000 N 
ATOM     12  H   UNL     1       1.764   7.439  22.014  0.00  0.00    +0.000 HD
BRANCH  11  13
ATOM     13  C   UNL     1       0.820   9.219  21.589  0.00  0.00    +0.000 A 
ATOM     14  C   UNL     1       0.546  10.282  20.730  0.00  0.00    +0.000 A 
ATOM     15  C   UNL     1      -0.212  11.367  21.173  0.00  0.00    +0.000 A 
ATOM     16  C   UNL     1      -0.665  11.370  22.480  0.00  0.00    +0.000 A 
ATOM     17  N   UNL     1      -0.408  10.376  23.354  0.00  0.00    +0.000 NA
ATOM     18  C   UNL     1       0.325   9.333  22.889  0.00  0.00    +0.000 A 
ENDBRANCH  11  13
ENDBRANCH  10  11
ENDBRANCH   7  10
ENDBRANCH   1   7
BRANCH   4  19
ATOM     19  C   UNL     1       5.349   3.989  17.303  0.00  0.00    +0.000 C 
BRANCH  19  20
ATOM     20  C   UNL     1       6.215   5.192  17.655  0.00  0.00    +0.000 A 
ATOM     21  C   UNL     1       6.080   6.399  16.948  0.00  0.00    +0.000 A 
ATOM     22  C   UNL     1       6.927   7.480  17.207  0.00  0.00    +0.000 A 
ATOM     23  C   UNL     1       7.909   7.376  18.187  0.00  0.00    +0.000 A 
ATOM     24  C   UNL     1       8.037   6.198  18.919  0.00  0.00    +0.000 A 
ATOM     25  C   UNL     1       7.192   5.117  18.660  0.00  0.00    +0.000 A 
ENDBRANCH  19  20
ENDBRANCH   4  19
TORSDOF 6
ENDMDL
MODEL 7
REMARK VINA RESULT:      -6.9      1.389      2.329
REMARK  Name = 
REMARK  6 active torsions:
REMARK  status: ('A' for Active; 'I' for Inactive)
REMARK    1  A    between atoms: C_2  and  N_3
REMARK    2  A    between atoms: C_2  and  N_10
REMARK    3  A    between atoms: N_3  and  C_4
REMARK    4  A    between atoms: N_10  and  C_11
REMARK    5  A    between atoms: N_14  and  C_15
REMARK    6  A    between atoms: C_15  and  C_16
REMARK                            x       y       z     vdW  Elec       q    Type
REMARK                         _______ _______ _______ _____ _____    ______ ____
ROOT
ATOM      1  C   UNL     1       1.712   2.973  19.675  0.00  0.00    +0.000 C 
ATOM      2  C   UNL     1       1.572   3.633  18.304  0.00  0.00    +0.000 C 
ATOM      3  C   UNL     1       2.158   5.046  18.280  0.00  0.00    +0.000 C 
ATOM      4  N   UNL     1       1.744   5.909  19.390  0.00  0.00    +0.000 NA
ATOM      5  C   UNL     1       1.692   5.273  20.707  0.00  0.00    +0.000 C 
ATOM      6  C   UNL     1       1.055   3.883  20.710  0.00  0.00    +0.000 C 
ENDROOT
BRANCH   1   7
ATOM      7  N   UNL     1       3.125   2.720  20.000  0.00  0.00    +0.000 N 
ATOM      8  H   UNL     1       3.355   2.638  20.987  0.00  0.00    +0.000 HD
BRANCH   7  10
ATOM      9  S   UNL     1       4.044   1.147  18.186  0.00  0.00    +0.000 S 
ATOM     10  C   UNL     1       4.211   2.455  19.213  0.00  0.00    +0.000 C 
BRANCH  10  11
ATOM     11  N   UNL     1       5.276   3.306  19.350  0.00  0.00    +0.000 N 
ATOM     12  H   UNL     1       5.687   3.304  20.272  0.00  0.00    +0.000 HD
BRANCH  11  13
ATOM     13  C   UNL     1       5.777   4.305  18.475  0.00  0.00    +0.000 A 
ATOM     14  C   UNL     1       5.530   4.362  17.104  0.00  0.00    +0.000 A 
ATOM     15  C   UNL     1       6.109   5.365  16.326  0.00  0.00    +0.000 A 
ATOM     16  C   UNL     1       6.940   6.284  16.940  0.00  0.00    +0.000 A 
ATOM     17  N   UNL     1       7.226   6.259  18.257  0.00  0.00    +0.000 NA
ATOM     18  C   UNL     1       6.641   5.274  18.986  0.00  0.00    +0.000 A 
ENDBRANCH  11  13
ENDBRANCH  10  11
ENDBRANCH   7  10
ENDBRANCH   1   7
BRANCH   4  19
ATOM     19  C   UNL     1       2.498   7.186  19.417  0.00  0.00    +0.000 C 
BRANCH  19  20
ATOM     20  C   UNL     1       1.666   8.461  19.485  0.00  0.00    +0.000 A 
ATOM     21  C   UNL     1       1.041   8.842  20.684  0.00  0.00    +0.000 A 
ATOM     22  C   UNL     1       0.209   9.963  20.734  0.00  0.00    +0.000 A 
ATOM     23  C   UNL     1       0.002  10.728  19.590  0.00  0.00    +0.000 A 
ATOM     24  C   UNL     1       0.636  10.383  18.400  0.00  0.00    +0.000 A 
ATOM     25  C   UNL     1       1.468   9.262  18.349  0.00  0.00    +0.000 A 
ENDBRANCH  19  20
ENDBRANCH   4  19
TORSDOF 6
ENDMDL
MODEL 8
REMARK VINA RESULT:      -6.9      1.943      2.357
REMARK  Name = 
REMARK  6 active torsions:
REMARK  status: ('A' for Active; 'I' for Inactive)
REMARK    1  A    between atoms: C_2  and  N_3
REMARK    2  A    between atoms: C_2  and  N_10
REMARK    3  A    between atoms: N_3  and  C_4
REMARK    4  A    between atoms: N_10  and  C_11
REMARK    5  A    between atoms: N_14  and  C_15
REMARK    6  A    between atoms: C_15  and  C_16
REMARK                            x       y       z     vdW  Elec       q    Type
REMARK                         _______ _______ _______ _____ _____    ______ ____
ROOT
ATOM      1  C   UNL     1       2.453   4.594  19.625  0.00  0.00    +0.000 C 
ATOM      2  C   UNL     1       1.882   4.750  18.215  0.00  0.00    +0.000 C 
ATOM      3  C   UNL     1       2.209   6.115  17.607  0.00  0.00    +0.000 C 
ATOM      4  N   UNL     1       1.940   7.263  18.478  0.00  0.00    +0.000 NA
ATOM      5  C   UNL     1       2.309   7.097  19.885  0.00  0.00    +0.000 C 
ATOM      6  C   UNL     1       1.925   5.742  20.481  0.00  0.00    +0.000 C 
ENDROOT
BRANCH   1   7
ATOM      7  N   UNL     1       3.924   4.570  19.602  0.00  0.00    +0.000 N 
ATOM      8  H   UNL     1       4.396   5.405  19.939  0.00  0.00    +0.000 HD
BRANCH   7  10
ATOM      9  S   UNL     1       4.554   2.128  20.099  0.00  0.00    +0.000 S 
ATOM     10  C   UNL     1       4.818   3.578  19.310  0.00  0.00    +0.000 C 
BRANCH  10  11
ATOM     11  N   UNL     1       5.789   3.891  18.397  0.00  0.00    +0.000 N 
ATOM     12  H   UNL     1       6.171   3.091  17.913  0.00  0.00    +0.000 HD
BRANCH  11  13
ATOM     13  C   UNL     1       6.464   5.115  18.151  0.00  0.00    +0.000 A 
ATOM     14  C   UNL     1       7.512   5.618  18.921  0.00  0.00    +0.000 A 
ATOM     15  C   UNL     1       8.078   6.856  18.617  0.00  0.00    +0.000 A 
ATOM     16  C   UNL     1       7.567   7.575  17.552  0.00  0.00    +0.000 A 
ATOM     17  N   UNL     1       6.542   7.142  16.790  0.00  0.00    +0.000 NA
ATOM     18  C   UNL     1       6.019   5.931  17.109  0.00  0.00    +0.000 A 
ENDBRANCH  11  13
ENDBRANCH  10  11
ENDBRANCH   7  10
ENDBRANCH   1   7
BRANCH   4  19
ATOM     19  C   UNL     1       2.462   8.531  17.911  0.00  0.00    +0.000 C 
BRANCH  19  20
ATOM     20  C   UNL     1       1.651   9.787  18.206  0.00  0.00    +0.000 A 
ATOM     21  C   UNL     1       0.251   9.726  18.304  0.00  0.00    +0.000 A 
ATOM     22  C   UNL     1      -0.505  10.886  18.489  0.00  0.00    +0.000 A 
ATOM     23  C   UNL     1       0.127  12.120  18.596  0.00  0.00    +0.000 A 
ATOM     24  C   UNL     1       1.516  12.197  18.531  0.00  0.00    +0.000 A 
ATOM     25  C   UNL     1       2.273  11.038  18.345  0.00  0.00    +0.000 A 
ENDBRANCH  19  20
ENDBRANCH   4  19
TORSDOF 6
ENDMDL
MODEL 9
REMARK VINA RESULT:      -6.9      1.519      2.413
REMARK  Name = 
REMARK  6 active torsions:
REMARK  status: ('A' for Active; 'I' for Inactive)
REMARK    1  A    between atoms: C_2  and  N_3
REMARK    2  A    between atoms: C_2  and  N_10
REMARK    3  A    between atoms: N_3  and  C_4
REMARK    4  A    between atoms: N_10  and  C_11
REMARK    5  A    between atoms: N_14  and  C_15
REMARK    6  A    between atoms: C_15  and  C_16
REMARK                            x       y       z     vdW  Elec       q    Type
REMARK                         _______ _______ _______ _____ _____    ______ ____
ROOT
ATOM      1  C   UNL     1       2.418   4.334  19.301  0.00  0.00    +0.000 C 
ATOM      2  C   UNL     1       2.007   4.945  17.962  0.00  0.00    +0.000 C 
ATOM      3  C   UNL     1       2.212   6.461  17.931  0.00  0.00    +0.000 C 
ATOM      4  N   UNL     1       1.684   7.183  19.092  0.00  0.00    +0.000 NA
ATOM      5  C   UNL     1       1.900   6.546  20.392  0.00  0.00    +0.000 C 
ATOM      6  C   UNL     1       1.637   5.040  20.406  0.00  0.00    +0.000 C 
ENDROOT
BRANCH   1   7
ATOM      7  N   UNL     1       3.871   4.446  19.511  0.00  0.00    +0.000 N 
ATOM      8  H   UNL     1       4.206   5.326  19.894  0.00  0.00    +0.000 HD
BRANCH   7  10
ATOM      9  S   UNL     1       4.603   2.059  20.125  0.00  0.00    +0.000 S 
ATOM     10  C   UNL     1       4.884   3.536  19.394  0.00  0.00    +0.000 C 
BRANCH  10  11
ATOM     11  N   UNL     1       5.978   3.941  18.676  0.00  0.00    +0.000 N 
ATOM     12  H   UNL     1       6.796   4.120  19.240  0.00  0.00    +0.000 HD
BRANCH  11  13
ATOM     13  C   UNL     1       6.099   4.317  17.313  0.00  0.00    +0.000 A 
ATOM     14  C   UNL     1       5.236   3.914  16.294  0.00  0.00    +0.000 A 
ATOM     15  C   UNL     1       5.472   4.307  14.976  0.00  0.00    +0.000 A 
ATOM     16  C   UNL     1       6.583   5.084  14.705  0.00  0.00    +0.000 A 
ATOM     17  N   UNL     1       7.458   5.481  15.650  0.00  0.00    +0.000 NA
ATOM     18  C   UNL     1       7.195   5.088  16.922  0.00  0.00    +0.000 A 
ENDBRANCH  11  13
ENDBRANCH  10  11
ENDBRANCH   7  10
ENDBRANCH   1   7
BRANCH   4  19
ATOM     19  C   UNL     1       2.090   8.610  19.096  0.00  0.00    +0.000 C 
BRANCH  19  20
ATOM     20  C   UNL     1       0.971   9.631  19.258  0.00  0.00    +0.000 A 
ATOM     21  C   UNL     1       0.721  10.224  20.507  0.00  0.00    +0.000 A 
ATOM     22  C   UNL     1      -0.355  11.097  20.683  0.00  0.00    +0.000 A 
ATOM     23  C   UNL     1      -1.187  11.403  19.611  0.00  0.00    +0.000 A 
ATOM     24  C   UNL     1      -0.938  10.848  18.358  0.00  0.00    +0.000 A 
ATOM     25  C   UNL     1       0.138   9.974  18.181  0.00  0.00    +0.000 A 
ENDBRANCH  19  20
ENDBRANCH   4  19
TORSDOF 6
ENDMDL
