MODEL 1
REMARK VINA RESULT:      -8.6      0.000      0.000
REMARK  Name = 
REMARK  8 active torsions:
REMARK  status: ('A' for Active; 'I' for Inactive)
REMARK    1  A    between atoms: C_1  and  C_2
REMARK    2  A    between atoms: C_2  and  C_3
REMARK    3  A    between atoms: C_3  and  O_4
REMARK    4  A    between atoms: O_4  and  C_5
REMARK    5  A    between atoms: C_5  and  C_7
REMARK    6  A    between atoms: C_7  and  C_8
REMARK    7  A    between atoms: C_14  and  C_15
REMARK    8  A    between atoms: C_22  and  C_23
REMARK                            x       y       z     vdW  Elec       q    Type
REMARK                         _______ _______ _______ _____ _____    ______ ____
ROOT
ATOM      1  C   UNL     1       2.828   4.063  16.686  0.00  0.00    +0.000 C 
ATOM      2  C   UNL     1       3.728   4.031  17.931  0.00  0.00    +0.000 C 
ATOM      3  C   UNL     1       3.030   3.361  19.137  0.00  0.00    +0.000 C 
ATOM      4  N   UNL     1       2.022   4.330  19.648  0.00  0.00    +0.000 N 
ATOM      5  C   UNL     1       2.064   4.774  20.939  0.00  0.00    +0.000 C 
ATOM      6  O   UNL     1       2.519   4.279  21.957  0.00  0.00    +0.000 OA
ATOM      7  C   UNL     1       1.741   6.132  20.527  0.00  0.00    +0.000 C 
ATOM      8  C   UNL     1       1.280   7.265  21.070  0.00  0.00    +0.000 C 
ATOM      9  C   UNL     1       2.140   5.727  19.139  0.00  0.00    +0.000 C 
ATOM     10  S   UNL     1       3.898   5.685  18.674  0.00  0.00    +0.000 S 
ATOM     11  O   UNL     1       4.763   5.512  19.839  0.00  0.00    +0.000 OA
ATOM     12  O   UNL     1       4.231   6.654  17.644  0.00  0.00    +0.000 OA
ENDROOT
BRANCH   8  13
ATOM     13  C   UNL     1       1.040   8.499  20.299  0.00  0.00    +0.000 A 
ATOM     14  C   UNL     1       0.108   9.446  20.702  0.00  0.00    +0.000 A 
ATOM     15  C   UNL     1      -0.085  10.579  19.909  0.00  0.00    +0.000 A 
ATOM     16  C   UNL     1       0.654  10.734  18.742  0.00  0.00    +0.000 A 
ATOM     17  C   UNL     1       1.569   9.750  18.419  0.00  0.00    +0.000 A 
ATOM     18  N   UNL     1       1.778   8.646  19.171  0.00  0.00    +0.000 NA
ENDBRANCH   8  13
BRANCH   3  19
ATOM     19  C   UNL     1       2.617   1.920  18.900  0.00  0.00    +0.000 C 
ATOM     20  O   UNL     1       1.361   1.784  18.981  0.00  0.00    +0.000 OA
ATOM     21  O   UNL     1       3.538   1.098  18.690  0.00  0.00    +0.000 OA
ENDBRANCH   3  19
BRANCH   2  22
ATOM     22  C   UNL     1       5.117   3.488  17.578  0.00  0.00    +0.000 C 
BRANCH  22  23
ATOM     23  O   UNL     1       6.139   4.467  17.887  0.00  0.00    +0.000 OA
BRANCH  23  24
ATOM     24  C   UNL     1       7.113   4.667  16.947  0.00  0.00    +0.000 C 
ATOM     25  O   UNL     1       8.224   4.150  16.988  0.00  0.00    +0.000 OA
BRANCH  24  26
ATOM     26  C   UNL     1       6.622   5.560  15.818  0.00  0.00    +0.000 C 
BRANCH  26  27
ATOM     27  C   UNL     1       6.778   4.872  14.487  0.00  0.00    +0.000 A 
ATOM     28  C   UNL     1       7.724   5.336  13.563  0.00  0.00    +0.000 A 
ATOM     29  C   UNL     1       7.724   4.854  12.255  0.00  0.00    +0.000 A 
ATOM     30  C   UNL     1       6.792   3.893  11.864  0.00  0.00    +0.000 A 
ATOM     31  C   UNL     1       5.890   3.380  12.794  0.00  0.00    +0.000 A 
ATOM     32  C   UNL     1       5.886   3.861  14.103  0.00  0.00    +0.000 A 
ENDBRANCH  26  27
ENDBRANCH  24  26
ENDBRANCH  23  24
ENDBRANCH  22  23
ENDBRANCH   2  22
TORSDOF 7
ENDMDL
MODEL 2
REMARK VINA RESULT:      -8.6      0.895      1.494
REMARK  Name = 
REMARK  8 active torsions:
REMARK  status: ('A' for Active; 'I' for Inactive)
REMARK    1  A    between atoms: C_1  and  C_2
REMARK    2  A    between atoms: C_2  and  C_3
REMARK    3  A    between atoms: C_3  and  O_4
REMARK    4  A    between atoms: O_4  and  C_5
REMARK    5  A    between atoms: C_5  and  C_7
REMARK    6  A    between atoms: C_7  and  C_8
REMARK    7  A    between atoms: C_14  and  C_15
REMARK    8  A    between atoms: C_22  and  C_23
REMARK                            x       y       z     vdW  Elec       q    Type
REMARK                         _______ _______ _______ _____ _____    ______ ____
ROOT
ATOM      1  C   UNL     1       3.172   4.078  16.522  0.00  0.00    +0.000 C 
ATOM      2  C   UNL     1       3.998   4.013  17.816  0.00  0.00    +0.000 C 
ATOM      3  C   UNL     1       3.208   3.371  18.979  0.00  0.00    +0.000 C 
ATOM      4  N   UNL     1       2.209   4.378  19.433  0.00  0.00    +0.000 N 
ATOM      5  C   UNL     1       2.195   4.821  20.725  0.00  0.00    +0.000 C 
ATOM      6  O   UNL     1       2.573   4.310  21.767  0.00  0.00    +0.000 OA
ATOM      7  C   UNL     1       1.947   6.189  20.298  0.00  0.00    +0.000 C 
ATOM      8  C   UNL     1       1.498   7.339  20.815  0.00  0.00    +0.000 C 
ATOM      9  C   UNL     1       2.408   5.769  18.934  0.00  0.00    +0.000 C 
ATOM     10  S   UNL     1       4.187   5.661  18.569  0.00  0.00    +0.000 S 
ATOM     11  O   UNL     1       4.977   5.456  19.781  0.00  0.00    +0.000 OA
ATOM     12  O   UNL     1       4.613   6.616  17.561  0.00  0.00    +0.000 OA
ENDROOT
BRANCH   8  13
ATOM     13  C   UNL     1       1.348   8.581  20.034  0.00  0.00    +0.000 A 
ATOM     14  C   UNL     1       1.829   8.694  18.736  0.00  0.00    +0.000 A 
ATOM     15  C   UNL     1       1.675   9.909  18.066  0.00  0.00    +0.000 A 
ATOM     16  C   UNL     1       1.048  10.971  18.706  0.00  0.00    +0.000 A 
ATOM     17  C   UNL     1       0.589  10.772  19.995  0.00  0.00    +0.000 A 
ATOM     18  N   UNL     1       0.721   9.605  20.664  0.00  0.00    +0.000 NA
ENDBRANCH   8  13
BRANCH   3  19
ATOM     19  C   UNL     1       2.755   1.946  18.718  0.00  0.00    +0.000 C 
ATOM     20  O   UNL     1       1.493   1.859  18.720  0.00  0.00    +0.000 OA
ATOM     21  O   UNL     1       3.655   1.089  18.565  0.00  0.00    +0.000 OA
ENDBRANCH   3  19
BRANCH   2  22
ATOM     22  C   UNL     1       5.383   3.418  17.541  0.00  0.00    +0.000 C 
BRANCH  22  23
ATOM     23  O   UNL     1       5.676   3.450  16.123  0.00  0.00    +0.000 OA
BRANCH  23  24
ATOM     24  C   UNL     1       6.654   4.313  15.709  0.00  0.00    +0.000 C 
ATOM     25  O   UNL     1       7.767   4.385  16.217  0.00  0.00    +0.000 OA
BRANCH  24  26
ATOM     26  C   UNL     1       6.206   5.124  14.502  0.00  0.00    +0.000 C 
BRANCH  26  27
ATOM     27  C   UNL     1       6.114   4.251  13.277  0.00  0.00    +0.000 A 
ATOM     28  C   UNL     1       4.871   3.763  12.855  0.00  0.00    +0.000 A 
ATOM     29  C   UNL     1       4.800   2.783  11.865  0.00  0.00    +0.000 A 
ATOM     30  C   UNL     1       5.968   2.298  11.278  0.00  0.00    +0.000 A 
ATOM     31  C   UNL     1       7.204   2.824  11.647  0.00  0.00    +0.000 A 
ATOM     32  C   UNL     1       7.278   3.804  12.638  0.00  0.00    +0.000 A 
ENDBRANCH  26  27
ENDBRANCH  24  26
ENDBRANCH  23  24
ENDBRANCH  22  23
ENDBRANCH   2  22
TORSDOF 7
ENDMDL
MODEL 3
REMARK VINA RESULT:      -8.5      0.533      1.029
REMARK  Name = 
REMARK  8 active torsions:
REMARK  status: ('A' for Active; 'I' for Inactive)
REMARK    1  A    between atoms: C_1  and  C_2
REMARK    2  A    between atoms: C_2  and  C_3
REMARK    3  A    between atoms: C_3  and  O_4
REMARK    4  A    between atoms: O_4  and  C_5
REMARK    5  A    between atoms: C_5  and  C_7
REMARK    6  A    between atoms: C_7  and  C_8
REMARK    7  A    between atoms: C_14  and  C_15
REMARK    8  A    between atoms: C_22  and  C_23
REMARK                            x       y       z     vdW  Elec       q    Type
REMARK                         _______ _______ _______ _____ _____    ______ ____
ROOT
ATOM      1  C   UNL     1       2.850   4.194  16.625  0.00  0.00    +0.000 C 
ATOM      2  C   UNL     1       3.710   4.090  17.894  0.00  0.00    +0.000 C 
ATOM      3  C   UNL     1       2.938   3.442  19.067  0.00  0.00    +0.000 C 
ATOM      4  N   UNL     1       1.973   4.460  19.566  0.00  0.00    +0.000 N 
ATOM      5  C   UNL     1       2.003   4.879  20.866  0.00  0.00    +0.000 C 
ATOM      6  O   UNL     1       2.398   4.342  21.887  0.00  0.00    +0.000 OA
ATOM      7  C   UNL     1       1.771   6.260  20.470  0.00  0.00    +0.000 C 
ATOM      8  C   UNL     1       1.360   7.409  21.019  0.00  0.00    +0.000 C 
ATOM      9  C   UNL     1       2.186   5.855  19.086  0.00  0.00    +0.000 C 
ATOM     10  S   UNL     1       3.953   5.719  18.671  0.00  0.00    +0.000 S 
ATOM     11  O   UNL     1       4.771   5.477  19.857  0.00  0.00    +0.000 OA
ATOM     12  O   UNL     1       4.371   6.683  17.669  0.00  0.00    +0.000 OA
ENDROOT
BRANCH   8  13
ATOM     13  C   UNL     1       1.215   8.668  20.265  0.00  0.00    +0.000 A 
ATOM     14  C   UNL     1       1.621   8.781  18.942  0.00  0.00    +0.000 A 
ATOM     15  C   UNL     1       1.477  10.012  18.298  0.00  0.00    +0.000 A 
ATOM     16  C   UNL     1       0.934  11.088  18.989  0.00  0.00    +0.000 A 
ATOM     17  C   UNL     1       0.544  10.888  20.300  0.00  0.00    +0.000 A 
ATOM     18  N   UNL     1       0.669   9.706  20.945  0.00  0.00    +0.000 NA
ENDBRANCH   8  13
BRANCH   3  19
ATOM     19  C   UNL     1       2.450   2.032  18.793  0.00  0.00    +0.000 C 
ATOM     20  O   UNL     1       3.418   1.221  18.702  0.00  0.00    +0.000 OA
ATOM     21  O   UNL     1       1.212   1.877  18.677  0.00  0.00    +0.000 OA
ENDBRANCH   3  19
BRANCH   2  22
ATOM     22  C   UNL     1       5.074   3.472  17.571  0.00  0.00    +0.000 C 
BRANCH  22  23
ATOM     23  O   UNL     1       6.139   4.404  17.880  0.00  0.00    +0.000 OA
BRANCH  23  24
ATOM     24  C   UNL     1       7.072   4.628  16.904  0.00  0.00    +0.000 C 
ATOM     25  O   UNL     1       8.201   4.153  16.911  0.00  0.00    +0.000 OA
BRANCH  24  26
ATOM     26  C   UNL     1       6.509   5.491  15.784  0.00  0.00    +0.000 C 
BRANCH  26  27
ATOM     27  C   UNL     1       6.727   4.835  14.445  0.00  0.00    +0.000 A 
ATOM     28  C   UNL     1       7.694   5.340  13.566  0.00  0.00    +0.000 A 
ATOM     29  C   UNL     1       7.751   4.886  12.249  0.00  0.00    +0.000 A 
ATOM     30  C   UNL     1       6.855   3.913  11.805  0.00  0.00    +0.000 A 
ATOM     31  C   UNL     1       5.933   3.360  12.691  0.00  0.00    +0.000 A 
ATOM     32  C   UNL     1       5.873   3.814  14.009  0.00  0.00    +0.000 A 
ENDBRANCH  26  27
ENDBRANCH  24  26
ENDBRANCH  23  24
ENDBRANCH  22  23
ENDBRANCH   2  22
TORSDOF 7
ENDMDL
MODEL 4
REMARK VINA RESULT:      -8.4      0.827      1.067
REMARK  Name = 
REMARK  8 active torsions:
REMARK  status: ('A' for Active; 'I' for Inactive)
REMARK    1  A    between atoms: C_1  and  C_2
REMARK    2  A    between atoms: C_2  and  C_3
REMARK    3  A    between atoms: C_3  and  O_4
REMARK    4  A    between atoms: O_4  and  C_5
REMARK    5  A    between atoms: C_5  and  C_7
REMARK    6  A    between atoms: C_7  and  C_8
REMARK    7  A    between atoms: C_14  and  C_15
REMARK    8  A    between atoms: C_22  and  C_23
REMARK                            x       y       z     vdW  Elec       q    Type
REMARK                         _______ _______ _______ _____ _____    ______ ____
ROOT
ATOM      1  C   UNL     1       3.268   4.217  16.468  0.00  0.00    +0.000 C 
ATOM      2  C   UNL     1       4.068   4.109  17.775  0.00  0.00    +0.000 C 
ATOM      3  C   UNL     1       3.257   3.423  18.898  0.00  0.00    +0.000 C 
ATOM      4  N   UNL     1       2.245   4.408  19.368  0.00  0.00    +0.000 N 
ATOM      5  C   UNL     1       2.203   4.805  20.675  0.00  0.00    +0.000 C 
ATOM      6  O   UNL     1       2.561   4.258  21.704  0.00  0.00    +0.000 OA
ATOM      7  C   UNL     1       1.956   6.187  20.291  0.00  0.00    +0.000 C 
ATOM      8  C   UNL     1       1.492   7.316  20.840  0.00  0.00    +0.000 C 
ATOM      9  C   UNL     1       2.447   5.817  18.923  0.00  0.00    +0.000 C 
ATOM     10  S   UNL     1       4.234   5.729  18.591  0.00  0.00    +0.000 S 
ATOM     11  O   UNL     1       5.000   5.485  19.810  0.00  0.00    +0.000 OA
ATOM     12  O   UNL     1       4.676   6.722  17.626  0.00  0.00    +0.000 OA
ENDROOT
BRANCH   8  13
ATOM     13  C   UNL     1       1.353   8.584  20.101  0.00  0.00    +0.000 A 
ATOM     14  C   UNL     1       0.722   9.690  20.654  0.00  0.00    +0.000 A 
ATOM     15  C   UNL     1       0.603  10.851  19.886  0.00  0.00    +0.000 A 
ATOM     16  C   UNL     1       1.115  10.873  18.594  0.00  0.00    +0.000 A 
ATOM     17  C   UNL     1       1.737   9.733  18.122  0.00  0.00    +0.000 A 
ATOM     18  N   UNL     1       1.869   8.599  18.847  0.00  0.00    +0.000 NA
ENDBRANCH   8  13
BRANCH   3  19
ATOM     19  C   UNL     1       2.817   2.007  18.577  0.00  0.00    +0.000 C 
ATOM     20  O   UNL     1       1.572   1.953  18.354  0.00  0.00    +0.000 OA
ATOM     21  O   UNL     1       3.703   1.122  18.599  0.00  0.00    +0.000 OA
ENDBRANCH   3  19
BRANCH   2  22
ATOM     22  C   UNL     1       5.460   3.530  17.508  0.00  0.00    +0.000 C 
BRANCH  22  23
ATOM     23  O   UNL     1       5.780   3.608  16.097  0.00  0.00    +0.000 OA
BRANCH  23  24
ATOM     24  C   UNL     1       6.855   4.377  15.744  0.00  0.00    +0.000 C 
ATOM     25  O   UNL     1       7.879   4.475  16.411  0.00  0.00    +0.000 OA
BRANCH  24  26
ATOM     26  C   UNL     1       6.643   5.044  14.393  0.00  0.00    +0.000 C 
BRANCH  26  27
ATOM     27  C   UNL     1       6.200   4.036  13.364  0.00  0.00    +0.000 A 
ATOM     28  C   UNL     1       7.152   3.281  12.667  0.00  0.00    +0.000 A 
ATOM     29  C   UNL     1       6.772   2.514  11.566  0.00  0.00    +0.000 A 
ATOM     30  C   UNL     1       5.437   2.482  11.165  0.00  0.00    +0.000 A 
ATOM     31  C   UNL     1       4.474   3.178  11.892  0.00  0.00    +0.000 A 
ATOM     32  C   UNL     1       4.852   3.947  12.994  0.00  0.00    +0.000 A 
ENDBRANCH  26  27
ENDBRANCH  24  26
ENDBRANCH  23  24
ENDBRANCH  22  23
ENDBRANCH   2  22
TORSDOF 7
ENDMDL
MODEL 5
REMARK VINA RESULT:      -8.2      1.503      2.705
REMARK  Name = 
REMARK  8 active torsions:
REMARK  status: ('A' for Active; 'I' for Inactive)
REMARK    1  A    between atoms: C_1  and  C_2
REMARK    2  A    between atoms: C_2  and  C_3
REMARK    3  A    between atoms: C_3  and  O_4
REMARK    4  A    between atoms: O_4  and  C_5
REMARK    5  A    between atoms: C_5  and  C_7
REMARK    6  A    between atoms: C_7  and  C_8
REMARK    7  A    between atoms: C_14  and  C_15
REMARK    8  A    between atoms: C_22  and  C_23
REMARK                            x       y       z     vdW  Elec       q    Type
REMARK                         _______ _______ _______ _____ _____    ______ ____
ROOT
ATOM      1  C   UNL     1       2.269   4.125  16.673  0.00  0.00    +0.000 C 
ATOM      2  C   UNL     1       3.309   4.104  17.804  0.00  0.00    +0.000 C 
ATOM      3  C   UNL     1       2.752   3.461  19.095  0.00  0.00    +0.000 C 
ATOM      4  N   UNL     1       1.819   4.447  19.704  0.00  0.00    +0.000 N 
ATOM      5  C   UNL     1       2.017   4.911  20.974  0.00  0.00    +0.000 C 
ATOM      6  O   UNL     1       2.584   4.428  21.939  0.00  0.00    +0.000 OA
ATOM      7  C   UNL     1       1.658   6.266  20.580  0.00  0.00    +0.000 C 
ATOM      8  C   UNL     1       1.272   7.411  21.153  0.00  0.00    +0.000 C 
ATOM      9  C   UNL     1       1.887   5.835  19.161  0.00  0.00    +0.000 C 
ATOM     10  S   UNL     1       3.578   5.768  18.493  0.00  0.00    +0.000 S 
ATOM     11  O   UNL     1       4.573   5.605  19.551  0.00  0.00    +0.000 OA
ATOM     12  O   UNL     1       3.794   6.717  17.415  0.00  0.00    +0.000 OA
ENDROOT
BRANCH   8  13
ATOM     13  C   UNL     1       0.953   8.635  20.395  0.00  0.00    +0.000 A 
ATOM     14  C   UNL     1      -0.048   9.509  20.800  0.00  0.00    +0.000 A 
ATOM     15  C   UNL     1      -0.313  10.635  20.018  0.00  0.00    +0.000 A 
ATOM     16  C   UNL     1       0.425  10.857  18.862  0.00  0.00    +0.000 A 
ATOM     17  C   UNL     1       1.410   9.945  18.536  0.00  0.00    +0.000 A 
ATOM     18  N   UNL     1       1.690   8.849  19.277  0.00  0.00    +0.000 NA
ENDBRANCH   8  13
BRANCH   3  19
ATOM     19  C   UNL     1       2.303   2.020  18.933  0.00  0.00    +0.000 C 
ATOM     20  O   UNL     1       3.295   1.238  18.845  0.00  0.00    +0.000 OA
ATOM     21  O   UNL     1       1.068   1.817  18.889  0.00  0.00    +0.000 OA
ENDBRANCH   3  19
BRANCH   2  22
ATOM     22  C   UNL     1       4.642   3.542  17.299  0.00  0.00    +0.000 C 
BRANCH  22  23
ATOM     23  O   UNL     1       4.727   3.656  15.858  0.00  0.00    +0.000 OA
BRANCH  23  24
ATOM     24  C   UNL     1       5.713   4.461  15.355  0.00  0.00    +0.000 C 
ATOM     25  O   UNL     1       5.539   5.288  14.467  0.00  0.00    +0.000 OA
BRANCH  24  26
ATOM     26  C   UNL     1       7.034   4.241  16.077  0.00  0.00    +0.000 C 
BRANCH  26  27
ATOM     27  C   UNL     1       7.287   5.343  17.073  0.00  0.00    +0.000 A 
ATOM     28  C   UNL     1       7.219   6.683  16.669  0.00  0.00    +0.000 A 
ATOM     29  C   UNL     1       7.665   7.696  17.517  0.00  0.00    +0.000 A 
ATOM     30  C   UNL     1       8.166   7.380  18.780  0.00  0.00    +0.000 A 
ATOM     31  C   UNL     1       8.178   6.056  19.213  0.00  0.00    +0.000 A 
ATOM     32  C   UNL     1       7.733   5.040  18.366  0.00  0.00    +0.000 A 
ENDBRANCH  26  27
ENDBRANCH  24  26
ENDBRANCH  23  24
ENDBRANCH  22  23
ENDBRANCH   2  22
TORSDOF 7
ENDMDL
MODEL 6
REMARK VINA RESULT:      -8.1      1.612      2.917
REMARK  Name = 
REMARK  8 active torsions:
REMARK  status: ('A' for Active; 'I' for Inactive)
REMARK    1  A    between atoms: C_1  and  C_2
REMARK    2  A    between atoms: C_2  and  C_3
REMARK    3  A    between atoms: C_3  and  O_4
REMARK    4  A    between atoms: O_4  and  C_5
REMARK    5  A    between atoms: C_5  and  C_7
REMARK    6  A    between atoms: C_7  and  C_8
REMARK    7  A    between atoms: C_14  and  C_15
REMARK    8  A    between atoms: C_22  and  C_23
REMARK                            x       y       z     vdW  Elec       q    Type
REMARK                         _______ _______ _______ _____ _____    ______ ____
ROOT
ATOM      1  C   UNL     1       2.546   4.036  16.616  0.00  0.00    +0.000 C 
ATOM      2  C   UNL     1       3.530   4.034  17.797  0.00  0.00    +0.000 C 
ATOM      3  C   UNL     1       2.919   3.388  19.062  0.00  0.00    +0.000 C 
ATOM      4  N   UNL     1       1.944   4.365  19.620  0.00  0.00    +0.000 N 
ATOM      5  C   UNL     1       2.073   4.836  20.896  0.00  0.00    +0.000 C 
ATOM      6  O   UNL     1       2.599   4.365  21.890  0.00  0.00    +0.000 OA
ATOM      7  C   UNL     1       1.715   6.184  20.479  0.00  0.00    +0.000 C 
ATOM      8  C   UNL     1       1.286   7.326  21.027  0.00  0.00    +0.000 C 
ATOM      9  C   UNL     1       2.019   5.750  19.075  0.00  0.00    +0.000 C 
ATOM     10  S   UNL     1       3.742   5.705  18.491  0.00  0.00    +0.000 S 
ATOM     11  O   UNL     1       4.686   5.560  19.597  0.00  0.00    +0.000 OA
ATOM     12  O   UNL     1       3.997   6.653  17.420  0.00  0.00    +0.000 OA
ENDROOT
BRANCH   8  13
ATOM     13  C   UNL     1       0.988   8.543  20.249  0.00  0.00    +0.000 A 
ATOM     14  C   UNL     1       1.710   8.883  19.113  0.00  0.00    +0.000 A 
ATOM     15  C   UNL     1       1.389  10.064  18.441  0.00  0.00    +0.000 A 
ATOM     16  C   UNL     1       0.360  10.867  18.919  0.00  0.00    +0.000 A 
ATOM     17  C   UNL     1      -0.317  10.451  20.050  0.00  0.00    +0.000 A 
ATOM     18  N   UNL     1      -0.028   9.310  20.717  0.00  0.00    +0.000 NA
ENDBRANCH   8  13
BRANCH   3  19
ATOM     19  C   UNL     1       2.498   1.941  18.885  0.00  0.00    +0.000 C 
ATOM     20  O   UNL     1       1.244   1.812  18.996  0.00  0.00    +0.000 OA
ATOM     21  O   UNL     1       3.413   1.109  18.685  0.00  0.00    +0.000 OA
ENDBRANCH   3  19
BRANCH   2  22
ATOM     22  C   UNL     1       4.893   3.489  17.360  0.00  0.00    +0.000 C 
BRANCH  22  23
ATOM     23  O   UNL     1       5.391   4.224  16.216  0.00  0.00    +0.000 OA
BRANCH  23  24
ATOM     24  C   UNL     1       6.742   4.439  16.155  0.00  0.00    +0.000 C 
ATOM     25  O   UNL     1       7.374   4.542  15.110  0.00  0.00    +0.000 OA
BRANCH  24  26
ATOM     26  C   UNL     1       7.344   4.593  17.543  0.00  0.00    +0.000 C 
BRANCH  26  27
ATOM     27  C   UNL     1       7.551   6.048  17.875  0.00  0.00    +0.000 A 
ATOM     28  C   UNL     1       7.203   7.037  16.946  0.00  0.00    +0.000 A 
ATOM     29  C   UNL     1       7.592   8.361  17.149  0.00  0.00    +0.000 A 
ATOM     30  C   UNL     1       8.317   8.709  18.288  0.00  0.00    +0.000 A 
ATOM     31  C   UNL     1       8.612   7.743  19.249  0.00  0.00    +0.000 A 
ATOM     32  C   UNL     1       8.224   6.418  19.047  0.00  0.00    +0.000 A 
ENDBRANCH  26  27
ENDBRANCH  24  26
ENDBRANCH  23  24
ENDBRANCH  22  23
ENDBRANCH   2  22
TORSDOF 7
ENDMDL
MODEL 7
REMARK VINA RESULT:      -8.0      1.470      2.643
REMARK  Name = 
REMARK  8 active torsions:
REMARK  status: ('A' for Active; 'I' for Inactive)
REMARK    1  A    between atoms: C_1  and  C_2
REMARK    2  A    between atoms: C_2  and  C_3
REMARK    3  A    between atoms: C_3  and  O_4
REMARK    4  A    between atoms: O_4  and  C_5
REMARK    5  A    between atoms: C_5  and  C_7
REMARK    6  A    between atoms: C_7  and  C_8
REMARK    7  A    between atoms: C_14  and  C_15
REMARK    8  A    between atoms: C_22  and  C_23
REMARK                            x       y       z     vdW  Elec       q    Type
REMARK                         _______ _______ _______ _____ _____    ______ ____
ROOT
ATOM      1  C   UNL     1       2.296   4.084  16.665  0.00  0.00    +0.000 C 
ATOM      2  C   UNL     1       3.324   4.045  17.806  0.00  0.00    +0.000 C 
ATOM      3  C   UNL     1       2.741   3.420  19.094  0.00  0.00    +0.000 C 
ATOM      4  N   UNL     1       1.824   4.429  19.690  0.00  0.00    +0.000 N 
ATOM      5  C   UNL     1       2.020   4.894  20.960  0.00  0.00    +0.000 C 
ATOM      6  O   UNL     1       2.567   4.403  21.932  0.00  0.00    +0.000 OA
ATOM      7  C   UNL     1       1.694   6.254  20.557  0.00  0.00    +0.000 C 
ATOM      8  C   UNL     1       1.328   7.410  21.122  0.00  0.00    +0.000 C 
ATOM      9  C   UNL     1       1.927   5.812  19.143  0.00  0.00    +0.000 C 
ATOM     10  S   UNL     1       3.623   5.706  18.491  0.00  0.00    +0.000 S 
ATOM     11  O   UNL     1       4.604   5.526  19.559  0.00  0.00    +0.000 OA
ATOM     12  O   UNL     1       3.871   6.646  17.411  0.00  0.00    +0.000 OA
ENDROOT
BRANCH   8  13
ATOM     13  C   UNL     1       1.043   8.638  20.356  0.00  0.00    +0.000 A 
ATOM     14  C   UNL     1       0.132   9.586  20.803  0.00  0.00    +0.000 A 
ATOM     15  C   UNL     1      -0.108  10.712  20.012  0.00  0.00    +0.000 A 
ATOM     16  C   UNL     1       0.567  10.860  18.806  0.00  0.00    +0.000 A 
ATOM     17  C   UNL     1       1.466   9.876  18.440  0.00  0.00    +0.000 A 
ATOM     18  N   UNL     1       1.719   8.778  19.189  0.00  0.00    +0.000 NA
ENDBRANCH   8  13
BRANCH   3  19
ATOM     19  C   UNL     1       2.262   1.989  18.933  0.00  0.00    +0.000 C 
ATOM     20  O   UNL     1       0.999   1.921  18.972  0.00  0.00    +0.000 OA
ATOM     21  O   UNL     1       3.146   1.109  18.813  0.00  0.00    +0.000 OA
ENDBRANCH   3  19
BRANCH   2  22
ATOM     22  C   UNL     1       4.649   3.452  17.316  0.00  0.00    +0.000 C 
BRANCH  22  23
ATOM     23  O   UNL     1       4.726   3.505  15.871  0.00  0.00    +0.000 OA
BRANCH  23  24
ATOM     24  C   UNL     1       5.563   4.439  15.326  0.00  0.00    +0.000 C 
ATOM     25  O   UNL     1       5.186   5.393  14.654  0.00  0.00    +0.000 OA
BRANCH  24  26
ATOM     26  C   UNL     1       7.012   4.179  15.709  0.00  0.00    +0.000 C 
BRANCH  26  27
ATOM     27  C   UNL     1       7.463   5.143  16.776  0.00  0.00    +0.000 A 
ATOM     28  C   UNL     1       7.860   4.666  18.031  0.00  0.00    +0.000 A 
ATOM     29  C   UNL     1       8.064   5.552  19.088  0.00  0.00    +0.000 A 
ATOM     30  C   UNL     1       7.890   6.922  18.894  0.00  0.00    +0.000 A 
ATOM     31  C   UNL     1       7.558   7.410  17.632  0.00  0.00    +0.000 A 
ATOM     32  C   UNL     1       7.353   6.525  16.573  0.00  0.00    +0.000 A 
ENDBRANCH  26  27
ENDBRANCH  24  26
ENDBRANCH  23  24
ENDBRANCH  22  23
ENDBRANCH   2  22
TORSDOF 7
ENDMDL
MODEL 8
REMARK VINA RESULT:      -7.8      1.508      2.817
REMARK  Name = 
REMARK  8 active torsions:
REMARK  status: ('A' for Active; 'I' for Inactive)
REMARK    1  A    between atoms: C_1  and  C_2
REMARK    2  A    between atoms: C_2  and  C_3
REMARK    3  A    between atoms: C_3  and  O_4
REMARK    4  A    between atoms: O_4  and  C_5
REMARK    5  A    between atoms: C_5  and  C_7
REMARK    6  A    between atoms: C_7  and  C_8
REMARK    7  A    between atoms: C_14  and  C_15
REMARK    8  A    between atoms: C_22  and  C_23
REMARK                            x       y       z     vdW  Elec       q    Type
REMARK                         _______ _______ _______ _____ _____    ______ ____
ROOT
ATOM      1  C   UNL     1       2.005   4.218  16.661  0.00  0.00    +0.000 C 
ATOM      2  C   UNL     1       3.111   4.153  17.727  0.00  0.00    +0.000 C 
ATOM      3  C   UNL     1       2.625   3.475  19.028  0.00  0.00    +0.000 C 
ATOM      4  N   UNL     1       1.740   4.450  19.722  0.00  0.00    +0.000 N 
ATOM      5  C   UNL     1       2.017   4.873  20.991  0.00  0.00    +0.000 C 
ATOM      6  O   UNL     1       2.636   4.355  21.906  0.00  0.00    +0.000 OA
ATOM      7  C   UNL     1       1.649   6.241  20.660  0.00  0.00    +0.000 C 
ATOM      8  C   UNL     1       1.310   7.372  21.290  0.00  0.00    +0.000 C 
ATOM      9  C   UNL     1       1.789   5.853  19.218  0.00  0.00    +0.000 C 
ATOM     10  S   UNL     1       3.437   5.793  18.449  0.00  0.00    +0.000 S 
ATOM     11  O   UNL     1       4.491   5.589  19.440  0.00  0.00    +0.000 OA
ATOM     12  O   UNL     1       3.599   6.773  17.389  0.00  0.00    +0.000 OA
ENDROOT
BRANCH   8  13
ATOM     13  C   UNL     1       0.959   8.622  20.591  0.00  0.00    +0.000 A 
ATOM     14  C   UNL     1       1.496   8.945  19.352  0.00  0.00    +0.000 A 
ATOM     15  C   UNL     1       1.139  10.158  18.760  0.00  0.00    +0.000 A 
ATOM     16  C   UNL     1       0.258  11.009  19.418  0.00  0.00    +0.000 A 
ATOM     17  C   UNL     1      -0.240  10.607  20.643  0.00  0.00    +0.000 A 
ATOM     18  N   UNL     1       0.087   9.437  21.235  0.00  0.00    +0.000 NA
ENDBRANCH   8  13
BRANCH   3  19
ATOM     19  C   UNL     1       2.152   2.044  18.850  0.00  0.00    +0.000 C 
ATOM     20  O   UNL     1       3.131   1.248  18.741  0.00  0.00    +0.000 OA
ATOM     21  O   UNL     1       0.914   1.860  18.814  0.00  0.00    +0.000 OA
ENDBRANCH   3  19
BRANCH   2  22
ATOM     22  C   UNL     1       4.405   3.595  17.126  0.00  0.00    +0.000 C 
BRANCH  22  23
ATOM     23  O   UNL     1       4.489   3.914  15.716  0.00  0.00    +0.000 OA
BRANCH  23  24
ATOM     24  C   UNL     1       5.732   4.183  15.211  0.00  0.00    +0.000 C 
ATOM     25  O   UNL     1       6.434   3.360  14.636  0.00  0.00    +0.000 OA
BRANCH  24  26
ATOM     26  C   UNL     1       6.104   5.646  15.401  0.00  0.00    +0.000 C 
BRANCH  26  27
ATOM     27  C   UNL     1       6.962   5.824  16.626  0.00  0.00    +0.000 A 
ATOM     28  C   UNL     1       7.364   4.707  17.370  0.00  0.00    +0.000 A 
ATOM     29  C   UNL     1       7.964   4.872  18.618  0.00  0.00    +0.000 A 
ATOM     30  C   UNL     1       8.183   6.153  19.124  0.00  0.00    +0.000 A 
ATOM     31  C   UNL     1       7.845   7.270  18.362  0.00  0.00    +0.000 A 
ATOM     32  C   UNL     1       7.243   7.107  17.114  0.00  0.00    +0.000 A 
ENDBRANCH  26  27
ENDBRANCH  24  26
ENDBRANCH  23  24
ENDBRANCH  22  23
ENDBRANCH   2  22
TORSDOF 7
ENDMDL
MODEL 9
REMARK VINA RESULT:      -7.7      5.009      8.334
REMARK  Name = 
REMARK  8 active torsions:
REMARK  status: ('A' for Active; 'I' for Inactive)
REMARK    1  A    between atoms: C_1  and  C_2
REMARK    2  A    between atoms: C_2  and  C_3
REMARK    3  A    between atoms: C_3  and  O_4
REMARK    4  A    between atoms: O_4  and  C_5
REMARK    5  A    between atoms: C_5  and  C_7
REMARK    6  A    between atoms: C_7  and  C_8
REMARK    7  A    between atoms: C_14  and  C_15
REMARK    8  A    between atoms: C_22  and  C_23
REMARK                            x       y       z     vdW  Elec       q    Type
REMARK                         _______ _______ _______ _____ _____    ______ ____
ROOT
ATOM      1  C   UNL     1      -0.406   9.330  20.623  0.00  0.00    +0.000 C 
ATOM      2  C   UNL     1      -0.165  10.427  19.574  0.00  0.00    +0.000 C 
ATOM      3  C   UNL     1       0.139  11.797  20.225  0.00  0.00    +0.000 C 
ATOM      4  N   UNL     1      -1.148  12.318  20.762  0.00  0.00    +0.000 N 
ATOM      5  C   UNL     1      -1.645  13.521  20.352  0.00  0.00    +0.000 C 
ATOM      6  O   UNL     1      -1.103  14.519  19.907  0.00  0.00    +0.000 OA
ATOM      7  C   UNL     1      -2.999  12.989  20.291  0.00  0.00    +0.000 C 
ATOM      8  C   UNL     1      -4.257  13.441  20.262  0.00  0.00    +0.000 C 
ATOM      9  C   UNL     1      -2.381  11.622  20.296  0.00  0.00    +0.000 C 
ATOM     10  S   UNL     1      -1.715  10.919  18.755  0.00  0.00    +0.000 S 
ATOM     11  O   UNL     1      -1.348  11.961  17.799  0.00  0.00    +0.000 OA
ATOM     12  O   UNL     1      -2.437   9.736  18.319  0.00  0.00    +0.000 OA
ENDROOT
BRANCH   8  13
ATOM     13  C   UNL     1      -5.440  12.561  20.227  0.00  0.00    +0.000 A 
ATOM     14  C   UNL     1      -5.877  11.966  19.051  0.00  0.00    +0.000 A 
ATOM     15  C   UNL     1      -7.020  11.165  19.088  0.00  0.00    +0.000 A 
ATOM     16  C   UNL     1      -7.690  10.981  20.291  0.00  0.00    +0.000 A 
ATOM     17  C   UNL     1      -7.183  11.599  21.418  0.00  0.00    +0.000 A 
ATOM     18  N   UNL     1      -6.076  12.376  21.410  0.00  0.00    +0.000 NA
ENDBRANCH   8  13
BRANCH   3  19
ATOM     19  C   UNL     1       1.370  11.809  21.112  0.00  0.00    +0.000 C 
ATOM     20  O   UNL     1       1.992  12.907  21.018  0.00  0.00    +0.000 OA
ATOM     21  O   UNL     1       1.602  10.768  21.769  0.00  0.00    +0.000 OA
ENDBRANCH   3  19
BRANCH   2  22
ATOM     22  C   UNL     1       0.839   9.952  18.519  0.00  0.00    +0.000 C 
BRANCH  22  23
ATOM     23  O   UNL     1       1.522   8.757  18.970  0.00  0.00    +0.000 OA
BRANCH  23  24
ATOM     24  C   UNL     1       2.422   8.192  18.108  0.00  0.00    +0.000 C 
ATOM     25  O   UNL     1       2.607   8.575  16.959  0.00  0.00    +0.000 OA
BRANCH  24  26
ATOM     26  C   UNL     1       3.203   7.070  18.776  0.00  0.00    +0.000 C 
BRANCH  26  27
ATOM     27  C   UNL     1       2.319   5.873  19.013  0.00  0.00    +0.000 A 
ATOM     28  C   UNL     1       1.908   5.549  20.312  0.00  0.00    +0.000 A 
ATOM     29  C   UNL     1       1.282   4.330  20.569  0.00  0.00    +0.000 A 
ATOM     30  C   UNL     1       1.047   3.433  19.528  0.00  0.00    +0.000 A 
ATOM     31  C   UNL     1       1.394   3.775  18.222  0.00  0.00    +0.000 A 
ATOM     32  C   UNL     1       2.022   4.993  17.963  0.00  0.00    +0.000 A 
ENDBRANCH  26  27
ENDBRANCH  24  26
ENDBRANCH  23  24
ENDBRANCH  22  23
ENDBRANCH   2  22
TORSDOF 7
ENDMDL
