MODEL 1
REMARK VINA RESULT:      -7.8      0.000      0.000
REMARK  Name = 
REMARK  16 active torsions:
REMARK  status: ('A' for Active; 'I' for Inactive)
REMARK    1  A    between atoms: C_1  and  C_2
REMARK    2  A    between atoms: C_2  and  C_3
REMARK    3  A    between atoms: C_2  and  C_4
REMARK    4  A    between atoms: C_8  and  C_9
REMARK    5  A    between atoms: C_9  and  C_10
REMARK    6  A    between atoms: C_9  and  C_11
REMARK    7  A    between atoms: C_12  and  N_13
REMARK    8  A    between atoms: C_14  and  C_16
REMARK    9  A    between atoms: C_16  and  C_17
REMARK   10  A    between atoms: C_17  and  C_18
REMARK   11  A    between atoms: C_18  and  C_19
REMARK   12  A    between atoms: C_19  and  C_20
REMARK   13  A    between atoms: C_20  and  S_21
REMARK   14  A    between atoms: S_21  and  C_22
REMARK   15  A    between atoms: C_28  and  C_29
REMARK   16  A    between atoms: C_29  and  O_30
REMARK                            x       y       z     vdW  Elec       q    Type
REMARK                         _______ _______ _______ _____ _____    ______ ____
ROOT
ATOM      1  C   UNL     1       2.151   8.526  17.626  0.00  0.00    +0.000 C 
ENDROOT
BRANCH   1   3
ATOM      2  N   UNL     1       0.556  10.317  17.938  0.00  0.00    +0.000 N 
ATOM      3  C   UNL     1       1.246   9.298  18.589  0.00  0.00    +0.000 C 
ATOM      4  O   UNL     1       1.179   9.037  19.786  0.00  0.00    +0.000 OA
ATOM      5  H   UNL     1       0.977  10.629  17.081  0.00  0.00    +0.000 HD
BRANCH   2  11
ATOM      6  C   UNL     1      -1.735  11.047  18.460  0.00  0.00    +0.000 A 
ATOM      7  C   UNL     1      -2.589  11.985  19.086  0.00  0.00    +0.000 A 
ATOM      8  C   UNL     1      -2.099  13.052  19.813  0.00  0.00    +0.000 A 
ATOM      9  C   UNL     1      -0.728  13.231  19.901  0.00  0.00    +0.000 A 
ATOM     10  C   UNL     1       0.186  12.354  19.266  0.00  0.00    +0.000 A 
ATOM     11  C   UNL     1      -0.329  11.219  18.576  0.00  0.00    +0.000 A 
BRANCH   6  13
ATOM     12  C   UNL     1      -3.841   9.683  18.074  0.00  0.00    +0.000 C 
ATOM     13  C   UNL     1      -2.410   9.971  17.600  0.00  0.00    +0.000 C 
ATOM     14  C   UNL     1      -2.357  10.355  16.110  0.00  0.00    +0.000 C 
ENDBRANCH   6  13
BRANCH  10  15
ATOM     15  C   UNL     1       1.651  12.712  19.526  0.00  0.00    +0.000 C 
ATOM     16  C   UNL     1       2.298  13.311  18.274  0.00  0.00    +0.000 C 
ATOM     17  C   UNL     1       1.981  13.543  20.767  0.00  0.00    +0.000 C 
ENDBRANCH  10  15
ENDBRANCH   2  11
ENDBRANCH   1   3
BRANCH   1  18
ATOM     18  C   UNL     1       2.943   7.402  18.307  0.00  0.00    +0.000 C 
BRANCH  18  19
ATOM     19  C   UNL     1       2.132   6.114  18.530  0.00  0.00    +0.000 C 
BRANCH  19  20
ATOM     20  C   UNL     1       2.084   5.665  19.993  0.00  0.00    +0.000 C 
BRANCH  20  21
ATOM     21  C   UNL     1       1.704   4.191  20.213  0.00  0.00    +0.000 C 
BRANCH  21  22
ATOM     22  S   UNL     1       3.059   2.963  20.187  0.00  0.00    +0.000 S 
BRANCH  22  23
ATOM     23  C   UNL     1       4.136   3.634  18.996  0.00  0.00    +0.000 A 
ATOM     24  N   UNL     1       4.042   3.371  17.706  0.00  0.00    +0.000 NA
ATOM     25  C   UNL     1       5.175   3.915  17.176  0.00  0.00    +0.000 A 
ATOM     26  C   UNL     1       5.665   3.865  15.866  0.00  0.00    +0.000 A 
ATOM     27  C   UNL     1       6.888   4.484  15.601  0.00  0.00    +0.000 A 
ATOM     28  C   UNL     1       7.585   5.158  16.613  0.00  0.00    +0.000 A 
ATOM     29  C   UNL     1       7.107   5.236  17.941  0.00  0.00    +0.000 A 
ATOM     30  C   UNL     1       5.899   4.573  18.157  0.00  0.00    +0.000 A 
ATOM     31  O   UNL     1       5.220   4.409  19.336  0.00  0.00    +0.000 OA
BRANCH  29  32
ATOM     32  C   UNL     1       7.875   5.987  18.984  0.00  0.00    +0.000 C 
BRANCH  32  33
ATOM     33  O   UNL     1       7.782   5.318  20.235  0.00  0.00    +0.000 OA
ATOM     34  H   UNL     1       7.581   5.994  20.905  0.00  0.00    +0.000 HD
ENDBRANCH  32  33
ENDBRANCH  29  32
ENDBRANCH  22  23
ENDBRANCH  21  22
ENDBRANCH  20  21
ENDBRANCH  19  20
ENDBRANCH  18  19
ENDBRANCH   1  18
TORSDOF 12
ENDMDL
MODEL 2
REMARK VINA RESULT:      -7.7      1.271      3.533
REMARK  Name = 
REMARK  16 active torsions:
REMARK  status: ('A' for Active; 'I' for Inactive)
REMARK    1  A    between atoms: C_1  and  C_2
REMARK    2  A    between atoms: C_2  and  C_3
REMARK    3  A    between atoms: C_2  and  C_4
REMARK    4  A    between atoms: C_8  and  C_9
REMARK    5  A    between atoms: C_9  and  C_10
REMARK    6  A    between atoms: C_9  and  C_11
REMARK    7  A    between atoms: C_12  and  N_13
REMARK    8  A    between atoms: C_14  and  C_16
REMARK    9  A    between atoms: C_16  and  C_17
REMARK   10  A    between atoms: C_17  and  C_18
REMARK   11  A    between atoms: C_18  and  C_19
REMARK   12  A    between atoms: C_19  and  C_20
REMARK   13  A    between atoms: C_20  and  S_21
REMARK   14  A    between atoms: S_21  and  C_22
REMARK   15  A    between atoms: C_28  and  C_29
REMARK   16  A    between atoms: C_29  and  O_30
REMARK                            x       y       z     vdW  Elec       q    Type
REMARK                         _______ _______ _______ _____ _____    ______ ____
ROOT
ATOM      1  C   UNL     1       2.345   8.295  17.743  0.00  0.00    +0.000 C 
ENDROOT
BRANCH   1   3
ATOM      2  N   UNL     1       0.778  10.136  17.831  0.00  0.00    +0.000 N 
ATOM      3  C   UNL     1       1.386   9.137  18.587  0.00  0.00    +0.000 C 
ATOM      4  O   UNL     1       1.215   8.942  19.787  0.00  0.00    +0.000 OA
ATOM      5  H   UNL     1       1.276  10.392  16.997  0.00  0.00    +0.000 HD
BRANCH   2  11
ATOM      6  C   UNL     1       0.346  12.206  19.088  0.00  0.00    +0.000 A 
ATOM      7  C   UNL     1      -0.593  13.124  19.614  0.00  0.00    +0.000 A 
ATOM      8  C   UNL     1      -1.952  12.976  19.418  0.00  0.00    +0.000 A 
ATOM      9  C   UNL     1      -2.414  11.874  18.718  0.00  0.00    +0.000 A 
ATOM     10  C   UNL     1      -1.533  10.893  18.197  0.00  0.00    +0.000 A 
ATOM     11  C   UNL     1      -0.130  11.091  18.347  0.00  0.00    +0.000 A 
BRANCH   6  13
ATOM     12  C   UNL     1       2.595  13.103  18.328  0.00  0.00    +0.000 C 
ATOM     13  C   UNL     1       1.814  12.433  19.467  0.00  0.00    +0.000 C 
ATOM     14  C   UNL     1       1.920  13.221  20.787  0.00  0.00    +0.000 C 
ENDBRANCH   6  13
BRANCH  10  15
ATOM     15  C   UNL     1      -2.250   9.783  17.424  0.00  0.00    +0.000 C 
ATOM     16  C   UNL     1      -3.596   9.449  18.071  0.00  0.00    +0.000 C 
ATOM     17  C   UNL     1      -2.388   9.935  15.909  0.00  0.00    +0.000 C 
ENDBRANCH  10  15
ENDBRANCH   2  11
ENDBRANCH   1   3
BRANCH   1  18
ATOM     18  C   UNL     1       2.832   7.029  18.461  0.00  0.00    +0.000 C 
BRANCH  18  19
ATOM     19  C   UNL     1       1.980   5.782  18.173  0.00  0.00    +0.000 C 
BRANCH  19  20
ATOM     20  C   UNL     1       1.665   4.954  19.423  0.00  0.00    +0.000 C 
BRANCH  20  21
ATOM     21  C   UNL     1       1.734   3.429  19.231  0.00  0.00    +0.000 C 
BRANCH  21  22
ATOM     22  S   UNL     1       3.244   2.578  19.813  0.00  0.00    +0.000 S 
BRANCH  22  23
ATOM     23  C   UNL     1       4.496   3.434  18.960  0.00  0.00    +0.000 A 
ATOM     24  N   UNL     1       5.420   4.157  19.564  0.00  0.00    +0.000 NA
ATOM     25  C   UNL     1       6.052   4.804  18.544  0.00  0.00    +0.000 A 
ATOM     26  C   UNL     1       7.056   5.779  18.586  0.00  0.00    +0.000 A 
ATOM     27  C   UNL     1       7.501   6.311  17.375  0.00  0.00    +0.000 A 
ATOM     28  C   UNL     1       6.978   5.859  16.156  0.00  0.00    +0.000 A 
ATOM     29  C   UNL     1       5.975   4.866  16.084  0.00  0.00    +0.000 A 
ATOM     30  C   UNL     1       5.543   4.394  17.322  0.00  0.00    +0.000 A 
ATOM     31  O   UNL     1       4.546   3.491  17.586  0.00  0.00    +0.000 OA
BRANCH  29  32
ATOM     32  C   UNL     1       5.463   4.396  14.758  0.00  0.00    +0.000 C 
BRANCH  32  33
ATOM     33  O   UNL     1       6.429   3.566  14.126  0.00  0.00    +0.000 OA
ATOM     34  H   UNL     1       6.566   2.797  14.705  0.00  0.00    +0.000 HD
ENDBRANCH  32  33
ENDBRANCH  29  32
ENDBRANCH  22  23
ENDBRANCH  21  22
ENDBRANCH  20  21
ENDBRANCH  19  20
ENDBRANCH  18  19
ENDBRANCH   1  18
TORSDOF 12
ENDMDL
MODEL 3
REMARK VINA RESULT:      -7.4      1.253      1.892
REMARK  Name = 
REMARK  16 active torsions:
REMARK  status: ('A' for Active; 'I' for Inactive)
REMARK    1  A    between atoms: C_1  and  C_2
REMARK    2  A    between atoms: C_2  and  C_3
REMARK    3  A    between atoms: C_2  and  C_4
REMARK    4  A    between atoms: C_8  and  C_9
REMARK    5  A    between atoms: C_9  and  C_10
REMARK    6  A    between atoms: C_9  and  C_11
REMARK    7  A    between atoms: C_12  and  N_13
REMARK    8  A    between atoms: C_14  and  C_16
REMARK    9  A    between atoms: C_16  and  C_17
REMARK   10  A    between atoms: C_17  and  C_18
REMARK   11  A    between atoms: C_18  and  C_19
REMARK   12  A    between atoms: C_19  and  C_20
REMARK   13  A    between atoms: C_20  and  S_21
REMARK   14  A    between atoms: S_21  and  C_22
REMARK   15  A    between atoms: C_28  and  C_29
REMARK   16  A    between atoms: C_29  and  O_30
REMARK                            x       y       z     vdW  Elec       q    Type
REMARK                         _______ _______ _______ _____ _____    ______ ____
ROOT
ATOM      1  C   UNL     1       2.243   8.140  17.943  0.00  0.00    +0.000 C 
ENDROOT
BRANCH   1   3
ATOM      2  N   UNL     1       0.683   9.988  17.964  0.00  0.00    +0.000 N 
ATOM      3  C   UNL     1       1.366   9.082  18.770  0.00  0.00    +0.000 C 
ATOM      4  O   UNL     1       1.313   9.031  19.995  0.00  0.00    +0.000 OA
ATOM      5  H   UNL     1       1.096  10.141  17.061  0.00  0.00    +0.000 HD
BRANCH   2  11
ATOM      6  C   UNL     1      -1.580  10.914  18.242  0.00  0.00    +0.000 A 
ATOM      7  C   UNL     1      -2.405  11.961  18.714  0.00  0.00    +0.000 A 
ATOM      8  C   UNL     1      -1.891  13.057  19.378  0.00  0.00    +0.000 A 
ATOM      9  C   UNL     1      -0.520  13.154  19.554  0.00  0.00    +0.000 A 
ATOM     10  C   UNL     1       0.370  12.162  19.072  0.00  0.00    +0.000 A 
ATOM     11  C   UNL     1      -0.176  11.003  18.449  0.00  0.00    +0.000 A 
BRANCH   6  13
ATOM     12  C   UNL     1      -3.608   9.398  18.061  0.00  0.00    +0.000 C 
ATOM     13  C   UNL     1      -2.269   9.808  17.433  0.00  0.00    +0.000 C 
ATOM     14  C   UNL     1      -2.422  10.229  15.959  0.00  0.00    +0.000 C 
ENDBRANCH   6  13
BRANCH  10  15
ATOM     15  C   UNL     1       1.835  12.446  19.410  0.00  0.00    +0.000 C 
ATOM     16  C   UNL     1       2.582  12.990  18.189  0.00  0.00    +0.000 C 
ATOM     17  C   UNL     1       2.139  13.277  20.657  0.00  0.00    +0.000 C 
ENDBRANCH  10  15
ENDBRANCH   2  11
ENDBRANCH   1   3
BRANCH   1  18
ATOM     18  C   UNL     1       2.854   6.999  18.768  0.00  0.00    +0.000 C 
BRANCH  18  19
ATOM     19  C   UNL     1       1.824   6.196  19.579  0.00  0.00    +0.000 C 
BRANCH  19  20
ATOM     20  C   UNL     1       2.426   4.997  20.318  0.00  0.00    +0.000 C 
BRANCH  20  21
ATOM     21  C   UNL     1       2.010   3.619  19.778  0.00  0.00    +0.000 C 
BRANCH  21  22
ATOM     22  S   UNL     1       3.347   2.448  19.346  0.00  0.00    +0.000 S 
BRANCH  22  23
ATOM     23  C   UNL     1       4.613   3.520  18.820  0.00  0.00    +0.000 A 
ATOM     24  N   UNL     1       5.608   3.903  19.599  0.00  0.00    +0.000 NA
ATOM     25  C   UNL     1       6.235   4.876  18.878  0.00  0.00    +0.000 A 
ATOM     26  C   UNL     1       7.300   5.710  19.235  0.00  0.00    +0.000 A 
ATOM     27  C   UNL     1       7.726   6.662  18.307  0.00  0.00    +0.000 A 
ATOM     28  C   UNL     1       7.121   6.755  17.046  0.00  0.00    +0.000 A 
ATOM     29  C   UNL     1       6.054   5.916  16.654  0.00  0.00    +0.000 A 
ATOM     30  C   UNL     1       5.647   5.008  17.630  0.00  0.00    +0.000 A 
ATOM     31  O   UNL     1       4.606   4.118  17.581  0.00  0.00    +0.000 OA
BRANCH  29  32
ATOM     32  C   UNL     1       5.454   6.036  15.287  0.00  0.00    +0.000 C 
BRANCH  32  33
ATOM     33  O   UNL     1       5.332   4.750  14.692  0.00  0.00    +0.000 OA
ATOM     34  H   UNL     1       6.233   4.395  14.595  0.00  0.00    +0.000 HD
ENDBRANCH  32  33
ENDBRANCH  29  32
ENDBRANCH  22  23
ENDBRANCH  21  22
ENDBRANCH  20  21
ENDBRANCH  19  20
ENDBRANCH  18  19
ENDBRANCH   1  18
TORSDOF 12
ENDMDL
MODEL 4
REMARK VINA RESULT:      -7.4      5.083      9.033
REMARK  Name = 
REMARK  16 active torsions:
REMARK  status: ('A' for Active; 'I' for Inactive)
REMARK    1  A    between atoms: C_1  and  C_2
REMARK    2  A    between atoms: C_2  and  C_3
REMARK    3  A    between atoms: C_2  and  C_4
REMARK    4  A    between atoms: C_8  and  C_9
REMARK    5  A    between atoms: C_9  and  C_10
REMARK    6  A    between atoms: C_9  and  C_11
REMARK    7  A    between atoms: C_12  and  N_13
REMARK    8  A    between atoms: C_14  and  C_16
REMARK    9  A    between atoms: C_16  and  C_17
REMARK   10  A    between atoms: C_17  and  C_18
REMARK   11  A    between atoms: C_18  and  C_19
REMARK   12  A    between atoms: C_19  and  C_20
REMARK   13  A    between atoms: C_20  and  S_21
REMARK   14  A    between atoms: S_21  and  C_22
REMARK   15  A    between atoms: C_28  and  C_29
REMARK   16  A    between atoms: C_29  and  O_30
REMARK                            x       y       z     vdW  Elec       q    Type
REMARK                         _______ _______ _______ _____ _____    ______ ____
ROOT
ATOM      1  C   UNL     1       6.381   5.689  17.045  0.00  0.00    +0.000 C 
ENDROOT
BRANCH   1   3
ATOM      2  N   UNL     1       4.782   5.295  18.816  0.00  0.00    +0.000 N 
ATOM      3  C   UNL     1       5.004   5.158  17.449  0.00  0.00    +0.000 C 
ATOM      4  O   UNL     1       4.225   4.659  16.643  0.00  0.00    +0.000 OA
ATOM      5  H   UNL     1       5.616   5.374  19.371  0.00  0.00    +0.000 HD
BRANCH   2  11
ATOM      6  C   UNL     1       3.445   3.491  19.821  0.00  0.00    +0.000 A 
ATOM      7  C   UNL     1       2.250   3.090  20.463  0.00  0.00    +0.000 A 
ATOM      8  C   UNL     1       1.251   3.988  20.784  0.00  0.00    +0.000 A 
ATOM      9  C   UNL     1       1.407   5.319  20.431  0.00  0.00    +0.000 A 
ATOM     10  C   UNL     1       2.560   5.785  19.750  0.00  0.00    +0.000 A 
ATOM     11  C   UNL     1       3.612   4.862  19.486  0.00  0.00    +0.000 A 
BRANCH   6  13
ATOM     12  C   UNL     1       4.943   1.625  20.666  0.00  0.00    +0.000 C 
ATOM     13  C   UNL     1       4.423   2.376  19.433  0.00  0.00    +0.000 C 
ATOM     14  C   UNL     1       3.785   1.429  18.400  0.00  0.00    +0.000 C 
ENDBRANCH   6  13
BRANCH  10  15
ATOM     15  C   UNL     1       2.545   7.294  19.494  0.00  0.00    +0.000 C 
ATOM     16  C   UNL     1       2.295   7.594  18.014  0.00  0.00    +0.000 C 
ATOM     17  C   UNL     1       1.666   8.168  20.390  0.00  0.00    +0.000 C 
ENDBRANCH  10  15
ENDBRANCH   2  11
ENDBRANCH   1   3
BRANCH   1  18
ATOM     18  C   UNL     1       6.984   6.654  18.075  0.00  0.00    +0.000 C 
BRANCH  18  19
ATOM     19  C   UNL     1       7.741   7.839  17.452  0.00  0.00    +0.000 C 
BRANCH  19  20
ATOM     20  C   UNL     1       8.461   8.716  18.480  0.00  0.00    +0.000 C 
BRANCH  20  21
ATOM     21  C   UNL     1       8.474  10.221  18.162  0.00  0.00    +0.000 C 
BRANCH  21  22
ATOM     22  S   UNL     1      10.060  11.108  18.372  0.00  0.00    +0.000 S 
BRANCH  22  23
ATOM     23  C   UNL     1       9.675  12.248  19.629  0.00  0.00    +0.000 A 
ATOM     24  N   UNL     1      10.016  13.522  19.580  0.00  0.00    +0.000 NA
ATOM     25  C   UNL     1       9.714  13.992  20.824  0.00  0.00    +0.000 A 
ATOM     26  C   UNL     1       9.946  15.252  21.388  0.00  0.00    +0.000 A 
ATOM     27  C   UNL     1       9.568  15.455  22.716  0.00  0.00    +0.000 A 
ATOM     28  C   UNL     1       8.948  14.435  23.449  0.00  0.00    +0.000 A 
ATOM     29  C   UNL     1       8.688  13.158  22.901  0.00  0.00    +0.000 A 
ATOM     30  C   UNL     1       9.117  12.999  21.584  0.00  0.00    +0.000 A 
ATOM     31  O   UNL     1       9.073  11.871  20.807  0.00  0.00    +0.000 OA
BRANCH  29  32
ATOM     32  C   UNL     1       8.002  12.105  23.716  0.00  0.00    +0.000 C 
BRANCH  32  33
ATOM     33  O   UNL     1       8.574  10.831  23.449  0.00  0.00    +0.000 OA
ATOM     34  H   UNL     1       7.840  10.227  23.243  0.00  0.00    +0.000 HD
ENDBRANCH  32  33
ENDBRANCH  29  32
ENDBRANCH  22  23
ENDBRANCH  21  22
ENDBRANCH  20  21
ENDBRANCH  19  20
ENDBRANCH  18  19
ENDBRANCH   1  18
TORSDOF 12
ENDMDL
MODEL 5
REMARK VINA RESULT:      -7.4      5.704      9.526
REMARK  Name = 
REMARK  16 active torsions:
REMARK  status: ('A' for Active; 'I' for Inactive)
REMARK    1  A    between atoms: C_1  and  C_2
REMARK    2  A    between atoms: C_2  and  C_3
REMARK    3  A    between atoms: C_2  and  C_4
REMARK    4  A    between atoms: C_8  and  C_9
REMARK    5  A    between atoms: C_9  and  C_10
REMARK    6  A    between atoms: C_9  and  C_11
REMARK    7  A    between atoms: C_12  and  N_13
REMARK    8  A    between atoms: C_14  and  C_16
REMARK    9  A    between atoms: C_16  and  C_17
REMARK   10  A    between atoms: C_17  and  C_18
REMARK   11  A    between atoms: C_18  and  C_19
REMARK   12  A    between atoms: C_19  and  C_20
REMARK   13  A    between atoms: C_20  and  S_21
REMARK   14  A    between atoms: S_21  and  C_22
REMARK   15  A    between atoms: C_28  and  C_29
REMARK   16  A    between atoms: C_29  and  O_30
REMARK                            x       y       z     vdW  Elec       q    Type
REMARK                         _______ _______ _______ _____ _____    ______ ____
ROOT
ATOM      1  C   UNL     1       6.837   5.904  18.483  0.00  0.00    +0.000 C 
ENDROOT
BRANCH   1   3
ATOM      2  N   UNL     1       4.802   5.225  19.601  0.00  0.00    +0.000 N 
ATOM      3  C   UNL     1       5.400   5.393  18.355  0.00  0.00    +0.000 C 
ATOM      4  O   UNL     1       4.878   5.152  17.271  0.00  0.00    +0.000 OA
ATOM      5  H   UNL     1       5.446   5.112  20.364  0.00  0.00    +0.000 HD
BRANCH   2  11
ATOM      6  C   UNL     1       3.245   3.333  19.823  0.00  0.00    +0.000 A 
ATOM      7  C   UNL     1       1.917   2.878  19.994  0.00  0.00    +0.000 A 
ATOM      8  C   UNL     1       0.857   3.750  20.152  0.00  0.00    +0.000 A 
ATOM      9  C   UNL     1       1.096   5.113  20.103  0.00  0.00    +0.000 A 
ATOM     10  C   UNL     1       2.396   5.640  19.894  0.00  0.00    +0.000 A 
ATOM     11  C   UNL     1       3.490   4.733  19.800  0.00  0.00    +0.000 A 
BRANCH   6  13
ATOM     12  C   UNL     1       4.775   1.592  20.857  0.00  0.00    +0.000 C 
ATOM     13  C   UNL     1       4.308   2.261  19.557  0.00  0.00    +0.000 C 
ATOM     14  C   UNL     1       3.801   1.237  18.524  0.00  0.00    +0.000 C 
ENDBRANCH   6  13
BRANCH  10  15
ATOM     15  C   UNL     1       2.441   7.170  19.915  0.00  0.00    +0.000 C 
ATOM     16  C   UNL     1       2.438   7.736  18.493  0.00  0.00    +0.000 C 
ATOM     17  C   UNL     1       1.440   7.908  20.804  0.00  0.00    +0.000 C 
ENDBRANCH  10  15
ENDBRANCH   2  11
ENDBRANCH   1   3
BRANCH   1  18
ATOM     18  C   UNL     1       7.301   6.721  17.269  0.00  0.00    +0.000 C 
BRANCH  18  19
ATOM     19  C   UNL     1       7.239   8.243  17.482  0.00  0.00    +0.000 C 
BRANCH  19  20
ATOM     20  C   UNL     1       8.451   8.806  18.230  0.00  0.00    +0.000 C 
BRANCH  20  21
ATOM     21  C   UNL     1       8.663  10.323  18.082  0.00  0.00    +0.000 C 
BRANCH  21  22
ATOM     22  S   UNL     1       9.900  11.107  19.177  0.00  0.00    +0.000 S 
BRANCH  22  23
ATOM     23  C   UNL     1      10.003  12.714  18.519  0.00  0.00    +0.000 A 
ATOM     24  N   UNL     1      11.013  13.129  17.777  0.00  0.00    +0.000 NA
ATOM     25  C   UNL     1      10.802  14.471  17.653  0.00  0.00    +0.000 A 
ATOM     26  C   UNL     1      11.599  15.453  17.054  0.00  0.00    +0.000 A 
ATOM     27  C   UNL     1      11.157  16.776  17.106  0.00  0.00    +0.000 A 
ATOM     28  C   UNL     1       9.938  17.102  17.715  0.00  0.00    +0.000 A 
ATOM     29  C   UNL     1       9.107  16.129  18.315  0.00  0.00    +0.000 A 
ATOM     30  C   UNL     1       9.611  14.831  18.264  0.00  0.00    +0.000 A 
ATOM     31  O   UNL     1       9.081  13.692  18.811  0.00  0.00    +0.000 OA
BRANCH  29  32
ATOM     32  C   UNL     1       7.801  16.521  18.934  0.00  0.00    +0.000 C 
BRANCH  32  33
ATOM     33  O   UNL     1       7.353  17.756  18.389  0.00  0.00    +0.000 OA
ATOM     34  H   UNL     1       6.649  17.547  17.751  0.00  0.00    +0.000 HD
ENDBRANCH  32  33
ENDBRANCH  29  32
ENDBRANCH  22  23
ENDBRANCH  21  22
ENDBRANCH  20  21
ENDBRANCH  19  20
ENDBRANCH  18  19
ENDBRANCH   1  18
TORSDOF 12
ENDMDL
MODEL 6
REMARK VINA RESULT:      -7.2      5.812      9.562
REMARK  Name = 
REMARK  16 active torsions:
REMARK  status: ('A' for Active; 'I' for Inactive)
REMARK    1  A    between atoms: C_1  and  C_2
REMARK    2  A    between atoms: C_2  and  C_3
REMARK    3  A    between atoms: C_2  and  C_4
REMARK    4  A    between atoms: C_8  and  C_9
REMARK    5  A    between atoms: C_9  and  C_10
REMARK    6  A    between atoms: C_9  and  C_11
REMARK    7  A    between atoms: C_12  and  N_13
REMARK    8  A    between atoms: C_14  and  C_16
REMARK    9  A    between atoms: C_16  and  C_17
REMARK   10  A    between atoms: C_17  and  C_18
REMARK   11  A    between atoms: C_18  and  C_19
REMARK   12  A    between atoms: C_19  and  C_20
REMARK   13  A    between atoms: C_20  and  S_21
REMARK   14  A    between atoms: S_21  and  C_22
REMARK   15  A    between atoms: C_28  and  C_29
REMARK   16  A    between atoms: C_29  and  O_30
REMARK                            x       y       z     vdW  Elec       q    Type
REMARK                         _______ _______ _______ _____ _____    ______ ____
ROOT
ATOM      1  C   UNL     1       6.694   6.052  18.292  0.00  0.00    +0.000 C 
ENDROOT
BRANCH   1   3
ATOM      2  N   UNL     1       4.703   5.302  19.441  0.00  0.00    +0.000 N 
ATOM      3  C   UNL     1       5.262   5.524  18.186  0.00  0.00    +0.000 C 
ATOM      4  O   UNL     1       4.712   5.314  17.109  0.00  0.00    +0.000 OA
ATOM      5  H   UNL     1       5.371   5.172  20.181  0.00  0.00    +0.000 HD
BRANCH   2  11
ATOM      6  C   UNL     1       2.309   5.663  19.877  0.00  0.00    +0.000 A 
ATOM      7  C   UNL     1       1.031   5.108  20.122  0.00  0.00    +0.000 A 
ATOM      8  C   UNL     1       0.814   3.744  20.144  0.00  0.00    +0.000 A 
ATOM      9  C   UNL     1       1.889   2.891  19.958  0.00  0.00    +0.000 A 
ATOM     10  C   UNL     1       3.205   3.376  19.748  0.00  0.00    +0.000 A 
ATOM     11  C   UNL     1       3.404   4.783  19.660  0.00  0.00    +0.000 A 
BRANCH   6  13
ATOM     12  C   UNL     1       2.362   7.857  18.603  0.00  0.00    +0.000 C 
ATOM     13  C   UNL     1       2.427   7.188  19.983  0.00  0.00    +0.000 C 
ATOM     14  C   UNL     1       1.370   7.749  20.952  0.00  0.00    +0.000 C 
ENDBRANCH   6  13
BRANCH  10  15
ATOM     15  C   UNL     1       4.233   2.264  19.526  0.00  0.00    +0.000 C 
ATOM     16  C   UNL     1       4.700   1.677  20.860  0.00  0.00    +0.000 C 
ATOM     17  C   UNL     1       3.893   1.158  18.526  0.00  0.00    +0.000 C 
ENDBRANCH  10  15
ENDBRANCH   2  11
ENDBRANCH   1   3
BRANCH   1  18
ATOM     18  C   UNL     1       7.092   6.965  17.123  0.00  0.00    +0.000 C 
BRANCH  18  19
ATOM     19  C   UNL     1       7.442   8.401  17.546  0.00  0.00    +0.000 C 
BRANCH  19  20
ATOM     20  C   UNL     1       8.564   8.478  18.586  0.00  0.00    +0.000 C 
BRANCH  20  21
ATOM     21  C   UNL     1       9.113   9.890  18.853  0.00  0.00    +0.000 C 
BRANCH  21  22
ATOM     22  S   UNL     1       8.458  11.252  17.824  0.00  0.00    +0.000 S 
BRANCH  22  23
ATOM     23  C   UNL     1       9.345  12.623  18.427  0.00  0.00    +0.000 A 
ATOM     24  N   UNL     1       9.778  12.715  19.671  0.00  0.00    +0.000 NA
ATOM     25  C   UNL     1      10.222  14.000  19.771  0.00  0.00    +0.000 A 
ATOM     26  C   UNL     1      10.703  14.699  20.884  0.00  0.00    +0.000 A 
ATOM     27  C   UNL     1      11.057  16.038  20.714  0.00  0.00    +0.000 A 
ATOM     28  C   UNL     1      10.960  16.652  19.458  0.00  0.00    +0.000 A 
ATOM     29  C   UNL     1      10.491  15.967  18.314  0.00  0.00    +0.000 A 
ATOM     30  C   UNL     1      10.120  14.644  18.548  0.00  0.00    +0.000 A 
ATOM     31  O   UNL     1       9.568  13.749  17.668  0.00  0.00    +0.000 OA
BRANCH  29  32
ATOM     32  C   UNL     1      10.426  16.657  16.987  0.00  0.00    +0.000 C 
BRANCH  32  33
ATOM     33  O   UNL     1      10.870  15.781  15.958  0.00  0.00    +0.000 OA
ATOM     34  H   UNL     1      11.842  15.779  15.985  0.00  0.00    +0.000 HD
ENDBRANCH  32  33
ENDBRANCH  29  32
ENDBRANCH  22  23
ENDBRANCH  21  22
ENDBRANCH  20  21
ENDBRANCH  19  20
ENDBRANCH  18  19
ENDBRANCH   1  18
TORSDOF 12
ENDMDL
MODEL 7
REMARK VINA RESULT:      -7.2      5.036      9.540
REMARK  Name = 
REMARK  16 active torsions:
REMARK  status: ('A' for Active; 'I' for Inactive)
REMARK    1  A    between atoms: C_1  and  C_2
REMARK    2  A    between atoms: C_2  and  C_3
REMARK    3  A    between atoms: C_2  and  C_4
REMARK    4  A    between atoms: C_8  and  C_9
REMARK    5  A    between atoms: C_9  and  C_10
REMARK    6  A    between atoms: C_9  and  C_11
REMARK    7  A    between atoms: C_12  and  N_13
REMARK    8  A    between atoms: C_14  and  C_16
REMARK    9  A    between atoms: C_16  and  C_17
REMARK   10  A    between atoms: C_17  and  C_18
REMARK   11  A    between atoms: C_18  and  C_19
REMARK   12  A    between atoms: C_19  and  C_20
REMARK   13  A    between atoms: C_20  and  S_21
REMARK   14  A    between atoms: S_21  and  C_22
REMARK   15  A    between atoms: C_28  and  C_29
REMARK   16  A    between atoms: C_29  and  O_30
REMARK                            x       y       z     vdW  Elec       q    Type
REMARK                         _______ _______ _______ _____ _____    ______ ____
ROOT
ATOM      1  C   UNL     1       7.437   8.047  17.301  0.00  0.00    +0.000 C 
ENDROOT
BRANCH   1   3
ATOM      2  N   UNL     1       5.452   6.721  16.920  0.00  0.00    +0.000 N 
ATOM      3  C   UNL     1       6.560   6.876  17.748  0.00  0.00    +0.000 C 
ATOM      4  O   UNL     1       6.821   6.192  18.733  0.00  0.00    +0.000 OA
ATOM      5  H   UNL     1       5.191   7.545  16.408  0.00  0.00    +0.000 HD
BRANCH   2  11
ATOM      6  C   UNL     1       3.284   6.045  17.869  0.00  0.00    +0.000 A 
ATOM      7  C   UNL     1       2.313   5.035  18.057  0.00  0.00    +0.000 A 
ATOM      8  C   UNL     1       2.451   3.773  17.512  0.00  0.00    +0.000 A 
ATOM      9  C   UNL     1       3.595   3.475  16.790  0.00  0.00    +0.000 A 
ATOM     10  C   UNL     1       4.628   4.426  16.596  0.00  0.00    +0.000 A 
ATOM     11  C   UNL     1       4.444   5.743  17.104  0.00  0.00    +0.000 A 
BRANCH   6  13
ATOM     12  C   UNL     1       2.410   8.422  17.706  0.00  0.00    +0.000 C 
ATOM     13  C   UNL     1       3.054   7.365  18.613  0.00  0.00    +0.000 C 
ATOM     14  C   UNL     1       2.242   7.129  19.900  0.00  0.00    +0.000 C 
ENDBRANCH   6  13
BRANCH  10  15
ATOM     15  C   UNL     1       5.781   3.901  15.736  0.00  0.00    +0.000 C 
ATOM     16  C   UNL     1       5.606   4.320  14.273  0.00  0.00    +0.000 C 
ATOM     17  C   UNL     1       7.211   4.156  16.214  0.00  0.00    +0.000 C 
ENDBRANCH  10  15
ENDBRANCH   2  11
ENDBRANCH   1   3
BRANCH   1  18
ATOM     18  C   UNL     1       8.364   8.568  18.409  0.00  0.00    +0.000 C 
BRANCH  18  19
ATOM     19  C   UNL     1       8.742  10.051  18.260  0.00  0.00    +0.000 C 
BRANCH  19  20
ATOM     20  C   UNL     1       9.626  10.575  19.395  0.00  0.00    +0.000 C 
BRANCH  20  21
ATOM     21  C   UNL     1      10.909  11.295  18.945  0.00  0.00    +0.000 C 
BRANCH  21  22
ATOM     22  S   UNL     1      11.455  12.732  19.937  0.00  0.00    +0.000 S 
BRANCH  22  23
ATOM     23  C   UNL     1       9.942  13.479  20.361  0.00  0.00    +0.000 A 
ATOM     24  N   UNL     1       9.402  13.391  21.562  0.00  0.00    +0.000 NA
ATOM     25  C   UNL     1       8.157  13.925  21.404  0.00  0.00    +0.000 A 
ATOM     26  C   UNL     1       7.097  14.013  22.313  0.00  0.00    +0.000 A 
ATOM     27  C   UNL     1       5.900  14.579  21.871  0.00  0.00    +0.000 A 
ATOM     28  C   UNL     1       5.779  15.070  20.564  0.00  0.00    +0.000 A 
ATOM     29  C   UNL     1       6.837  15.007  19.629  0.00  0.00    +0.000 A 
ATOM     30  C   UNL     1       7.996  14.402  20.113  0.00  0.00    +0.000 A 
ATOM     31  O   UNL     1       9.158  14.131  19.437  0.00  0.00    +0.000 OA
BRANCH  29  32
ATOM     32  C   UNL     1       6.669  15.565  18.250  0.00  0.00    +0.000 C 
BRANCH  32  33
ATOM     33  O   UNL     1       7.383  14.771  17.311  0.00  0.00    +0.000 OA
ATOM     34  H   UNL     1       7.266  15.187  16.439  0.00  0.00    +0.000 HD
ENDBRANCH  32  33
ENDBRANCH  29  32
ENDBRANCH  22  23
ENDBRANCH  21  22
ENDBRANCH  20  21
ENDBRANCH  19  20
ENDBRANCH  18  19
ENDBRANCH   1  18
TORSDOF 12
ENDMDL
MODEL 8
REMARK VINA RESULT:      -7.2      3.098      9.518
REMARK  Name = 
REMARK  16 active torsions:
REMARK  status: ('A' for Active; 'I' for Inactive)
REMARK    1  A    between atoms: C_1  and  C_2
REMARK    2  A    between atoms: C_2  and  C_3
REMARK    3  A    between atoms: C_2  and  C_4
REMARK    4  A    between atoms: C_8  and  C_9
REMARK    5  A    between atoms: C_9  and  C_10
REMARK    6  A    between atoms: C_9  and  C_11
REMARK    7  A    between atoms: C_12  and  N_13
REMARK    8  A    between atoms: C_14  and  C_16
REMARK    9  A    between atoms: C_16  and  C_17
REMARK   10  A    between atoms: C_17  and  C_18
REMARK   11  A    between atoms: C_18  and  C_19
REMARK   12  A    between atoms: C_19  and  C_20
REMARK   13  A    between atoms: C_20  and  S_21
REMARK   14  A    between atoms: S_21  and  C_22
REMARK   15  A    between atoms: C_28  and  C_29
REMARK   16  A    between atoms: C_29  and  O_30
REMARK                            x       y       z     vdW  Elec       q    Type
REMARK                         _______ _______ _______ _____ _____    ______ ____
ROOT
ATOM      1  C   UNL     1       1.804   8.343  19.549  0.00  0.00    +0.000 C 
ENDROOT
BRANCH   1   3
ATOM      2  N   UNL     1       3.070   6.310  19.886  0.00  0.00    +0.000 N 
ATOM      3  C   UNL     1       2.245   6.988  18.993  0.00  0.00    +0.000 C 
ATOM      4  O   UNL     1       1.912   6.589  17.881  0.00  0.00    +0.000 OA
ATOM      5  H   UNL     1       3.531   6.897  20.560  0.00  0.00    +0.000 HD
BRANCH   2  11
ATOM      6  C   UNL     1       3.020   3.858  20.072  0.00  0.00    +0.000 A 
ATOM      7  C   UNL     1       3.653   2.616  19.828  0.00  0.00    +0.000 A 
ATOM      8  C   UNL     1       4.863   2.527  19.169  0.00  0.00    +0.000 A 
ATOM      9  C   UNL     1       5.497   3.692  18.768  0.00  0.00    +0.000 A 
ATOM     10  C   UNL     1       4.940   4.972  19.015  0.00  0.00    +0.000 A 
ATOM     11  C   UNL     1       3.660   5.049  19.634  0.00  0.00    +0.000 A 
BRANCH   6  13
ATOM     12  C   UNL     1       0.485   3.749  20.010  0.00  0.00    +0.000 C 
ATOM     13  C   UNL     1       1.731   3.819  20.902  0.00  0.00    +0.000 C 
ATOM     14  C   UNL     1       1.779   2.670  21.927  0.00  0.00    +0.000 C 
ENDBRANCH   6  13
BRANCH  10  15
ATOM     15  C   UNL     1       5.783   6.119  18.452  0.00  0.00    +0.000 C 
ATOM     16  C   UNL     1       7.275   5.780  18.510  0.00  0.00    +0.000 C 
ATOM     17  C   UNL     1       5.401   6.692  17.087  0.00  0.00    +0.000 C 
ENDBRANCH  10  15
ENDBRANCH   2  11
ENDBRANCH   1   3
BRANCH   1  18
ATOM     18  C   UNL     1       1.446   8.299  21.041  0.00  0.00    +0.000 C 
BRANCH  18  19
ATOM     19  C   UNL     1      -0.060   8.422  21.325  0.00  0.00    +0.000 C 
BRANCH  19  20
ATOM     20  C   UNL     1      -0.443   9.714  22.053  0.00  0.00    +0.000 C 
BRANCH  20  21
ATOM     21  C   UNL     1       0.451  10.928  21.744  0.00  0.00    +0.000 C 
BRANCH  21  22
ATOM     22  S   UNL     1      -0.366  12.420  21.072  0.00  0.00    +0.000 S 
BRANCH  22  23
ATOM     23  C   UNL     1      -1.375  11.752  19.821  0.00  0.00    +0.000 A 
ATOM     24  N   UNL     1      -0.919  10.959  18.870  0.00  0.00    +0.000 NA
ATOM     25  C   UNL     1      -1.969  10.841  18.008  0.00  0.00    +0.000 A 
ATOM     26  C   UNL     1      -2.043  10.200  16.766  0.00  0.00    +0.000 A 
ATOM     27  C   UNL     1      -3.247  10.269  16.064  0.00  0.00    +0.000 A 
ATOM     28  C   UNL     1      -4.354  10.938  16.603  0.00  0.00    +0.000 A 
ATOM     29  C   UNL     1      -4.313  11.582  17.860  0.00  0.00    +0.000 A 
ATOM     30  C   UNL     1      -3.078  11.510  18.502  0.00  0.00    +0.000 A 
ATOM     31  O   UNL     1      -2.702  12.087  19.688  0.00  0.00    +0.000 OA
BRANCH  29  32
ATOM     32  C   UNL     1      -5.529  12.264  18.407  0.00  0.00    +0.000 C 
BRANCH  32  33
ATOM     33  O   UNL     1      -5.164  13.493  19.022  0.00  0.00    +0.000 OA
ATOM     34  H   UNL     1      -5.618  14.201  18.534  0.00  0.00    +0.000 HD
ENDBRANCH  32  33
ENDBRANCH  29  32
ENDBRANCH  22  23
ENDBRANCH  21  22
ENDBRANCH  20  21
ENDBRANCH  19  20
ENDBRANCH  18  19
ENDBRANCH   1  18
TORSDOF 12
ENDMDL
MODEL 9
REMARK VINA RESULT:      -7.0      3.152      9.652
REMARK  Name = 
REMARK  16 active torsions:
REMARK  status: ('A' for Active; 'I' for Inactive)
REMARK    1  A    between atoms: C_1  and  C_2
REMARK    2  A    between atoms: C_2  and  C_3
REMARK    3  A    between atoms: C_2  and  C_4
REMARK    4  A    between atoms: C_8  and  C_9
REMARK    5  A    between atoms: C_9  and  C_10
REMARK    6  A    between atoms: C_9  and  C_11
REMARK    7  A    between atoms: C_12  and  N_13
REMARK    8  A    between atoms: C_14  and  C_16
REMARK    9  A    between atoms: C_16  and  C_17
REMARK   10  A    between atoms: C_17  and  C_18
REMARK   11  A    between atoms: C_18  and  C_19
REMARK   12  A    between atoms: C_19  and  C_20
REMARK   13  A    between atoms: C_20  and  S_21
REMARK   14  A    between atoms: S_21  and  C_22
REMARK   15  A    between atoms: C_28  and  C_29
REMARK   16  A    between atoms: C_29  and  O_30
REMARK                            x       y       z     vdW  Elec       q    Type
REMARK                         _______ _______ _______ _____ _____    ______ ____
ROOT
ATOM      1  C   UNL     1       1.842   8.595  19.670  0.00  0.00    +0.000 C 
ENDROOT
BRANCH   1   3
ATOM      2  N   UNL     1       2.787   6.386  19.396  0.00  0.00    +0.000 N 
ATOM      3  C   UNL     1       2.149   7.428  18.729  0.00  0.00    +0.000 C 
ATOM      4  O   UNL     1       1.872   7.452  17.534  0.00  0.00    +0.000 OA
ATOM      5  H   UNL     1       3.257   6.654  20.243  0.00  0.00    +0.000 HD
BRANCH   2  11
ATOM      6  C   UNL     1       2.586   3.954  19.078  0.00  0.00    +0.000 A 
ATOM      7  C   UNL     1       3.068   2.774  18.466  0.00  0.00    +0.000 A 
ATOM      8  C   UNL     1       4.129   2.787  17.581  0.00  0.00    +0.000 A 
ATOM      9  C   UNL     1       4.766   3.988  17.314  0.00  0.00    +0.000 A 
ATOM     10  C   UNL     1       4.362   5.203  17.922  0.00  0.00    +0.000 A 
ATOM     11  C   UNL     1       3.224   5.189  18.779  0.00  0.00    +0.000 A 
BRANCH   6  13
ATOM     12  C   UNL     1       0.451   2.721  19.679  0.00  0.00    +0.000 C 
ATOM     13  C   UNL     1       1.470   3.782  20.115  0.00  0.00    +0.000 C 
ATOM     14  C   UNL     1       2.062   3.485  21.505  0.00  0.00    +0.000 C 
ENDBRANCH   6  13
BRANCH  10  15
ATOM     15  C   UNL     1       5.174   6.414  17.456  0.00  0.00    +0.000 C 
ATOM     16  C   UNL     1       6.637   6.290  17.889  0.00  0.00    +0.000 C 
ATOM     17  C   UNL     1       5.067   6.832  15.989  0.00  0.00    +0.000 C 
ENDBRANCH  10  15
ENDBRANCH   2  11
ENDBRANCH   1   3
BRANCH   1  18
ATOM     18  C   UNL     1       1.523   8.150  21.104  0.00  0.00    +0.000 C 
BRANCH  18  19
ATOM     19  C   UNL     1       0.299   8.852  21.716  0.00  0.00    +0.000 C 
BRANCH  19  20
ATOM     20  C   UNL     1      -0.285   9.952  20.826  0.00  0.00    +0.000 C 
BRANCH  20  21
ATOM     21  C   UNL     1       0.127  11.386  21.203  0.00  0.00    +0.000 C 
BRANCH  21  22
ATOM     22  S   UNL     1      -1.191  12.509  21.792  0.00  0.00    +0.000 S 
BRANCH  22  23
ATOM     23  C   UNL     1      -2.355  12.414  20.501  0.00  0.00    +0.000 A 
ATOM     24  N   UNL     1      -3.633  12.706  20.655  0.00  0.00    +0.000 NA
ATOM     25  C   UNL     1      -4.206  12.305  19.484  0.00  0.00    +0.000 A 
ATOM     26  C   UNL     1      -5.554  12.278  19.109  0.00  0.00    +0.000 A 
ATOM     27  C   UNL     1      -5.872  11.774  17.846  0.00  0.00    +0.000 A 
ATOM     28  C   UNL     1      -4.866  11.337  16.975  0.00  0.00    +0.000 A 
ATOM     29  C   UNL     1      -3.496  11.366  17.322  0.00  0.00    +0.000 A 
ATOM     30  C   UNL     1      -3.238  11.846  18.605  0.00  0.00    +0.000 A 
ATOM     31  O   UNL     1      -2.034  11.932  19.253  0.00  0.00    +0.000 OA
BRANCH  29  32
ATOM     32  C   UNL     1      -2.454  10.910  16.348  0.00  0.00    +0.000 C 
BRANCH  32  33
ATOM     33  O   UNL     1      -1.405  10.237  17.034  0.00  0.00    +0.000 OA
ATOM     34  H   UNL     1      -1.448  10.517  17.964  0.00  0.00    +0.000 HD
ENDBRANCH  32  33
ENDBRANCH  29  32
ENDBRANCH  22  23
ENDBRANCH  21  22
ENDBRANCH  20  21
ENDBRANCH  19  20
ENDBRANCH  18  19
ENDBRANCH   1  18
TORSDOF 12
ENDMDL
