MODEL 1
REMARK VINA RESULT:      -7.7      0.000      0.000
REMARK  Name = 
REMARK  7 active torsions:
REMARK  status: ('A' for Active; 'I' for Inactive)
REMARK    1  A    between atoms: C_1  and  C_2
REMARK    2  A    between atoms: C_6  and  C_7
REMARK    3  A    between atoms: C_7  and  N_8
REMARK    4  A    between atoms: N_8  and  C_9
REMARK    5  A    between atoms: N_8  and  C_13
REMARK    6  A    between atoms: C_9  and  C_10
REMARK    7  A    between atoms: C_13  and  C_14
REMARK                            x       y       z     vdW  Elec       q    Type
REMARK                         _______ _______ _______ _____ _____    ______ ____
ROOT
ATOM      1  N   UNL     1       5.757   5.178  17.062  0.00  0.00    +0.000 NA
ENDROOT
BRANCH   1   2
ATOM      2  C   UNL     1       5.431   4.145  18.084  0.00  0.00    +0.000 C 
BRANCH   2   8
ATOM      3  C   UNL     1       1.809   3.134  21.422  0.00  0.00    +0.000 C 
ATOM      4  C   UNL     1       2.203   3.627  20.062  0.00  0.00    +0.000 A 
ATOM      5  C   UNL     1       1.245   3.786  19.055  0.00  0.00    +0.000 A 
ATOM      6  C   UNL     1       1.632   4.131  17.760  0.00  0.00    +0.000 A 
ATOM      7  C   UNL     1       2.982   4.279  17.450  0.00  0.00    +0.000 A 
ATOM      8  C   UNL     1       3.958   4.097  18.439  0.00  0.00    +0.000 A 
ATOM      9  C   UNL     1       3.555   3.816  19.753  0.00  0.00    +0.000 A 
ENDBRANCH   2   8
ENDBRANCH   1   2
BRANCH   1  10
ATOM     10  C   UNL     1       5.875   6.511  17.715  0.00  0.00    +0.000 C 
BRANCH  10  11
ATOM     11  C   UNL     1       7.327   6.986  17.775  0.00  0.00    +0.000 C 
ATOM     12  N   UNL     1       8.038   6.572  18.867  0.00  0.00    +0.000 N 
ATOM     13  O   UNL     1       7.842   7.690  16.914  0.00  0.00    +0.000 OA
ATOM     14  H   UNL     1       7.572   6.120  19.643  0.00  0.00    +0.000 HD
ATOM     15  H   UNL     1       8.979   6.914  18.977  0.00  0.00    +0.000 HD
ENDBRANCH  10  11
ENDBRANCH   1  10
BRANCH   1  16
ATOM     16  C   UNL     1       7.058   4.835  16.420  0.00  0.00    +0.000 C 
BRANCH  16  17
ATOM     17  C   UNL     1       6.991   4.672  14.910  0.00  0.00    +0.000 A 
ATOM     18  C   UNL     1       6.102   3.766  14.336  0.00  0.00    +0.000 A 
ATOM     19  C   UNL     1       6.109   3.603  12.954  0.00  0.00    +0.000 A 
ATOM     20  C   UNL     1       6.993   4.351  12.185  0.00  0.00    +0.000 A 
ATOM     21  C   UNL     1       7.837   5.233  12.831  0.00  0.00    +0.000 A 
ATOM     22  N   UNL     1       7.863   5.406  14.171  0.00  0.00    +0.000 NA
ENDBRANCH  16  17
ENDBRANCH   1  16
TORSDOF 6
ENDMDL
MODEL 2
REMARK VINA RESULT:      -7.6      2.893      4.915
REMARK  Name = 
REMARK  7 active torsions:
REMARK  status: ('A' for Active; 'I' for Inactive)
REMARK    1  A    between atoms: C_1  and  C_2
REMARK    2  A    between atoms: C_6  and  C_7
REMARK    3  A    between atoms: C_7  and  N_8
REMARK    4  A    between atoms: N_8  and  C_9
REMARK    5  A    between atoms: N_8  and  C_13
REMARK    6  A    between atoms: C_9  and  C_10
REMARK    7  A    between atoms: C_13  and  C_14
REMARK                            x       y       z     vdW  Elec       q    Type
REMARK                         _______ _______ _______ _____ _____    ______ ____
ROOT
ATOM      1  N   UNL     1       4.664   6.011  18.050  0.00  0.00    +0.000 NA
ENDROOT
BRANCH   1   2
ATOM      2  C   UNL     1       4.305   4.618  17.665  0.00  0.00    +0.000 C 
BRANCH   2   8
ATOM      3  C   UNL     1       2.231   2.887  21.907  0.00  0.00    +0.000 C 
ATOM      4  C   UNL     1       2.081   3.266  20.464  0.00  0.00    +0.000 A 
ATOM      5  C   UNL     1       0.941   2.895  19.743  0.00  0.00    +0.000 A 
ATOM      6  C   UNL     1       0.859   3.146  18.373  0.00  0.00    +0.000 A 
ATOM      7  C   UNL     1       1.932   3.732  17.704  0.00  0.00    +0.000 A 
ATOM      8  C   UNL     1       3.093   4.085  18.404  0.00  0.00    +0.000 A 
ATOM      9  C   UNL     1       3.140   3.889  19.793  0.00  0.00    +0.000 A 
ENDBRANCH   2   8
ENDBRANCH   1   2
BRANCH   1  10
ATOM     10  C   UNL     1       6.108   6.251  17.777  0.00  0.00    +0.000 C 
BRANCH  10  11
ATOM     11  C   UNL     1       7.003   5.358  18.636  0.00  0.00    +0.000 C 
ATOM     12  N   UNL     1       7.872   4.558  17.946  0.00  0.00    +0.000 N 
ATOM     13  O   UNL     1       6.965   5.342  19.860  0.00  0.00    +0.000 OA
ATOM     14  H   UNL     1       7.798   4.464  16.941  0.00  0.00    +0.000 HD
ATOM     15  H   UNL     1       8.435   3.908  18.471  0.00  0.00    +0.000 HD
ENDBRANCH  10  11
ENDBRANCH   1  10
BRANCH   1  16
ATOM     16  C   UNL     1       3.851   6.964  17.241  0.00  0.00    +0.000 C 
BRANCH  16  17
ATOM     17  C   UNL     1       2.879   7.807  18.051  0.00  0.00    +0.000 A 
ATOM     18  C   UNL     1       2.502   7.414  19.334  0.00  0.00    +0.000 A 
ATOM     19  C   UNL     1       1.567   8.181  20.022  0.00  0.00    +0.000 A 
ATOM     20  C   UNL     1       1.042   9.318  19.419  0.00  0.00    +0.000 A 
ATOM     21  C   UNL     1       1.475   9.642  18.147  0.00  0.00    +0.000 A 
ATOM     22  N   UNL     1       2.371   8.913  17.448  0.00  0.00    +0.000 NA
ENDBRANCH  16  17
ENDBRANCH   1  16
TORSDOF 6
ENDMDL
MODEL 3
REMARK VINA RESULT:      -7.6      1.242      1.377
REMARK  Name = 
REMARK  7 active torsions:
REMARK  status: ('A' for Active; 'I' for Inactive)
REMARK    1  A    between atoms: C_1  and  C_2
REMARK    2  A    between atoms: C_6  and  C_7
REMARK    3  A    between atoms: C_7  and  N_8
REMARK    4  A    between atoms: N_8  and  C_9
REMARK    5  A    between atoms: N_8  and  C_13
REMARK    6  A    between atoms: C_9  and  C_10
REMARK    7  A    between atoms: C_13  and  C_14
REMARK                            x       y       z     vdW  Elec       q    Type
REMARK                         _______ _______ _______ _____ _____    ______ ____
ROOT
ATOM      1  N   UNL     1       6.288   5.794  16.956  0.00  0.00    +0.000 NA
ENDROOT
BRANCH   1   2
ATOM      2  C   UNL     1       4.876   6.024  16.542  0.00  0.00    +0.000 C 
BRANCH   2   8
ATOM      3  C   UNL     1       1.771   5.305  20.432  0.00  0.00    +0.000 C 
ATOM      4  C   UNL     1       2.365   4.801  19.151  0.00  0.00    +0.000 A 
ATOM      5  C   UNL     1       2.224   3.460  18.777  0.00  0.00    +0.000 A 
ATOM      6  C   UNL     1       2.877   2.970  17.646  0.00  0.00    +0.000 A 
ATOM      7  C   UNL     1       3.710   3.804  16.903  0.00  0.00    +0.000 A 
ATOM      8  C   UNL     1       3.885   5.143  17.278  0.00  0.00    +0.000 A 
ATOM      9  C   UNL     1       3.172   5.643  18.378  0.00  0.00    +0.000 A 
ENDBRANCH   2   8
ENDBRANCH   1   2
BRANCH   1  10
ATOM     10  C   UNL     1       6.366   5.684  18.439  0.00  0.00    +0.000 C 
BRANCH  10  11
ATOM     11  C   UNL     1       7.717   6.162  18.971  0.00  0.00    +0.000 C 
ATOM     12  N   UNL     1       8.269   5.390  19.956  0.00  0.00    +0.000 N 
ATOM     13  O   UNL     1       8.287   7.166  18.559  0.00  0.00    +0.000 OA
ATOM     14  H   UNL     1       7.731   4.654  20.395  0.00  0.00    +0.000 HD
ATOM     15  H   UNL     1       9.127   5.705  20.379  0.00  0.00    +0.000 HD
ENDBRANCH  10  11
ENDBRANCH   1  10
BRANCH   1  16
ATOM     16  C   UNL     1       6.771   4.521  16.348  0.00  0.00    +0.000 C 
BRANCH  16  17
ATOM     17  C   UNL     1       6.900   4.554  14.834  0.00  0.00    +0.000 A 
ATOM     18  C   UNL     1       6.134   3.702  14.041  0.00  0.00    +0.000 A 
ATOM     19  C   UNL     1       6.321   3.721  12.662  0.00  0.00    +0.000 A 
ATOM     20  C   UNL     1       7.255   4.591  12.113  0.00  0.00    +0.000 A 
ATOM     21  C   UNL     1       7.969   5.409  12.969  0.00  0.00    +0.000 A 
ATOM     22  N   UNL     1       7.820   5.406  14.311  0.00  0.00    +0.000 NA
ENDBRANCH  16  17
ENDBRANCH   1  16
TORSDOF 6
ENDMDL
MODEL 4
REMARK VINA RESULT:      -7.5      3.584      5.266
REMARK  Name = 
REMARK  7 active torsions:
REMARK  status: ('A' for Active; 'I' for Inactive)
REMARK    1  A    between atoms: C_1  and  C_2
REMARK    2  A    between atoms: C_6  and  C_7
REMARK    3  A    between atoms: C_7  and  N_8
REMARK    4  A    between atoms: N_8  and  C_9
REMARK    5  A    between atoms: N_8  and  C_13
REMARK    6  A    between atoms: C_9  and  C_10
REMARK    7  A    between atoms: C_13  and  C_14
REMARK                            x       y       z     vdW  Elec       q    Type
REMARK                         _______ _______ _______ _____ _____    ______ ____
ROOT
ATOM      1  N   UNL     1       3.598   4.171  19.344  0.00  0.00    +0.000 NA
ENDROOT
BRANCH   1   2
ATOM      2  C   UNL     1       2.689   4.817  18.357  0.00  0.00    +0.000 C 
BRANCH   2   8
ATOM      3  C   UNL     1       1.261   8.439  21.539  0.00  0.00    +0.000 C 
ATOM      4  C   UNL     1       1.773   8.045  20.186  0.00  0.00    +0.000 A 
ATOM      5  C   UNL     1       1.775   8.961  19.128  0.00  0.00    +0.000 A 
ATOM      6  C   UNL     1       2.140   8.555  17.845  0.00  0.00    +0.000 A 
ATOM      7  C   UNL     1       2.467   7.223  17.598  0.00  0.00    +0.000 A 
ATOM      8  C   UNL     1       2.445   6.286  18.639  0.00  0.00    +0.000 A 
ATOM      9  C   UNL     1       2.140   6.717  19.940  0.00  0.00    +0.000 A 
ENDBRANCH   2   8
ENDBRANCH   1   2
BRANCH   1  10
ATOM     10  C   UNL     1       2.956   2.944  19.891  0.00  0.00    +0.000 C 
BRANCH  10  11
ATOM     11  C   UNL     1       1.941   3.276  20.986  0.00  0.00    +0.000 C 
ATOM     12  N   UNL     1       0.631   3.287  20.592  0.00  0.00    +0.000 N 
ATOM     13  O   UNL     1       2.255   3.518  22.145  0.00  0.00    +0.000 OA
ATOM     14  H   UNL     1       0.389   3.235  19.611  0.00  0.00    +0.000 HD
ATOM     15  H   UNL     1      -0.063   3.563  21.267  0.00  0.00    +0.000 HD
ENDBRANCH  10  11
ENDBRANCH   1  10
BRANCH   1  16
ATOM     16  C   UNL     1       4.867   3.791  18.660  0.00  0.00    +0.000 C 
BRANCH  16  17
ATOM     17  C   UNL     1       5.893   4.910  18.569  0.00  0.00    +0.000 A 
ATOM     18  C   UNL     1       5.875   5.798  17.496  0.00  0.00    +0.000 A 
ATOM     19  C   UNL     1       6.864   6.774  17.417  0.00  0.00    +0.000 A 
ATOM     20  C   UNL     1       7.834   6.843  18.410  0.00  0.00    +0.000 A 
ATOM     21  C   UNL     1       7.776   5.928  19.444  0.00  0.00    +0.000 A 
ATOM     22  N   UNL     1       6.837   4.962  19.544  0.00  0.00    +0.000 NA
ENDBRANCH  16  17
ENDBRANCH   1  16
TORSDOF 6
ENDMDL
MODEL 5
REMARK VINA RESULT:      -7.4      2.383      5.121
REMARK  Name = 
REMARK  7 active torsions:
REMARK  status: ('A' for Active; 'I' for Inactive)
REMARK    1  A    between atoms: C_1  and  C_2
REMARK    2  A    between atoms: C_6  and  C_7
REMARK    3  A    between atoms: C_7  and  N_8
REMARK    4  A    between atoms: N_8  and  C_9
REMARK    5  A    between atoms: N_8  and  C_13
REMARK    6  A    between atoms: C_9  and  C_10
REMARK    7  A    between atoms: C_13  and  C_14
REMARK                            x       y       z     vdW  Elec       q    Type
REMARK                         _______ _______ _______ _____ _____    ______ ____
ROOT
ATOM      1  N   UNL     1       4.727   4.046  16.959  0.00  0.00    +0.000 NA
ENDROOT
BRANCH   1   2
ATOM      2  C   UNL     1       5.153   4.970  18.047  0.00  0.00    +0.000 C 
BRANCH   2   8
ATOM      3  C   UNL     1       1.427   6.906  20.814  0.00  0.00    +0.000 C 
ATOM      4  C   UNL     1       2.371   7.037  19.656  0.00  0.00    +0.000 A 
ATOM      5  C   UNL     1       2.175   8.024  18.684  0.00  0.00    +0.000 A 
ATOM      6  C   UNL     1       2.985   8.067  17.548  0.00  0.00    +0.000 A 
ATOM      7  C   UNL     1       3.970   7.100  17.355  0.00  0.00    +0.000 A 
ATOM      8  C   UNL     1       4.163   6.088  18.305  0.00  0.00    +0.000 A 
ATOM      9  C   UNL     1       3.388   6.093  19.474  0.00  0.00    +0.000 A 
ENDBRANCH   2   8
ENDBRANCH   1   2
BRANCH   1  10
ATOM     10  C   UNL     1       5.849   3.848  16.000  0.00  0.00    +0.000 C 
BRANCH  10  11
ATOM     11  C   UNL     1       7.069   4.690  16.373  0.00  0.00    +0.000 C 
ATOM     12  N   UNL     1       7.132   5.927  15.792  0.00  0.00    +0.000 N 
ATOM     13  O   UNL     1       7.944   4.306  17.140  0.00  0.00    +0.000 OA
ATOM     14  H   UNL     1       6.491   6.180  15.051  0.00  0.00    +0.000 HD
ATOM     15  H   UNL     1       7.951   6.488  15.962  0.00  0.00    +0.000 HD
ENDBRANCH  10  11
ENDBRANCH   1  10
BRANCH   1  16
ATOM     16  C   UNL     1       4.360   2.729  17.555  0.00  0.00    +0.000 C 
BRANCH  16  17
ATOM     17  C   UNL     1       3.201   2.784  18.537  0.00  0.00    +0.000 A 
ATOM     18  C   UNL     1       1.916   3.097  18.096  0.00  0.00    +0.000 A 
ATOM     19  C   UNL     1       0.891   3.193  19.032  0.00  0.00    +0.000 A 
ATOM     20  C   UNL     1       1.171   2.967  20.375  0.00  0.00    +0.000 A 
ATOM     21  C   UNL     1       2.470   2.653  20.728  0.00  0.00    +0.000 A 
ATOM     22  N   UNL     1       3.490   2.564  19.846  0.00  0.00    +0.000 NA
ENDBRANCH  16  17
ENDBRANCH   1  16
TORSDOF 6
ENDMDL
MODEL 6
REMARK VINA RESULT:      -7.4      1.332      1.476
REMARK  Name = 
REMARK  7 active torsions:
REMARK  status: ('A' for Active; 'I' for Inactive)
REMARK    1  A    between atoms: C_1  and  C_2
REMARK    2  A    between atoms: C_6  and  C_7
REMARK    3  A    between atoms: C_7  and  N_8
REMARK    4  A    between atoms: N_8  and  C_9
REMARK    5  A    between atoms: N_8  and  C_13
REMARK    6  A    between atoms: C_9  and  C_10
REMARK    7  A    between atoms: C_13  and  C_14
REMARK                            x       y       z     vdW  Elec       q    Type
REMARK                         _______ _______ _______ _____ _____    ______ ____
ROOT
ATOM      1  N   UNL     1       6.611   5.649  18.288  0.00  0.00    +0.000 NA
ENDROOT
BRANCH   1   2
ATOM      2  C   UNL     1       5.784   5.255  19.463  0.00  0.00    +0.000 C 
BRANCH   2   8
ATOM      3  C   UNL     1       1.240   3.389  20.536  0.00  0.00    +0.000 C 
ATOM      4  C   UNL     1       2.098   4.269  19.678  0.00  0.00    +0.000 A 
ATOM      5  C   UNL     1       1.615   4.777  18.467  0.00  0.00    +0.000 A 
ATOM      6  C   UNL     1       2.456   5.497  17.618  0.00  0.00    +0.000 A 
ATOM      7  C   UNL     1       3.796   5.680  17.951  0.00  0.00    +0.000 A 
ATOM      8  C   UNL     1       4.304   5.157  19.148  0.00  0.00    +0.000 A 
ATOM      9  C   UNL     1       3.436   4.492  20.026  0.00  0.00    +0.000 A 
ENDBRANCH   2   8
ENDBRANCH   1   2
BRANCH   1  10
ATOM     10  C   UNL     1       7.808   6.406  18.748  0.00  0.00    +0.000 C 
BRANCH  10  11
ATOM     11  C   UNL     1       7.918   7.766  18.057  0.00  0.00    +0.000 C 
ATOM     12  N   UNL     1       7.195   7.901  16.904  0.00  0.00    +0.000 N 
ATOM     13  O   UNL     1       8.601   8.687  18.488  0.00  0.00    +0.000 OA
ATOM     14  H   UNL     1       6.755   7.098  16.475  0.00  0.00    +0.000 HD
ATOM     15  H   UNL     1       7.289   8.759  16.385  0.00  0.00    +0.000 HD
ENDBRANCH  10  11
ENDBRANCH   1  10
BRANCH   1  16
ATOM     16  C   UNL     1       7.058   4.420  17.573  0.00  0.00    +0.000 C 
BRANCH  16  17
ATOM     17  C   UNL     1       6.801   4.434  16.075  0.00  0.00    +0.000 A 
ATOM     18  C   UNL     1       5.814   3.621  15.520  0.00  0.00    +0.000 A 
ATOM     19  C   UNL     1       5.647   3.618  14.139  0.00  0.00    +0.000 A 
ATOM     20  C   UNL     1       6.458   4.428  13.353  0.00  0.00    +0.000 A 
ATOM     21  C   UNL     1       7.407   5.210  13.982  0.00  0.00    +0.000 A 
ATOM     22  N   UNL     1       7.603   5.227  15.319  0.00  0.00    +0.000 NA
ENDBRANCH  16  17
ENDBRANCH   1  16
TORSDOF 6
ENDMDL
MODEL 7
REMARK VINA RESULT:      -7.3      1.445      2.004
REMARK  Name = 
REMARK  7 active torsions:
REMARK  status: ('A' for Active; 'I' for Inactive)
REMARK    1  A    between atoms: C_1  and  C_2
REMARK    2  A    between atoms: C_6  and  C_7
REMARK    3  A    between atoms: C_7  and  N_8
REMARK    4  A    between atoms: N_8  and  C_9
REMARK    5  A    between atoms: N_8  and  C_13
REMARK    6  A    between atoms: C_9  and  C_10
REMARK    7  A    between atoms: C_13  and  C_14
REMARK                            x       y       z     vdW  Elec       q    Type
REMARK                         _______ _______ _______ _____ _____    ______ ____
ROOT
ATOM      1  N   UNL     1       6.713   5.643  18.257  0.00  0.00    +0.000 NA
ENDROOT
BRANCH   1   2
ATOM      2  C   UNL     1       5.964   5.137  19.441  0.00  0.00    +0.000 C 
BRANCH   2   8
ATOM      3  C   UNL     1       1.345   4.682  17.506  0.00  0.00    +0.000 C 
ATOM      4  C   UNL     1       2.552   4.036  18.118  0.00  0.00    +0.000 A 
ATOM      5  C   UNL     1       2.498   2.718  18.584  0.00  0.00    +0.000 A 
ATOM      6  C   UNL     1       3.586   2.162  19.257  0.00  0.00    +0.000 A 
ATOM      7  C   UNL     1       4.721   2.932  19.509  0.00  0.00    +0.000 A 
ATOM      8  C   UNL     1       4.782   4.262  19.073  0.00  0.00    +0.000 A 
ATOM      9  C   UNL     1       3.710   4.791  18.339  0.00  0.00    +0.000 A 
ENDBRANCH   2   8
ENDBRANCH   1   2
BRANCH   1  10
ATOM     10  C   UNL     1       7.835   6.513  18.705  0.00  0.00    +0.000 C 
BRANCH  10  11
ATOM     11  C   UNL     1       7.833   7.859  17.980  0.00  0.00    +0.000 C 
ATOM     12  N   UNL     1       7.021   7.935  16.882  0.00  0.00    +0.000 N 
ATOM     13  O   UNL     1       8.503   8.819  18.340  0.00  0.00    +0.000 OA
ATOM     14  H   UNL     1       6.588   7.103  16.503  0.00  0.00    +0.000 HD
ATOM     15  H   UNL     1       7.039   8.783  16.339  0.00  0.00    +0.000 HD
ENDBRANCH  10  11
ENDBRANCH   1  10
BRANCH   1  16
ATOM     16  C   UNL     1       7.268   4.484  17.501  0.00  0.00    +0.000 C 
BRANCH  16  17
ATOM     17  C   UNL     1       6.904   4.461  16.025  0.00  0.00    +0.000 A 
ATOM     18  C   UNL     1       5.871   3.646  15.565  0.00  0.00    +0.000 A 
ATOM     19  C   UNL     1       5.604   3.609  14.200  0.00  0.00    +0.000 A 
ATOM     20  C   UNL     1       6.365   4.388  13.335  0.00  0.00    +0.000 A 
ATOM     21  C   UNL     1       7.366   5.174  13.874  0.00  0.00    +0.000 A 
ATOM     22  N   UNL     1       7.659   5.223  15.191  0.00  0.00    +0.000 NA
ENDBRANCH  16  17
ENDBRANCH   1  16
TORSDOF 6
ENDMDL
MODEL 8
REMARK VINA RESULT:      -7.3      1.246      1.728
REMARK  Name = 
REMARK  7 active torsions:
REMARK  status: ('A' for Active; 'I' for Inactive)
REMARK    1  A    between atoms: C_1  and  C_2
REMARK    2  A    between atoms: C_6  and  C_7
REMARK    3  A    between atoms: C_7  and  N_8
REMARK    4  A    between atoms: N_8  and  C_9
REMARK    5  A    between atoms: N_8  and  C_13
REMARK    6  A    between atoms: C_9  and  C_10
REMARK    7  A    between atoms: C_13  and  C_14
REMARK                            x       y       z     vdW  Elec       q    Type
REMARK                         _______ _______ _______ _____ _____    ______ ____
ROOT
ATOM      1  N   UNL     1       6.312   6.242  16.403  0.00  0.00    +0.000 NA
ENDROOT
BRANCH   1   2
ATOM      2  C   UNL     1       4.856   6.519  16.255  0.00  0.00    +0.000 C 
BRANCH   2   8
ATOM      3  C   UNL     1       2.486   2.337  17.731  0.00  0.00    +0.000 C 
ATOM      4  C   UNL     1       2.870   3.761  18.002  0.00  0.00    +0.000 A 
ATOM      5  C   UNL     1       2.248   4.486  19.024  0.00  0.00    +0.000 A 
ATOM      6  C   UNL     1       2.523   5.843  19.195  0.00  0.00    +0.000 A 
ATOM      7  C   UNL     1       3.390   6.496  18.321  0.00  0.00    +0.000 A 
ATOM      8  C   UNL     1       4.002   5.792  17.275  0.00  0.00    +0.000 A 
ATOM      9  C   UNL     1       3.770   4.414  17.152  0.00  0.00    +0.000 A 
ENDBRANCH   2   8
ENDBRANCH   1   2
BRANCH   1  10
ATOM     10  C   UNL     1       6.712   6.400  17.828  0.00  0.00    +0.000 C 
BRANCH  10  11
ATOM     11  C   UNL     1       7.761   7.499  18.004  0.00  0.00    +0.000 C 
ATOM     12  N   UNL     1       8.574   7.368  19.096  0.00  0.00    +0.000 N 
ATOM     13  O   UNL     1       7.884   8.442  17.232  0.00  0.00    +0.000 OA
ATOM     14  H   UNL     1       8.374   6.676  19.807  0.00  0.00    +0.000 HD
ATOM     15  H   UNL     1       9.236   8.103  19.283  0.00  0.00    +0.000 HD
ENDBRANCH  10  11
ENDBRANCH   1  10
BRANCH   1  16
ATOM     16  C   UNL     1       6.587   4.840  15.974  0.00  0.00    +0.000 C 
BRANCH  16  17
ATOM     17  C   UNL     1       6.773   4.665  14.475  0.00  0.00    +0.000 A 
ATOM     18  C   UNL     1       6.036   3.708  13.779  0.00  0.00    +0.000 A 
ATOM     19  C   UNL     1       6.274   3.537  12.419  0.00  0.00    +0.000 A 
ATOM     20  C   UNL     1       7.229   4.328  11.790  0.00  0.00    +0.000 A 
ATOM     21  C   UNL     1       7.911   5.259  12.551  0.00  0.00    +0.000 A 
ATOM     22  N   UNL     1       7.712   5.441  13.875  0.00  0.00    +0.000 NA
ENDBRANCH  16  17
ENDBRANCH   1  16
TORSDOF 6
ENDMDL
MODEL 9
REMARK VINA RESULT:      -7.3      1.589      2.185
REMARK  Name = 
REMARK  7 active torsions:
REMARK  status: ('A' for Active; 'I' for Inactive)
REMARK    1  A    between atoms: C_1  and  C_2
REMARK    2  A    between atoms: C_6  and  C_7
REMARK    3  A    between atoms: C_7  and  N_8
REMARK    4  A    between atoms: N_8  and  C_9
REMARK    5  A    between atoms: N_8  and  C_13
REMARK    6  A    between atoms: C_9  and  C_10
REMARK    7  A    between atoms: C_13  and  C_14
REMARK                            x       y       z     vdW  Elec       q    Type
REMARK                         _______ _______ _______ _____ _____    ______ ____
ROOT
ATOM      1  N   UNL     1       6.874   5.745  18.114  0.00  0.00    +0.000 NA
ENDROOT
BRANCH   1   2
ATOM      2  C   UNL     1       5.931   5.158  19.106  0.00  0.00    +0.000 C 
BRANCH   2   8
ATOM      3  C   UNL     1       1.989   8.034  17.889  0.00  0.00    +0.000 C 
ATOM      4  C   UNL     1       2.572   6.666  18.082  0.00  0.00    +0.000 A 
ATOM      5  C   UNL     1       1.745   5.539  18.141  0.00  0.00    +0.000 A 
ATOM      6  C   UNL     1       2.280   4.285  18.438  0.00  0.00    +0.000 A 
ATOM      7  C   UNL     1       3.638   4.153  18.720  0.00  0.00    +0.000 A 
ATOM      8  C   UNL     1       4.478   5.275  18.691  0.00  0.00    +0.000 A 
ATOM      9  C   UNL     1       3.942   6.520  18.326  0.00  0.00    +0.000 A 
ENDBRANCH   2   8
ENDBRANCH   1   2
BRANCH   1  10
ATOM     10  C   UNL     1       7.938   6.509  18.822  0.00  0.00    +0.000 C 
BRANCH  10  11
ATOM     11  C   UNL     1       8.149   7.891  18.204  0.00  0.00    +0.000 C 
ATOM     12  N   UNL     1       8.843   8.782  18.977  0.00  0.00    +0.000 N 
ATOM     13  O   UNL     1       7.736   8.204  17.094  0.00  0.00    +0.000 OA
ATOM     14  H   UNL     1       9.050   8.572  19.944  0.00  0.00    +0.000 HD
ATOM     15  H   UNL     1       8.949   9.723  18.633  0.00  0.00    +0.000 HD
ENDBRANCH  10  11
ENDBRANCH   1  10
BRANCH   1  16
ATOM     16  C   UNL     1       7.506   4.643  17.333  0.00  0.00    +0.000 C 
BRANCH  16  17
ATOM     17  C   UNL     1       7.012   4.522  15.901  0.00  0.00    +0.000 A 
ATOM     18  C   UNL     1       5.893   3.745  15.604  0.00  0.00    +0.000 A 
ATOM     19  C   UNL     1       5.503   3.612  14.274  0.00  0.00    +0.000 A 
ATOM     20  C   UNL     1       6.231   4.259  13.283  0.00  0.00    +0.000 A 
ATOM     21  C   UNL     1       7.324   5.016  13.663  0.00  0.00    +0.000 A 
ATOM     22  N   UNL     1       7.735   5.156  14.942  0.00  0.00    +0.000 NA
ENDBRANCH  16  17
ENDBRANCH   1  16
TORSDOF 6
ENDMDL
