MODEL 1
REMARK VINA RESULT:      -8.0      0.000      0.000
REMARK  Name = 
REMARK  3 active torsions:
REMARK  status: ('A' for Active; 'I' for Inactive)
REMARK    1  A    between atoms: C_1  and  C_2
REMARK    2  A    between atoms: C_2  and  C_3
REMARK    3  A    between atoms: C_5  and  C_6
REMARK                            x       y       z     vdW  Elec       q    Type
REMARK                         _______ _______ _______ _____ _____    ______ ____
ROOT
ATOM      1  C   UNL     1       5.239   6.056  15.334  0.00  0.00    +0.000 C 
ATOM      2  C   UNL     1       5.362   5.987  16.861  0.00  0.00    +0.000 C 
ATOM      3  C   UNL     1       6.779   6.375  17.287  0.00  0.00    +0.000 C 
ATOM      4  C   UNL     1       4.365   6.978  17.434  0.00  0.00    +0.000 C 
ATOM      5  C   UNL     1       3.375   6.614  18.261  0.00  0.00    +0.000 C 
ATOM      6  C   UNL     1       3.261   5.200  18.685  0.00  0.00    +0.000 A 
ATOM      7  C   UNL     1       2.291   4.765  19.609  0.00  0.00    +0.000 A 
ATOM      8  C   UNL     1       2.244   3.422  19.999  0.00  0.00    +0.000 A 
ATOM      9 CL   UNL     1       1.050   2.885  21.168  0.00  0.00    +0.000 Cl
ATOM     10  C   UNL     1       3.158   2.506  19.467  0.00  0.00    +0.000 A 
ATOM     11  C   UNL     1       4.119   2.931  18.545  0.00  0.00    +0.000 A 
ATOM     12  C   UNL     1       4.177   4.275  18.158  0.00  0.00    +0.000 A 
ATOM     13  O   UNL     1       5.128   4.678  17.278  0.00  0.00    +0.000 OA
ENDROOT
BRANCH   5  14
ATOM     14  C   UNL     1       2.414   7.645  18.685  0.00  0.00    +0.000 A 
ATOM     15  C   UNL     1       1.927   8.561  17.744  0.00  0.00    +0.000 A 
ATOM     16  C   UNL     1       1.056   9.571  18.159  0.00  0.00    +0.000 A 
ATOM     17  N   UNL     1       0.684   9.655  19.465  0.00  0.00    +0.000 NA
ATOM     18  C   UNL     1       1.142   8.774  20.396  0.00  0.00    +0.000 A 
ATOM     19  C   UNL     1       2.021   7.753  20.024  0.00  0.00    +0.000 A 
ENDBRANCH   5  14
TORSDOF 1
ENDMDL
MODEL 2
REMARK VINA RESULT:      -7.9      0.211      1.120
REMARK  Name = 
REMARK  3 active torsions:
REMARK  status: ('A' for Active; 'I' for Inactive)
REMARK    1  A    between atoms: C_1  and  C_2
REMARK    2  A    between atoms: C_2  and  C_3
REMARK    3  A    between atoms: C_5  and  C_6
REMARK                            x       y       z     vdW  Elec       q    Type
REMARK                         _______ _______ _______ _____ _____    ______ ____
ROOT
ATOM      1  C   UNL     1       5.308   5.821  15.241  0.00  0.00    +0.000 C 
ATOM      2  C   UNL     1       5.437   5.747  16.767  0.00  0.00    +0.000 C 
ATOM      3  C   UNL     1       6.874   6.066  17.184  0.00  0.00    +0.000 C 
ATOM      4  C   UNL     1       4.493   6.786  17.345  0.00  0.00    +0.000 C 
ATOM      5  C   UNL     1       3.492   6.472  18.178  0.00  0.00    +0.000 C 
ATOM      6  C   UNL     1       3.311   5.065  18.605  0.00  0.00    +0.000 A 
ATOM      7  C   UNL     1       2.327   4.679  19.536  0.00  0.00    +0.000 A 
ATOM      8  C   UNL     1       2.218   3.341  19.928  0.00  0.00    +0.000 A 
ATOM      9 CL   UNL     1       1.006   2.863  21.105  0.00  0.00    +0.000 Cl
ATOM     10  C   UNL     1       3.083   2.380  19.392  0.00  0.00    +0.000 A 
ATOM     11  C   UNL     1       4.057   2.757  18.463  0.00  0.00    +0.000 A 
ATOM     12  C   UNL     1       4.178   4.097  18.074  0.00  0.00    +0.000 A 
ATOM     13  O   UNL     1       5.143   4.452  17.188  0.00  0.00    +0.000 OA
ENDROOT
BRANCH   5  14
ATOM     14  C   UNL     1       2.584   7.549  18.608  0.00  0.00    +0.000 A 
ATOM     15  C   UNL     1       2.146   7.590  19.938  0.00  0.00    +0.000 A 
ATOM     16  C   UNL     1       1.245   8.581  20.330  0.00  0.00    +0.000 A 
ATOM     17  N   UNL     1       0.803   9.497  19.427  0.00  0.00    +0.000 NA
ATOM     18  C   UNL     1       1.217   9.478  18.130  0.00  0.00    +0.000 A 
ATOM     19  C   UNL     1       2.114   8.498  17.694  0.00  0.00    +0.000 A 
ENDBRANCH   5  14
TORSDOF 1
ENDMDL
MODEL 3
REMARK VINA RESULT:      -7.8      1.097      1.097
REMARK  Name = 
REMARK  3 active torsions:
REMARK  status: ('A' for Active; 'I' for Inactive)
REMARK    1  A    between atoms: C_1  and  C_2
REMARK    2  A    between atoms: C_2  and  C_3
REMARK    3  A    between atoms: C_5  and  C_6
REMARK                            x       y       z     vdW  Elec       q    Type
REMARK                         _______ _______ _______ _____ _____    ______ ____
ROOT
ATOM      1  C   UNL     1       6.366   5.933  15.722  0.00  0.00    +0.000 C 
ATOM      2  C   UNL     1       5.988   5.494  17.141  0.00  0.00    +0.000 C 
ATOM      3  C   UNL     1       7.231   5.488  18.033  0.00  0.00    +0.000 C 
ATOM      4  C   UNL     1       4.984   6.503  17.667  0.00  0.00    +0.000 C 
ATOM      5  C   UNL     1       3.747   6.162  18.054  0.00  0.00    +0.000 C 
ATOM      6  C   UNL     1       3.338   4.739  18.020  0.00  0.00    +0.000 A 
ATOM      7  C   UNL     1       2.081   4.303  18.481  0.00  0.00    +0.000 A 
ATOM      8  C   UNL     1       1.756   2.943  18.455  0.00  0.00    +0.000 A 
ATOM      9 CL   UNL     1       0.197   2.398  19.051  0.00  0.00    +0.000 Cl
ATOM     10  C   UNL     1       2.677   2.011  17.963  0.00  0.00    +0.000 A 
ATOM     11  C   UNL     1       3.924   2.439  17.499  0.00  0.00    +0.000 A 
ATOM     12  C   UNL     1       4.260   3.798  17.532  0.00  0.00    +0.000 A 
ATOM     13  O   UNL     1       5.482   4.196  17.098  0.00  0.00    +0.000 OA
ENDROOT
BRANCH   5  14
ATOM     14  C   UNL     1       2.828   7.237  18.465  0.00  0.00    +0.000 A 
ATOM     15  C   UNL     1       2.498   8.246  17.551  0.00  0.00    +0.000 A 
ATOM     16  C   UNL     1       1.669   9.293  17.959  0.00  0.00    +0.000 A 
ATOM     17  N   UNL     1       1.185   9.323  19.230  0.00  0.00    +0.000 NA
ATOM     18  C   UNL     1       1.490   8.352  20.133  0.00  0.00    +0.000 A 
ATOM     19  C   UNL     1       2.323   7.290  19.769  0.00  0.00    +0.000 A 
ENDBRANCH   5  14
TORSDOF 1
ENDMDL
MODEL 4
REMARK VINA RESULT:      -7.7      2.428      4.036
REMARK  Name = 
REMARK  3 active torsions:
REMARK  status: ('A' for Active; 'I' for Inactive)
REMARK    1  A    between atoms: C_1  and  C_2
REMARK    2  A    between atoms: C_2  and  C_3
REMARK    3  A    between atoms: C_5  and  C_6
REMARK                            x       y       z     vdW  Elec       q    Type
REMARK                         _______ _______ _______ _____ _____    ______ ____
ROOT
ATOM      1  C   UNL     1       2.863   2.711  19.748  0.00  0.00    +0.000 C 
ATOM      2  C   UNL     1       3.145   3.452  18.436  0.00  0.00    +0.000 C 
ATOM      3  C   UNL     1       2.506   2.702  17.265  0.00  0.00    +0.000 C 
ATOM      4  C   UNL     1       2.523   4.831  18.561  0.00  0.00    +0.000 C 
ATOM      5  C   UNL     1       3.238   5.961  18.465  0.00  0.00    +0.000 C 
ATOM      6  C   UNL     1       4.688   5.884  18.176  0.00  0.00    +0.000 A 
ATOM      7  C   UNL     1       5.482   7.032  17.989  0.00  0.00    +0.000 A 
ATOM      8  C   UNL     1       6.843   6.904  17.688  0.00  0.00    +0.000 A 
ATOM      9 CL   UNL     1       7.827   8.335  17.432  0.00  0.00    +0.000 Cl
ATOM     10  C   UNL     1       7.420   5.634  17.579  0.00  0.00    +0.000 A 
ATOM     11  C   UNL     1       6.638   4.492  17.769  0.00  0.00    +0.000 A 
ATOM     12  C   UNL     1       5.273   4.613  18.061  0.00  0.00    +0.000 A 
ATOM     13  O   UNL     1       4.521   3.495  18.222  0.00  0.00    +0.000 OA
ENDROOT
BRANCH   5  14
ATOM     14  C   UNL     1       2.545   7.241  18.690  0.00  0.00    +0.000 A 
ATOM     15  C   UNL     1       2.056   7.542  19.967  0.00  0.00    +0.000 A 
ATOM     16  C   UNL     1       1.353   8.732  20.167  0.00  0.00    +0.000 A 
ATOM     17  N   UNL     1       1.154   9.588  19.129  0.00  0.00    +0.000 NA
ATOM     18  C   UNL     1       1.623   9.317  17.880  0.00  0.00    +0.000 A 
ATOM     19  C   UNL     1       2.325   8.133  17.635  0.00  0.00    +0.000 A 
ENDBRANCH   5  14
TORSDOF 1
ENDMDL
MODEL 5
REMARK VINA RESULT:      -7.7      2.418      3.895
REMARK  Name = 
REMARK  3 active torsions:
REMARK  status: ('A' for Active; 'I' for Inactive)
REMARK    1  A    between atoms: C_1  and  C_2
REMARK    2  A    between atoms: C_2  and  C_3
REMARK    3  A    between atoms: C_5  and  C_6
REMARK                            x       y       z     vdW  Elec       q    Type
REMARK                         _______ _______ _______ _____ _____    ______ ____
ROOT
ATOM      1  C   UNL     1       2.932   2.591  19.902  0.00  0.00    +0.000 C 
ATOM      2  C   UNL     1       3.181   3.312  18.571  0.00  0.00    +0.000 C 
ATOM      3  C   UNL     1       2.542   2.525  17.425  0.00  0.00    +0.000 C 
ATOM      4  C   UNL     1       2.532   4.680  18.678  0.00  0.00    +0.000 C 
ATOM      5  C   UNL     1       3.222   5.822  18.550  0.00  0.00    +0.000 C 
ATOM      6  C   UNL     1       4.669   5.769  18.242  0.00  0.00    +0.000 A 
ATOM      7  C   UNL     1       5.436   6.929  18.021  0.00  0.00    +0.000 A 
ATOM      8  C   UNL     1       6.795   6.824  17.704  0.00  0.00    +0.000 A 
ATOM      9 CL   UNL     1       7.745   8.269  17.406  0.00  0.00    +0.000 Cl
ATOM     10  C   UNL     1       7.397   5.564  17.612  0.00  0.00    +0.000 A 
ATOM     11  C   UNL     1       6.641   4.410  17.836  0.00  0.00    +0.000 A 
ATOM     12  C   UNL     1       5.279   4.508  18.144  0.00  0.00    +0.000 A 
ATOM     13  O   UNL     1       4.553   3.378  18.338  0.00  0.00    +0.000 OA
ENDROOT
BRANCH   5  14
ATOM     14  C   UNL     1       2.505   7.091  18.759  0.00  0.00    +0.000 A 
ATOM     15  C   UNL     1       2.326   7.966  17.680  0.00  0.00    +0.000 A 
ATOM     16  C   UNL     1       1.694   9.192  17.892  0.00  0.00    +0.000 A 
ATOM     17  N   UNL     1       1.253   9.526  19.134  0.00  0.00    +0.000 NA
ATOM     18  C   UNL     1       1.413   8.690  20.197  0.00  0.00    +0.000 A 
ATOM     19  C   UNL     1       2.048   7.456  20.030  0.00  0.00    +0.000 A 
ENDBRANCH   5  14
TORSDOF 1
ENDMDL
MODEL 6
REMARK VINA RESULT:      -7.5      3.843      5.467
REMARK  Name = 
REMARK  3 active torsions:
REMARK  status: ('A' for Active; 'I' for Inactive)
REMARK    1  A    between atoms: C_1  and  C_2
REMARK    2  A    between atoms: C_2  and  C_3
REMARK    3  A    between atoms: C_5  and  C_6
REMARK                            x       y       z     vdW  Elec       q    Type
REMARK                         _______ _______ _______ _____ _____    ______ ____
ROOT
ATOM      1  C   UNL     1       7.424   6.789  18.231  0.00  0.00    +0.000 C 
ATOM      2  C   UNL     1       7.408   5.354  17.693  0.00  0.00    +0.000 C 
ATOM      3  C   UNL     1       8.461   4.514  18.418  0.00  0.00    +0.000 C 
ATOM      4  C   UNL     1       6.025   4.792  17.969  0.00  0.00    +0.000 C 
ATOM      5  C   UNL     1       5.213   4.353  16.997  0.00  0.00    +0.000 C 
ATOM      6  C   UNL     1       5.684   4.364  15.593  0.00  0.00    +0.000 A 
ATOM      7  C   UNL     1       4.911   3.849  14.534  0.00  0.00    +0.000 A 
ATOM      8  C   UNL     1       5.414   3.856  13.229  0.00  0.00    +0.000 A 
ATOM      9 CL   UNL     1       4.460   3.194  11.912  0.00  0.00    +0.000 Cl
ATOM     10  C   UNL     1       6.686   4.380  12.971  0.00  0.00    +0.000 A 
ATOM     11  C   UNL     1       7.454   4.897  14.017  0.00  0.00    +0.000 A 
ATOM     12  C   UNL     1       6.960   4.885  15.328  0.00  0.00    +0.000 A 
ATOM     13  O   UNL     1       7.726   5.370  16.336  0.00  0.00    +0.000 OA
ENDROOT
BRANCH   5  14
ATOM     14  C   UNL     1       3.860   3.910  17.372  0.00  0.00    +0.000 A 
ATOM     15  C   UNL     1       3.614   2.546  17.575  0.00  0.00    +0.000 A 
ATOM     16  C   UNL     1       2.319   2.122  17.879  0.00  0.00    +0.000 A 
ATOM     17  N   UNL     1       1.312   3.029  17.980  0.00  0.00    +0.000 NA
ATOM     18  C   UNL     1       1.527   4.360  17.790  0.00  0.00    +0.000 A 
ATOM     19  C   UNL     1       2.807   4.826  17.477  0.00  0.00    +0.000 A 
ENDBRANCH   5  14
TORSDOF 1
ENDMDL
MODEL 7
REMARK VINA RESULT:      -7.5      3.813      5.414
REMARK  Name = 
REMARK  3 active torsions:
REMARK  status: ('A' for Active; 'I' for Inactive)
REMARK    1  A    between atoms: C_1  and  C_2
REMARK    2  A    between atoms: C_2  and  C_3
REMARK    3  A    between atoms: C_5  and  C_6
REMARK                            x       y       z     vdW  Elec       q    Type
REMARK                         _______ _______ _______ _____ _____    ______ ____
ROOT
ATOM      1  C   UNL     1       6.724   7.727  17.841  0.00  0.00    +0.000 C 
ATOM      2  C   UNL     1       7.023   6.249  17.566  0.00  0.00    +0.000 C 
ATOM      3  C   UNL     1       8.125   5.756  18.507  0.00  0.00    +0.000 C 
ATOM      4  C   UNL     1       5.742   5.479  17.829  0.00  0.00    +0.000 C 
ATOM      5  C   UNL     1       5.133   4.742  16.890  0.00  0.00    +0.000 C 
ATOM      6  C   UNL     1       5.745   4.620  15.546  0.00  0.00    +0.000 A 
ATOM      7  C   UNL     1       5.197   3.804  14.538  0.00  0.00    +0.000 A 
ATOM      8  C   UNL     1       5.831   3.701  13.296  0.00  0.00    +0.000 A 
ATOM      9 CL   UNL     1       5.161   2.665  12.047  0.00  0.00    +0.000 Cl
ATOM     10  C   UNL     1       7.009   4.416  13.048  0.00  0.00    +0.000 A 
ATOM     11  C   UNL     1       7.553   5.232  14.043  0.00  0.00    +0.000 A 
ATOM     12  C   UNL     1       6.929   5.332  15.293  0.00  0.00    +0.000 A 
ATOM     13  O   UNL     1       7.480   6.112  16.256  0.00  0.00    +0.000 OA
ENDROOT
BRANCH   5  14
ATOM     14  C   UNL     1       3.848   4.108  17.231  0.00  0.00    +0.000 A 
ATOM     15  C   UNL     1       2.718   4.910  17.432  0.00  0.00    +0.000 A 
ATOM     16  C   UNL     1       1.513   4.313  17.807  0.00  0.00    +0.000 A 
ATOM     17  N   UNL     1       1.444   2.964  17.970  0.00  0.00    +0.000 NA
ATOM     18  C   UNL     1       2.528   2.165  17.777  0.00  0.00    +0.000 A 
ATOM     19  C   UNL     1       3.756   2.723  17.408  0.00  0.00    +0.000 A 
ENDBRANCH   5  14
TORSDOF 1
ENDMDL
MODEL 8
REMARK VINA RESULT:      -7.4      2.320      4.091
REMARK  Name = 
REMARK  3 active torsions:
REMARK  status: ('A' for Active; 'I' for Inactive)
REMARK    1  A    between atoms: C_1  and  C_2
REMARK    2  A    between atoms: C_2  and  C_3
REMARK    3  A    between atoms: C_5  and  C_6
REMARK                            x       y       z     vdW  Elec       q    Type
REMARK                         _______ _______ _______ _____ _____    ______ ____
ROOT
ATOM      1  C   UNL     1       1.822   2.940  21.467  0.00  0.00    +0.000 C 
ATOM      2  C   UNL     1       1.953   3.389  20.007  0.00  0.00    +0.000 C 
ATOM      3  C   UNL     1       1.001   2.579  19.125  0.00  0.00    +0.000 C 
ATOM      4  C   UNL     1       1.572   4.858  19.958  0.00  0.00    +0.000 C 
ATOM      5  C   UNL     1       2.412   5.810  19.529  0.00  0.00    +0.000 C 
ATOM      6  C   UNL     1       3.754   5.431  19.030  0.00  0.00    +0.000 A 
ATOM      7  C   UNL     1       4.655   6.372  18.496  0.00  0.00    +0.000 A 
ATOM      8  C   UNL     1       5.899   5.956  18.012  0.00  0.00    +0.000 A 
ATOM      9 CL   UNL     1       7.013   7.127  17.325  0.00  0.00    +0.000 Cl
ATOM     10  C   UNL     1       6.255   4.604  18.062  0.00  0.00    +0.000 A 
ATOM     11  C   UNL     1       5.367   3.667  18.597  0.00  0.00    +0.000 A 
ATOM     12  C   UNL     1       4.116   4.075  19.075  0.00  0.00    +0.000 A 
ATOM     13  O   UNL     1       3.255   3.151  19.571  0.00  0.00    +0.000 OA
ENDROOT
BRANCH   5  14
ATOM     14  C   UNL     1       1.967   7.212  19.607  0.00  0.00    +0.000 A 
ATOM     15  C   UNL     1       1.474   7.711  20.820  0.00  0.00    +0.000 A 
ATOM     16  C   UNL     1       1.004   9.024  20.879  0.00  0.00    +0.000 A 
ATOM     17  N   UNL     1       1.032   9.808  19.768  0.00  0.00    +0.000 NA
ATOM     18  C   UNL     1       1.508   9.345  18.579  0.00  0.00    +0.000 A 
ATOM     19  C   UNL     1       1.982   8.034  18.475  0.00  0.00    +0.000 A 
ENDBRANCH   5  14
TORSDOF 1
ENDMDL
MODEL 9
REMARK VINA RESULT:      -7.3      2.341      3.913
REMARK  Name = 
REMARK  3 active torsions:
REMARK  status: ('A' for Active; 'I' for Inactive)
REMARK    1  A    between atoms: C_1  and  C_2
REMARK    2  A    between atoms: C_2  and  C_3
REMARK    3  A    between atoms: C_5  and  C_6
REMARK                            x       y       z     vdW  Elec       q    Type
REMARK                         _______ _______ _______ _____ _____    ______ ____
ROOT
ATOM      1  C   UNL     1       1.903   3.216  21.319  0.00  0.00    +0.000 C 
ATOM      2  C   UNL     1       2.111   3.569  19.842  0.00  0.00    +0.000 C 
ATOM      3  C   UNL     1       1.229   2.679  18.965  0.00  0.00    +0.000 C 
ATOM      4  C   UNL     1       1.703   5.021  19.671  0.00  0.00    +0.000 C 
ATOM      5  C   UNL     1       2.547   5.963  19.226  0.00  0.00    +0.000 C 
ATOM      6  C   UNL     1       3.924   5.584  18.833  0.00  0.00    +0.000 A 
ATOM      7  C   UNL     1       4.835   6.509  18.288  0.00  0.00    +0.000 A 
ATOM      8  C   UNL     1       6.114   6.092  17.905  0.00  0.00    +0.000 A 
ATOM      9 CL   UNL     1       7.243   7.240  17.205  0.00  0.00    +0.000 Cl
ATOM     10  C   UNL     1       6.494   4.755  18.069  0.00  0.00    +0.000 A 
ATOM     11  C   UNL     1       5.596   3.835  18.615  0.00  0.00    +0.000 A 
ATOM     12  C   UNL     1       4.310   4.243  18.991  0.00  0.00    +0.000 A 
ATOM     13  O   UNL     1       3.441   3.334  19.499  0.00  0.00    +0.000 OA
ENDROOT
BRANCH   5  14
ATOM     14  C   UNL     1       2.070   7.356  19.182  0.00  0.00    +0.000 A 
ATOM     15  C   UNL     1       2.087   8.051  17.966  0.00  0.00    +0.000 A 
ATOM     16  C   UNL     1       1.684   9.387  17.936  0.00  0.00    +0.000 A 
ATOM     17  N   UNL     1       1.275  10.001  19.079  0.00  0.00    +0.000 NA
ATOM     18  C   UNL     1       1.248   9.344  20.271  0.00  0.00    +0.000 A 
ATOM     19  C   UNL     1       1.650   8.008  20.347  0.00  0.00    +0.000 A 
ENDBRANCH   5  14
TORSDOF 1
ENDMDL
