MODEL 1
REMARK VINA RESULT:      -7.3      0.000      0.000
REMARK  Name = 
REMARK  9 active torsions:
REMARK  status: ('A' for Active; 'I' for Inactive)
REMARK    1  A    between atoms: C_1  and  O_2
REMARK    2  A    between atoms: O_2  and  C_3
REMARK    3  A    between atoms: C_3  and  C_5
REMARK    4  A    between atoms: C_8  and  N_9
REMARK    5  A    between atoms: C_10  and  C_12
REMARK    6  A    between atoms: C_12  and  S_13
REMARK    7  A    between atoms: S_13  and  C_14
REMARK    8  A    between atoms: C_16  and  C_17
REMARK    9  A    between atoms: C_19  and  O_20
REMARK                            x       y       z     vdW  Elec       q    Type
REMARK                         _______ _______ _______ _____ _____    ______ ____
ROOT
ATOM      1  N   UNL     1       2.813   5.793  19.999  0.00  0.00    +0.000 N 
ATOM      2  C   UNL     1       2.124   4.641  20.344  0.00  0.00    +0.000 C 
ATOM      3  O   UNL     1       0.901   4.511  20.305  0.00  0.00    +0.000 OA
ATOM      4  H   UNL     1       3.821   5.711  19.918  0.00  0.00    +0.000 HD
ENDROOT
BRANCH   1   8
ATOM      5  C   UNL     1       1.159   9.567  19.052  0.00  0.00    +0.000 A 
ATOM      6  C   UNL     1       1.038   9.063  20.351  0.00  0.00    +0.000 A 
ATOM      7  C   UNL     1       1.579   7.817  20.680  0.00  0.00    +0.000 A 
ATOM      8  C   UNL     1       2.252   7.056  19.723  0.00  0.00    +0.000 A 
ATOM      9  C   UNL     1       2.402   7.573  18.430  0.00  0.00    +0.000 A 
ATOM     10  C   UNL     1       1.845   8.816  18.091  0.00  0.00    +0.000 A 
BRANCH   5  11
ATOM     11  C   UNL     1       0.553  10.894  18.762  0.00  0.00    +0.000 C 
ATOM     12  O   UNL     1       1.130  11.958  18.936  0.00  0.00    +0.000 OA
BRANCH  11  14
ATOM     13  C   UNL     1      -1.696  11.469  19.017  0.00  0.00    +0.000 C 
ATOM     14  O   UNL     1      -0.708  10.750  18.279  0.00  0.00    +0.000 OA
ENDBRANCH  11  14
ENDBRANCH   5  11
ENDBRANCH   1   8
BRANCH   2  15
ATOM     15  C   UNL     1       2.996   3.434  20.660  0.00  0.00    +0.000 C 
BRANCH  15  16
ATOM     16  S   UNL     1       3.785   2.690  19.203  0.00  0.00    +0.000 S 
BRANCH  16  17
ATOM     17  C   UNL     1       4.855   4.025  18.726  0.00  0.00    +0.000 A 
ATOM     18  N   UNL     1       4.599   4.678  17.581  0.00  0.00    +0.000 NA
ATOM     19  C   UNL     1       5.426   5.693  17.257  0.00  0.00    +0.000 A 
ATOM     20  C   UNL     1       5.148   6.431  15.982  0.00  0.00    +0.000 C 
ATOM     21  C   UNL     1       6.485   6.063  18.059  0.00  0.00    +0.000 A 
ATOM     22  C   UNL     1       6.648   5.322  19.203  0.00  0.00    +0.000 A 
ATOM     23  N   UNL     1       5.861   4.303  19.561  0.00  0.00    +0.000 NA
BRANCH  22  24
ATOM     24  O   UNL     1       7.657   5.592  20.081  0.00  0.00    +0.000 OA
ATOM     25  H   UNL     1       7.674   6.546  20.251  0.00  0.00    +0.000 HD
ENDBRANCH  22  24
ENDBRANCH  16  17
ENDBRANCH  15  16
ENDBRANCH   2  15
TORSDOF 7
ENDMDL
MODEL 2
REMARK VINA RESULT:      -7.0      0.600      1.166
REMARK  Name = 
REMARK  9 active torsions:
REMARK  status: ('A' for Active; 'I' for Inactive)
REMARK    1  A    between atoms: C_1  and  O_2
REMARK    2  A    between atoms: O_2  and  C_3
REMARK    3  A    between atoms: C_3  and  C_5
REMARK    4  A    between atoms: C_8  and  N_9
REMARK    5  A    between atoms: C_10  and  C_12
REMARK    6  A    between atoms: C_12  and  S_13
REMARK    7  A    between atoms: S_13  and  C_14
REMARK    8  A    between atoms: C_16  and  C_17
REMARK    9  A    between atoms: C_19  and  O_20
REMARK                            x       y       z     vdW  Elec       q    Type
REMARK                         _______ _______ _______ _____ _____    ______ ____
ROOT
ATOM      1  N   UNL     1       2.775   5.583  20.043  0.00  0.00    +0.000 N 
ATOM      2  C   UNL     1       2.079   4.384  20.047  0.00  0.00    +0.000 C 
ATOM      3  O   UNL     1       0.899   4.251  19.722  0.00  0.00    +0.000 OA
ATOM      4  H   UNL     1       3.779   5.523  20.172  0.00  0.00    +0.000 HD
ENDROOT
BRANCH   1   8
ATOM      5  C   UNL     1       1.117   9.446  19.589  0.00  0.00    +0.000 A 
ATOM      6  C   UNL     1       1.755   8.833  18.506  0.00  0.00    +0.000 A 
ATOM      7  C   UNL     1       2.308   7.557  18.640  0.00  0.00    +0.000 A 
ATOM      8  C   UNL     1       2.231   6.869  19.852  0.00  0.00    +0.000 A 
ATOM      9  C   UNL     1       1.565   7.468  20.929  0.00  0.00    +0.000 A 
ATOM     10  C   UNL     1       1.024   8.756  20.804  0.00  0.00    +0.000 A 
BRANCH   5  11
ATOM     11  C   UNL     1       0.557  10.809  19.387  0.00  0.00    +0.000 C 
ATOM     12  O   UNL     1       0.882  11.548  18.468  0.00  0.00    +0.000 OA
BRANCH  11  14
ATOM     13  C   UNL     1      -1.547  11.706  19.855  0.00  0.00    +0.000 C 
ATOM     14  O   UNL     1      -0.353  11.101  20.351  0.00  0.00    +0.000 OA
ENDBRANCH  11  14
ENDBRANCH   5  11
ENDBRANCH   1   8
BRANCH   2  15
ATOM     15  C   UNL     1       2.915   3.149  20.353  0.00  0.00    +0.000 C 
BRANCH  15  16
ATOM     16  S   UNL     1       3.855   2.522  18.931  0.00  0.00    +0.000 S 
BRANCH  16  17
ATOM     17  C   UNL     1       4.853   3.947  18.578  0.00  0.00    +0.000 A 
ATOM     18  N   UNL     1       4.575   4.674  17.484  0.00  0.00    +0.000 NA
ATOM     19  C   UNL     1       5.348   5.755  17.254  0.00  0.00    +0.000 A 
ATOM     20  C   UNL     1       5.044   6.575  16.035  0.00  0.00    +0.000 C 
ATOM     21  C   UNL     1       6.374   6.119  18.100  0.00  0.00    +0.000 A 
ATOM     22  C   UNL     1       6.564   5.301  19.185  0.00  0.00    +0.000 A 
ATOM     23  N   UNL     1       5.831   4.215  19.449  0.00  0.00    +0.000 NA
BRANCH  22  24
ATOM     24  O   UNL     1       7.544   5.557  20.098  0.00  0.00    +0.000 OA
ATOM     25  H   UNL     1       8.208   6.131  19.690  0.00  0.00    +0.000 HD
ENDBRANCH  22  24
ENDBRANCH  16  17
ENDBRANCH  15  16
ENDBRANCH   2  15
TORSDOF 7
ENDMDL
MODEL 3
REMARK VINA RESULT:      -7.0      0.965      1.637
REMARK  Name = 
REMARK  9 active torsions:
REMARK  status: ('A' for Active; 'I' for Inactive)
REMARK    1  A    between atoms: C_1  and  O_2
REMARK    2  A    between atoms: O_2  and  C_3
REMARK    3  A    between atoms: C_3  and  C_5
REMARK    4  A    between atoms: C_8  and  N_9
REMARK    5  A    between atoms: C_10  and  C_12
REMARK    6  A    between atoms: C_12  and  S_13
REMARK    7  A    between atoms: S_13  and  C_14
REMARK    8  A    between atoms: C_16  and  C_17
REMARK    9  A    between atoms: C_19  and  O_20
REMARK                            x       y       z     vdW  Elec       q    Type
REMARK                         _______ _______ _______ _____ _____    ______ ____
ROOT
ATOM      1  N   UNL     1       2.777   5.336  19.780  0.00  0.00    +0.000 N 
ATOM      2  C   UNL     1       2.044   4.188  19.522  0.00  0.00    +0.000 C 
ATOM      3  O   UNL     1       1.020   4.142  18.839  0.00  0.00    +0.000 OA
ATOM      4  H   UNL     1       3.684   5.205  20.214  0.00  0.00    +0.000 HD
ENDROOT
BRANCH   1   8
ATOM      5  C   UNL     1       1.607   9.319  18.979  0.00  0.00    +0.000 A 
ATOM      6  C   UNL     1       2.304   8.593  18.009  0.00  0.00    +0.000 A 
ATOM      7  C   UNL     1       2.698   7.275  18.258  0.00  0.00    +0.000 A 
ATOM      8  C   UNL     1       2.400   6.659  19.474  0.00  0.00    +0.000 A 
ATOM      9  C   UNL     1       1.674   7.374  20.435  0.00  0.00    +0.000 A 
ATOM     10  C   UNL     1       1.292   8.702  20.196  0.00  0.00    +0.000 A 
BRANCH   5  11
ATOM     11  C   UNL     1       1.224  10.720  18.658  0.00  0.00    +0.000 C 
ATOM     12  O   UNL     1       0.160  11.226  18.985  0.00  0.00    +0.000 OA
BRANCH  11  14
ATOM     13  C   UNL     1       2.403  12.708  18.331  0.00  0.00    +0.000 C 
ATOM     14  O   UNL     1       2.215  11.341  17.968  0.00  0.00    +0.000 OA
ENDBRANCH  11  14
ENDBRANCH   5  11
ENDBRANCH   1   8
BRANCH   2  15
ATOM     15  C   UNL     1       2.665   2.894  20.029  0.00  0.00    +0.000 C 
BRANCH  15  16
ATOM     16  S   UNL     1       3.815   2.117  18.858  0.00  0.00    +0.000 S 
BRANCH  16  17
ATOM     17  C   UNL     1       4.802   3.528  18.425  0.00  0.00    +0.000 A 
ATOM     18  N   UNL     1       4.634   4.085  17.215  0.00  0.00    +0.000 NA
ATOM     19  C   UNL     1       5.393   5.162  16.926  0.00  0.00    +0.000 A 
ATOM     20  C   UNL     1       5.212   5.794  15.578  0.00  0.00    +0.000 C 
ATOM     21  C   UNL     1       6.298   5.686  17.824  0.00  0.00    +0.000 A 
ATOM     22  C   UNL     1       6.383   5.032  19.028  0.00  0.00    +0.000 A 
ATOM     23  N   UNL     1       5.660   3.958  19.356  0.00  0.00    +0.000 NA
BRANCH  22  24
ATOM     24  O   UNL     1       7.238   5.457  20.003  0.00  0.00    +0.000 OA
ATOM     25  H   UNL     1       6.735   5.599  20.818  0.00  0.00    +0.000 HD
ENDBRANCH  22  24
ENDBRANCH  16  17
ENDBRANCH  15  16
ENDBRANCH   2  15
TORSDOF 7
ENDMDL
MODEL 4
REMARK VINA RESULT:      -6.9      3.296      4.130
REMARK  Name = 
REMARK  9 active torsions:
REMARK  status: ('A' for Active; 'I' for Inactive)
REMARK    1  A    between atoms: C_1  and  O_2
REMARK    2  A    between atoms: O_2  and  C_3
REMARK    3  A    between atoms: C_3  and  C_5
REMARK    4  A    between atoms: C_8  and  N_9
REMARK    5  A    between atoms: C_10  and  C_12
REMARK    6  A    between atoms: C_12  and  S_13
REMARK    7  A    between atoms: S_13  and  C_14
REMARK    8  A    between atoms: C_16  and  C_17
REMARK    9  A    between atoms: C_19  and  O_20
REMARK                            x       y       z     vdW  Elec       q    Type
REMARK                         _______ _______ _______ _____ _____    ______ ____
ROOT
ATOM      1  N   UNL     1       3.897   5.820  17.672  0.00  0.00    +0.000 N 
ATOM      2  C   UNL     1       3.655   4.478  17.422  0.00  0.00    +0.000 C 
ATOM      3  O   UNL     1       2.600   3.893  17.669  0.00  0.00    +0.000 OA
ATOM      4  H   UNL     1       4.743   6.210  17.269  0.00  0.00    +0.000 HD
ENDROOT
BRANCH   1   8
ATOM      5  C   UNL     1       1.443   8.387  19.965  0.00  0.00    +0.000 A 
ATOM      6  C   UNL     1       1.816   8.759  18.670  0.00  0.00    +0.000 A 
ATOM      7  C   UNL     1       2.627   7.922  17.899  0.00  0.00    +0.000 A 
ATOM      8  C   UNL     1       3.075   6.700  18.404  0.00  0.00    +0.000 A 
ATOM      9  C   UNL     1       2.677   6.312  19.689  0.00  0.00    +0.000 A 
ATOM     10  C   UNL     1       1.878   7.157  20.473  0.00  0.00    +0.000 A 
BRANCH   5  11
ATOM     11  C   UNL     1       0.587   9.326  20.740  0.00  0.00    +0.000 C 
ATOM     12  O   UNL     1      -0.470   9.779  20.327  0.00  0.00    +0.000 OA
BRANCH  11  14
ATOM     13  C   UNL     1       0.222   9.512  23.038  0.00  0.00    +0.000 C 
ATOM     14  O   UNL     1       1.142   9.593  21.950  0.00  0.00    +0.000 OA
ENDBRANCH  11  14
ENDBRANCH   5  11
ENDBRANCH   1   8
BRANCH   2  15
ATOM     15  C   UNL     1       4.756   3.750  16.663  0.00  0.00    +0.000 C 
BRANCH  15  16
ATOM     16  S   UNL     1       6.362   4.597  16.698  0.00  0.00    +0.000 S 
BRANCH  16  17
ATOM     17  C   UNL     1       6.753   4.570  14.965  0.00  0.00    +0.000 A 
ATOM     18  N   UNL     1       6.052   3.757  14.159  0.00  0.00    +0.000 NA
ATOM     19  C   UNL     1       6.370   3.771  12.848  0.00  0.00    +0.000 A 
ATOM     20  C   UNL     1       5.591   2.868  11.939  0.00  0.00    +0.000 C 
ATOM     21  C   UNL     1       7.359   4.586  12.341  0.00  0.00    +0.000 A 
ATOM     22  C   UNL     1       8.008   5.372  13.260  0.00  0.00    +0.000 A 
ATOM     23  N   UNL     1       7.735   5.385  14.568  0.00  0.00    +0.000 NA
BRANCH  22  24
ATOM     24  O   UNL     1       9.003   6.225  12.882  0.00  0.00    +0.000 OA
ATOM     25  H   UNL     1       8.952   6.358  11.924  0.00  0.00    +0.000 HD
ENDBRANCH  22  24
ENDBRANCH  16  17
ENDBRANCH  15  16
ENDBRANCH   2  15
TORSDOF 7
ENDMDL
MODEL 5
REMARK VINA RESULT:      -6.9      1.046      1.661
REMARK  Name = 
REMARK  9 active torsions:
REMARK  status: ('A' for Active; 'I' for Inactive)
REMARK    1  A    between atoms: C_1  and  O_2
REMARK    2  A    between atoms: O_2  and  C_3
REMARK    3  A    between atoms: C_3  and  C_5
REMARK    4  A    between atoms: C_8  and  N_9
REMARK    5  A    between atoms: C_10  and  C_12
REMARK    6  A    between atoms: C_12  and  S_13
REMARK    7  A    between atoms: S_13  and  C_14
REMARK    8  A    between atoms: C_16  and  C_17
REMARK    9  A    between atoms: C_19  and  O_20
REMARK                            x       y       z     vdW  Elec       q    Type
REMARK                         _______ _______ _______ _____ _____    ______ ____
ROOT
ATOM      1  N   UNL     1       2.853   6.170  19.741  0.00  0.00    +0.000 N 
ATOM      2  C   UNL     1       2.296   4.988  20.204  0.00  0.00    +0.000 C 
ATOM      3  O   UNL     1       1.099   4.814  20.435  0.00  0.00    +0.000 OA
ATOM      4  H   UNL     1       3.820   6.125  19.435  0.00  0.00    +0.000 HD
ENDROOT
BRANCH   1   8
ATOM      5  C   UNL     1       0.889   9.907  19.521  0.00  0.00    +0.000 A 
ATOM      6  C   UNL     1       1.508   9.381  18.383  0.00  0.00    +0.000 A 
ATOM      7  C   UNL     1       2.162   8.147  18.439  0.00  0.00    +0.000 A 
ATOM      8  C   UNL     1       2.205   7.416  19.627  0.00  0.00    +0.000 A 
ATOM      9  C   UNL     1       1.559   7.927  20.760  0.00  0.00    +0.000 A 
ATOM     10  C   UNL     1       0.916   9.173  20.712  0.00  0.00    +0.000 A 
BRANCH   5  11
ATOM     11  C   UNL     1       0.218  11.230  19.400  0.00  0.00    +0.000 C 
ATOM     12  O   UNL     1      -0.889  11.475  19.856  0.00  0.00    +0.000 OA
BRANCH  11  14
ATOM     13  C   UNL     1       1.854  12.887  19.567  0.00  0.00    +0.000 C 
ATOM     14  O   UNL     1       1.006  12.106  18.726  0.00  0.00    +0.000 OA
ENDBRANCH  11  14
ENDBRANCH   5  11
ENDBRANCH   1   8
BRANCH   2  15
ATOM     15  C   UNL     1       3.254   3.809  20.288  0.00  0.00    +0.000 C 
BRANCH  15  16
ATOM     16  S   UNL     1       3.652   3.062  18.681  0.00  0.00    +0.000 S 
BRANCH  16  17
ATOM     17  C   UNL     1       5.139   3.953  18.296  0.00  0.00    +0.000 A 
ATOM     18  N   UNL     1       5.496   4.085  17.008  0.00  0.00    +0.000 NA
ATOM     19  C   UNL     1       6.625   4.778  16.753  0.00  0.00    +0.000 A 
ATOM     20  C   UNL     1       7.031   4.933  15.318  0.00  0.00    +0.000 C 
ATOM     21  C   UNL     1       7.385   5.339  17.757  0.00  0.00    +0.000 A 
ATOM     22  C   UNL     1       6.922   5.137  19.033  0.00  0.00    +0.000 A 
ATOM     23  N   UNL     1       5.816   4.452  19.335  0.00  0.00    +0.000 NA
BRANCH  22  24
ATOM     24  O   UNL     1       7.583   5.647  20.112  0.00  0.00    +0.000 OA
ATOM     25  H   UNL     1       7.391   6.594  20.176  0.00  0.00    +0.000 HD
ENDBRANCH  22  24
ENDBRANCH  16  17
ENDBRANCH  15  16
ENDBRANCH   2  15
TORSDOF 7
ENDMDL
MODEL 6
REMARK VINA RESULT:      -6.8      3.303      4.154
REMARK  Name = 
REMARK  9 active torsions:
REMARK  status: ('A' for Active; 'I' for Inactive)
REMARK    1  A    between atoms: C_1  and  O_2
REMARK    2  A    between atoms: O_2  and  C_3
REMARK    3  A    between atoms: C_3  and  C_5
REMARK    4  A    between atoms: C_8  and  N_9
REMARK    5  A    between atoms: C_10  and  C_12
REMARK    6  A    between atoms: C_12  and  S_13
REMARK    7  A    between atoms: S_13  and  C_14
REMARK    8  A    between atoms: C_16  and  C_17
REMARK    9  A    between atoms: C_19  and  O_20
REMARK                            x       y       z     vdW  Elec       q    Type
REMARK                         _______ _______ _______ _____ _____    ______ ____
ROOT
ATOM      1  N   UNL     1       3.274   5.978  17.956  0.00  0.00    +0.000 N 
ATOM      2  C   UNL     1       4.488   6.018  17.288  0.00  0.00    +0.000 C 
ATOM      3  O   UNL     1       5.247   6.987  17.259  0.00  0.00    +0.000 OA
ATOM      4  H   UNL     1       2.832   5.068  18.036  0.00  0.00    +0.000 HD
ENDROOT
BRANCH   1   8
ATOM      5  C   UNL     1       1.290   9.185  19.866  0.00  0.00    +0.000 A 
ATOM      6  C   UNL     1       1.610   9.277  18.508  0.00  0.00    +0.000 A 
ATOM      7  C   UNL     1       2.265   8.226  17.862  0.00  0.00    +0.000 A 
ATOM      8  C   UNL     1       2.609   7.065  18.556  0.00  0.00    +0.000 A 
ATOM      9  C   UNL     1       2.262   6.958  19.909  0.00  0.00    +0.000 A 
ATOM     10  C   UNL     1       1.620   8.018  20.566  0.00  0.00    +0.000 A 
BRANCH   5  11
ATOM     11  C   UNL     1       0.601  10.342  20.499  0.00  0.00    +0.000 C 
ATOM     12  O   UNL     1       1.179  11.213  21.133  0.00  0.00    +0.000 OA
BRANCH  11  14
ATOM     13  C   UNL     1      -1.263  11.463  19.652  0.00  0.00    +0.000 C 
ATOM     14  O   UNL     1      -0.736  10.288  20.267  0.00  0.00    +0.000 OA
ENDBRANCH  11  14
ENDBRANCH   5  11
ENDBRANCH   1   8
BRANCH   2  15
ATOM     15  C   UNL     1       4.934   4.699  16.672  0.00  0.00    +0.000 C 
BRANCH  15  16
ATOM     16  S   UNL     1       6.737   4.512  16.552  0.00  0.00    +0.000 S 
BRANCH  16  17
ATOM     17  C   UNL     1       6.922   4.515  14.785  0.00  0.00    +0.000 A 
ATOM     18  N   UNL     1       6.199   3.646  14.061  0.00  0.00    +0.000 NA
ATOM     19  C   UNL     1       6.357   3.684  12.722  0.00  0.00    +0.000 A 
ATOM     20  C   UNL     1       5.553   2.719  11.903  0.00  0.00    +0.000 C 
ATOM     21  C   UNL     1       7.210   4.577  12.108  0.00  0.00    +0.000 A 
ATOM     22  C   UNL     1       7.896   5.415  12.951  0.00  0.00    +0.000 A 
ATOM     23  N   UNL     1       7.779   5.408  14.282  0.00  0.00    +0.000 NA
BRANCH  22  24
ATOM     24  O   UNL     1       8.767   6.346  12.465  0.00  0.00    +0.000 OA
ATOM     25  H   UNL     1       8.310   6.885  11.803  0.00  0.00    +0.000 HD
ENDBRANCH  22  24
ENDBRANCH  16  17
ENDBRANCH  15  16
ENDBRANCH   2  15
TORSDOF 7
ENDMDL
MODEL 7
REMARK VINA RESULT:      -6.8      1.015      1.327
REMARK  Name = 
REMARK  9 active torsions:
REMARK  status: ('A' for Active; 'I' for Inactive)
REMARK    1  A    between atoms: C_1  and  O_2
REMARK    2  A    between atoms: O_2  and  C_3
REMARK    3  A    between atoms: C_3  and  C_5
REMARK    4  A    between atoms: C_8  and  N_9
REMARK    5  A    between atoms: C_10  and  C_12
REMARK    6  A    between atoms: C_12  and  S_13
REMARK    7  A    between atoms: S_13  and  C_14
REMARK    8  A    between atoms: C_16  and  C_17
REMARK    9  A    between atoms: C_19  and  O_20
REMARK                            x       y       z     vdW  Elec       q    Type
REMARK                         _______ _______ _______ _____ _____    ______ ____
ROOT
ATOM      1  N   UNL     1       2.974   6.076  19.724  0.00  0.00    +0.000 N 
ATOM      2  C   UNL     1       2.409   4.829  19.941  0.00  0.00    +0.000 C 
ATOM      3  O   UNL     1       1.203   4.584  19.911  0.00  0.00    +0.000 OA
ATOM      4  H   UNL     1       3.982   6.102  19.613  0.00  0.00    +0.000 HD
ENDROOT
BRANCH   1   8
ATOM      5  C   UNL     1       0.936   9.753  19.279  0.00  0.00    +0.000 A 
ATOM      6  C   UNL     1       0.934   9.104  20.518  0.00  0.00    +0.000 A 
ATOM      7  C   UNL     1       1.602   7.888  20.681  0.00  0.00    +0.000 A 
ATOM      8  C   UNL     1       2.287   7.301  19.616  0.00  0.00    +0.000 A 
ATOM      9  C   UNL     1       2.318   7.965  18.383  0.00  0.00    +0.000 A 
ATOM     10  C   UNL     1       1.634   9.177  18.210  0.00  0.00    +0.000 A 
BRANCH   5  11
ATOM     11  C   UNL     1       0.198  11.040  19.166  0.00  0.00    +0.000 C 
ATOM     12  O   UNL     1      -0.985  11.171  19.441  0.00  0.00    +0.000 OA
BRANCH  11  14
ATOM     13  C   UNL     1       1.760  12.669  19.765  0.00  0.00    +0.000 C 
ATOM     14  O   UNL     1       1.021  12.027  18.726  0.00  0.00    +0.000 OA
ENDBRANCH  11  14
ENDBRANCH   5  11
ENDBRANCH   1   8
BRANCH   2  15
ATOM     15  C   UNL     1       3.401   3.684  20.089  0.00  0.00    +0.000 C 
BRANCH  15  16
ATOM     16  S   UNL     1       3.856   2.892  18.519  0.00  0.00    +0.000 S 
BRANCH  16  17
ATOM     17  C   UNL     1       5.255   3.890  18.072  0.00  0.00    +0.000 A 
ATOM     18  N   UNL     1       5.544   4.049  16.771  0.00  0.00    +0.000 NA
ATOM     19  C   UNL     1       6.607   4.823  16.470  0.00  0.00    +0.000 A 
ATOM     20  C   UNL     1       6.937   5.010  15.019  0.00  0.00    +0.000 C 
ATOM     21  C   UNL     1       7.366   5.440  17.441  0.00  0.00    +0.000 A 
ATOM     22  C   UNL     1       6.976   5.203  18.736  0.00  0.00    +0.000 A 
ATOM     23  N   UNL     1       5.937   4.438  19.083  0.00  0.00    +0.000 NA
BRANCH  22  24
ATOM     24  O   UNL     1       7.644   5.761  19.787  0.00  0.00    +0.000 OA
ATOM     25  H   UNL     1       7.050   6.374  20.244  0.00  0.00    +0.000 HD
ENDBRANCH  22  24
ENDBRANCH  16  17
ENDBRANCH  15  16
ENDBRANCH   2  15
TORSDOF 7
ENDMDL
MODEL 8
REMARK VINA RESULT:      -6.8      1.338      2.121
REMARK  Name = 
REMARK  9 active torsions:
REMARK  status: ('A' for Active; 'I' for Inactive)
REMARK    1  A    between atoms: C_1  and  O_2
REMARK    2  A    between atoms: O_2  and  C_3
REMARK    3  A    between atoms: C_3  and  C_5
REMARK    4  A    between atoms: C_8  and  N_9
REMARK    5  A    between atoms: C_10  and  C_12
REMARK    6  A    between atoms: C_12  and  S_13
REMARK    7  A    between atoms: S_13  and  C_14
REMARK    8  A    between atoms: C_16  and  C_17
REMARK    9  A    between atoms: C_19  and  O_20
REMARK                            x       y       z     vdW  Elec       q    Type
REMARK                         _______ _______ _______ _____ _____    ______ ____
ROOT
ATOM      1  N   UNL     1       3.008   5.795  19.337  0.00  0.00    +0.000 N 
ATOM      2  C   UNL     1       2.382   4.605  19.672  0.00  0.00    +0.000 C 
ATOM      3  O   UNL     1       1.164   4.446  19.756  0.00  0.00    +0.000 OA
ATOM      4  H   UNL     1       4.003   5.744  19.143  0.00  0.00    +0.000 HD
ENDROOT
BRANCH   1   8
ATOM      5  C   UNL     1       1.160   9.589  19.085  0.00  0.00    +0.000 A 
ATOM      6  C   UNL     1       1.730   9.018  17.943  0.00  0.00    +0.000 A 
ATOM      7  C   UNL     1       2.345   7.765  18.010  0.00  0.00    +0.000 A 
ATOM      8  C   UNL     1       2.398   7.059  19.213  0.00  0.00    +0.000 A 
ATOM      9  C   UNL     1       1.799   7.614  20.350  0.00  0.00    +0.000 A 
ATOM     10  C   UNL     1       1.196   8.880  20.292  0.00  0.00    +0.000 A 
BRANCH   5  11
ATOM     11  C   UNL     1       0.529  10.930  18.952  0.00  0.00    +0.000 C 
ATOM     12  O   UNL     1       1.160  11.967  18.816  0.00  0.00    +0.000 OA
BRANCH  11  14
ATOM     13  C   UNL     1      -1.489  12.067  19.245  0.00  0.00    +0.000 C 
ATOM     14  O   UNL     1      -0.825  10.829  18.997  0.00  0.00    +0.000 OA
ENDBRANCH  11  14
ENDBRANCH   5  11
ENDBRANCH   1   8
BRANCH   2  15
ATOM     15  C   UNL     1       3.305   3.402  19.807  0.00  0.00    +0.000 C 
BRANCH  15  16
ATOM     16  S   UNL     1       4.027   2.844  18.237  0.00  0.00    +0.000 S 
BRANCH  16  17
ATOM     17  C   UNL     1       5.054   4.244  17.864  0.00  0.00    +0.000 A 
ATOM     18  N   UNL     1       6.091   4.517  18.673  0.00  0.00    +0.000 NA
ATOM     19  C   UNL     1       6.855   5.581  18.352  0.00  0.00    +0.000 A 
ATOM     20  C   UNL     1       8.017   5.892  19.248  0.00  0.00    +0.000 C 
ATOM     21  C   UNL     1       6.604   6.358  17.241  0.00  0.00    +0.000 A 
ATOM     22  C   UNL     1       5.517   5.984  16.491  0.00  0.00    +0.000 A 
ATOM     23  N   UNL     1       4.726   4.945  16.774  0.00  0.00    +0.000 NA
BRANCH  22  24
ATOM     24  O   UNL     1       5.168   6.670  15.365  0.00  0.00    +0.000 OA
ATOM     25  H   UNL     1       4.663   7.455  15.623  0.00  0.00    +0.000 HD
ENDBRANCH  22  24
ENDBRANCH  16  17
ENDBRANCH  15  16
ENDBRANCH   2  15
TORSDOF 7
ENDMDL
MODEL 9
REMARK VINA RESULT:      -6.8      1.390      2.099
REMARK  Name = 
REMARK  9 active torsions:
REMARK  status: ('A' for Active; 'I' for Inactive)
REMARK    1  A    between atoms: C_1  and  O_2
REMARK    2  A    between atoms: O_2  and  C_3
REMARK    3  A    between atoms: C_3  and  C_5
REMARK    4  A    between atoms: C_8  and  N_9
REMARK    5  A    between atoms: C_10  and  C_12
REMARK    6  A    between atoms: C_12  and  S_13
REMARK    7  A    between atoms: S_13  and  C_14
REMARK    8  A    between atoms: C_16  and  C_17
REMARK    9  A    between atoms: C_19  and  O_20
REMARK                            x       y       z     vdW  Elec       q    Type
REMARK                         _______ _______ _______ _____ _____    ______ ____
ROOT
ATOM      1  N   UNL     1       2.934   5.927  19.424  0.00  0.00    +0.000 N 
ATOM      2  C   UNL     1       2.356   4.789  19.964  0.00  0.00    +0.000 C 
ATOM      3  O   UNL     1       1.173   4.684  20.291  0.00  0.00    +0.000 OA
ATOM      4  H   UNL     1       3.870   5.824  19.047  0.00  0.00    +0.000 HD
ENDROOT
BRANCH   1   8
ATOM      5  C   UNL     1       1.185   9.754  18.999  0.00  0.00    +0.000 A 
ATOM      6  C   UNL     1       1.090   9.079  20.220  0.00  0.00    +0.000 A 
ATOM      7  C   UNL     1       1.662   7.814  20.377  0.00  0.00    +0.000 A 
ATOM      8  C   UNL     1       2.342   7.202  19.322  0.00  0.00    +0.000 A 
ATOM      9  C   UNL     1       2.466   7.889  18.108  0.00  0.00    +0.000 A 
ATOM     10  C   UNL     1       1.878   9.152  17.941  0.00  0.00    +0.000 A 
BRANCH   5  11
ATOM     11  C   UNL     1       0.547  11.093  18.892  0.00  0.00    +0.000 C 
ATOM     12  O   UNL     1      -0.590  11.273  18.482  0.00  0.00    +0.000 OA
BRANCH  11  14
ATOM     13  C   UNL     1       1.429  13.213  18.468  0.00  0.00    +0.000 C 
ATOM     14  O   UNL     1       1.397  12.064  19.314  0.00  0.00    +0.000 OA
ENDBRANCH  11  14
ENDBRANCH   5  11
ENDBRANCH   1   8
BRANCH   2  15
ATOM     15  C   UNL     1       3.257   3.564  20.011  0.00  0.00    +0.000 C 
BRANCH  15  16
ATOM     16  S   UNL     1       3.820   2.997  18.380  0.00  0.00    +0.000 S 
BRANCH  16  17
ATOM     17  C   UNL     1       4.932   4.319  17.969  0.00  0.00    +0.000 A 
ATOM     18  N   UNL     1       5.986   4.547  18.769  0.00  0.00    +0.000 NA
ATOM     19  C   UNL     1       6.815   5.552  18.419  0.00  0.00    +0.000 A 
ATOM     20  C   UNL     1       7.997   5.812  19.304  0.00  0.00    +0.000 C 
ATOM     21  C   UNL     1       6.610   6.314  17.289  0.00  0.00    +0.000 A 
ATOM     22  C   UNL     1       5.499   5.990  16.551  0.00  0.00    +0.000 A 
ATOM     23  N   UNL     1       4.645   5.010  16.862  0.00  0.00    +0.000 NA
BRANCH  22  24
ATOM     24  O   UNL     1       5.190   6.668  15.408  0.00  0.00    +0.000 OA
ATOM     25  H   UNL     1       5.333   6.082  14.650  0.00  0.00    +0.000 HD
ENDBRANCH  22  24
ENDBRANCH  16  17
ENDBRANCH  15  16
ENDBRANCH   2  15
TORSDOF 7
ENDMDL
