MODEL 1
REMARK VINA RESULT:      -7.9      0.000      0.000
REMARK  Name = 
REMARK  6 active torsions:
REMARK  status: ('A' for Active; 'I' for Inactive)
REMARK    1  A    between atoms: C_1  and  O_2
REMARK    2  A    between atoms: O_2  and  C_3
REMARK    3  A    between atoms: C_3  and  C_5
REMARK    4  A    between atoms: C_11  and  C_12
REMARK    5  A    between atoms: N_18  and  C_19
REMARK    6  A    between atoms: P_20  and  N_22
REMARK                            x       y       z     vdW  Elec       q    Type
REMARK                         _______ _______ _______ _____ _____    ______ ____
ROOT
ATOM      1  C   UNL     1       5.961   5.599  16.975  0.00  0.00    +0.000 A 
ATOM      2  C   UNL     1       5.181   5.151  18.025  0.00  0.00    +0.000 A 
ATOM      3  C   UNL     1       4.023   5.968  18.219  0.00  0.00    +0.000 A 
ATOM      4  C   UNL     1       3.935   7.003  17.337  0.00  0.00    +0.000 A 
ATOM      5  S   UNL     1       5.256   6.984  16.242  0.00  0.00    +0.000 S 
ATOM      6  N   UNL     1       3.005   7.982  17.286  0.00  0.00    +0.000 NA
ATOM      7  C   UNL     1       2.248   8.122  18.338  0.00  0.00    +0.000 C 
ATOM      8  N   UNL     1       2.263   7.286  19.455  0.00  0.00    +0.000 N 
ATOM      9  C   UNL     1       1.675   7.599  20.750  0.00  0.00    +0.000 C 
ATOM     10  P   UNL     1       2.820   5.741  19.482  0.00  0.00    +0.000 P 
ATOM     11  O   UNL     1       3.678   5.240  20.612  0.00  0.00    +0.000 OA
ENDROOT
BRANCH   7  12
ATOM     12  C   UNL     1       1.324   9.321  18.292  0.00  0.00    +0.000 A 
ATOM     13  C   UNL     1      -0.009   9.213  17.882  0.00  0.00    +0.000 A 
ATOM     14  C   UNL     1      -0.883  10.292  18.031  0.00  0.00    +0.000 A 
ATOM     15  C   UNL     1      -0.413  11.505  18.528  0.00  0.00    +0.000 A 
ATOM     16  C   UNL     1       0.937  11.653  18.842  0.00  0.00    +0.000 A 
ATOM     17  C   UNL     1       1.807  10.566  18.722  0.00  0.00    +0.000 A 
ENDBRANCH   7  12
BRANCH  10  18
ATOM     18  N   UNL     1       1.557   4.761  19.157  0.00  0.00    +0.000 NA
ATOM     19  C   UNL     1       0.920   4.057  20.277  0.00  0.00    +0.000 C 
ATOM     20  C   UNL     1       1.455   2.627  20.411  0.00  0.00    +0.000 C 
ATOM     21  O   UNL     1       1.175   1.883  19.221  0.00  0.00    +0.000 OA
ATOM     22  C   UNL     1       1.796   2.491  18.083  0.00  0.00    +0.000 C 
ATOM     23  C   UNL     1       1.399   3.966  17.938  0.00  0.00    +0.000 C 
ENDBRANCH  10  18
BRANCH   1  24
ATOM     24  C   UNL     1       7.218   5.072  16.465  0.00  0.00    +0.000 C 
ATOM     25  O   UNL     1       8.015   4.370  17.071  0.00  0.00    +0.000 OA
BRANCH  24  27
ATOM     26  C   UNL     1       6.932   4.561  14.182  0.00  0.00    +0.000 C 
ATOM     27  O   UNL     1       7.392   5.485  15.170  0.00  0.00    +0.000 OA
ENDBRANCH  24  27
ENDBRANCH   1  24
TORSDOF 4
ENDMDL
MODEL 2
REMARK VINA RESULT:      -7.3      0.725      1.253
REMARK  Name = 
REMARK  6 active torsions:
REMARK  status: ('A' for Active; 'I' for Inactive)
REMARK    1  A    between atoms: C_1  and  O_2
REMARK    2  A    between atoms: O_2  and  C_3
REMARK    3  A    between atoms: C_3  and  C_5
REMARK    4  A    between atoms: C_11  and  C_12
REMARK    5  A    between atoms: N_18  and  C_19
REMARK    6  A    between atoms: P_20  and  N_22
REMARK                            x       y       z     vdW  Elec       q    Type
REMARK                         _______ _______ _______ _____ _____    ______ ____
ROOT
ATOM      1  C   UNL     1       6.085   5.378  17.494  0.00  0.00    +0.000 A 
ATOM      2  C   UNL     1       5.191   4.954  18.460  0.00  0.00    +0.000 A 
ATOM      3  C   UNL     1       4.042   5.802  18.536  0.00  0.00    +0.000 A 
ATOM      4  C   UNL     1       4.071   6.837  17.649  0.00  0.00    +0.000 A 
ATOM      5  S   UNL     1       5.495   6.779  16.693  0.00  0.00    +0.000 S 
ATOM      6  N   UNL     1       3.177   7.840  17.504  0.00  0.00    +0.000 NA
ATOM      7  C   UNL     1       2.322   8.004  18.473  0.00  0.00    +0.000 C 
ATOM      8  N   UNL     1       2.202   7.171  19.587  0.00  0.00    +0.000 N 
ATOM      9  C   UNL     1       1.495   7.505  20.815  0.00  0.00    +0.000 C 
ATOM     10  P   UNL     1       2.712   5.613  19.671  0.00  0.00    +0.000 P 
ATOM     11  O   UNL     1       3.438   5.092  20.883  0.00  0.00    +0.000 OA
ENDROOT
BRANCH   7  12
ATOM     12  C   UNL     1       1.440   9.227  18.334  0.00  0.00    +0.000 A 
ATOM     13  C   UNL     1       0.114   9.137  17.897  0.00  0.00    +0.000 A 
ATOM     14  C   UNL     1      -0.727  10.250  17.960  0.00  0.00    +0.000 A 
ATOM     15  C   UNL     1      -0.228  11.475  18.396  0.00  0.00    +0.000 A 
ATOM     16  C   UNL     1       1.118  11.598  18.736  0.00  0.00    +0.000 A 
ATOM     17  C   UNL     1       1.954  10.479  18.702  0.00  0.00    +0.000 A 
ENDBRANCH   7  12
BRANCH  10  18
ATOM     18  N   UNL     1       1.462   4.666  19.221  0.00  0.00    +0.000 NA
ATOM     19  C   UNL     1       0.786   3.872  20.255  0.00  0.00    +0.000 C 
ATOM     20  C   UNL     1       1.317   2.435  20.289  0.00  0.00    +0.000 C 
ATOM     21  O   UNL     1       1.081   1.792  19.032  0.00  0.00    +0.000 OA
ATOM     22  C   UNL     1       1.742   2.492  17.972  0.00  0.00    +0.000 C 
ATOM     23  C   UNL     1       1.349   3.974  17.935  0.00  0.00    +0.000 C 
ENDBRANCH  10  18
BRANCH   1  24
ATOM     24  C   UNL     1       7.372   4.816  17.114  0.00  0.00    +0.000 C 
ATOM     25  O   UNL     1       7.785   4.640  15.977  0.00  0.00    +0.000 OA
BRANCH  24  27
ATOM     26  C   UNL     1       8.200   5.565  19.191  0.00  0.00    +0.000 C 
ATOM     27  O   UNL     1       8.082   4.501  18.244  0.00  0.00    +0.000 OA
ENDBRANCH  24  27
ENDBRANCH   1  24
TORSDOF 4
ENDMDL
MODEL 3
REMARK VINA RESULT:      -6.8      0.495      1.439
REMARK  Name = 
REMARK  6 active torsions:
REMARK  status: ('A' for Active; 'I' for Inactive)
REMARK    1  A    between atoms: C_1  and  O_2
REMARK    2  A    between atoms: O_2  and  C_3
REMARK    3  A    between atoms: C_3  and  C_5
REMARK    4  A    between atoms: C_11  and  C_12
REMARK    5  A    between atoms: N_18  and  C_19
REMARK    6  A    between atoms: P_20  and  N_22
REMARK                            x       y       z     vdW  Elec       q    Type
REMARK                         _______ _______ _______ _____ _____    ______ ____
ROOT
ATOM      1  C   UNL     1       5.852   5.730  16.989  0.00  0.00    +0.000 A 
ATOM      2  C   UNL     1       5.096   5.222  18.030  0.00  0.00    +0.000 A 
ATOM      3  C   UNL     1       3.932   6.014  18.282  0.00  0.00    +0.000 A 
ATOM      4  C   UNL     1       3.816   7.089  17.453  0.00  0.00    +0.000 A 
ATOM      5  S   UNL     1       5.117   7.139  16.336  0.00  0.00    +0.000 S 
ATOM      6  N   UNL     1       2.873   8.057  17.466  0.00  0.00    +0.000 NA
ATOM      7  C   UNL     1       2.133   8.137  18.535  0.00  0.00    +0.000 C 
ATOM      8  N   UNL     1       2.178   7.248  19.611  0.00  0.00    +0.000 N 
ATOM      9  C   UNL     1       1.610   7.492  20.929  0.00  0.00    +0.000 C 
ATOM     10  P   UNL     1       2.755   5.712  19.554  0.00  0.00    +0.000 P 
ATOM     11  O   UNL     1       3.639   5.168  20.644  0.00  0.00    +0.000 OA
ENDROOT
BRANCH   7  12
ATOM     12  C   UNL     1       1.195   9.324  18.563  0.00  0.00    +0.000 A 
ATOM     13  C   UNL     1       1.598  10.576  19.040  0.00  0.00    +0.000 A 
ATOM     14  C   UNL     1       0.774  11.692  18.877  0.00  0.00    +0.000 A 
ATOM     15  C   UNL     1      -0.484  11.550  18.297  0.00  0.00    +0.000 A 
ATOM     16  C   UNL     1      -0.935  10.289  17.913  0.00  0.00    +0.000 A 
ATOM     17  C   UNL     1      -0.102   9.176  18.047  0.00  0.00    +0.000 A 
ENDBRANCH   7  12
BRANCH  10  18
ATOM     18  N   UNL     1       1.498   4.732  19.204  0.00  0.00    +0.000 NA
ATOM     19  C   UNL     1       0.857   4.007  20.308  0.00  0.00    +0.000 C 
ATOM     20  C   UNL     1       1.396   2.577  20.422  0.00  0.00    +0.000 C 
ATOM     21  O   UNL     1       1.128   1.851  19.218  0.00  0.00    +0.000 OA
ATOM     22  C   UNL     1       1.754   2.481  18.095  0.00  0.00    +0.000 C 
ATOM     23  C   UNL     1       1.351   3.956  17.971  0.00  0.00    +0.000 C 
ENDBRANCH  10  18
BRANCH   1  24
ATOM     24  C   UNL     1       7.106   5.245  16.433  0.00  0.00    +0.000 C 
ATOM     25  O   UNL     1       7.483   5.358  15.275  0.00  0.00    +0.000 OA
BRANCH  24  27
ATOM     26  C   UNL     1       8.001   5.391  18.608  0.00  0.00    +0.000 C 
ATOM     27  O   UNL     1       7.828   4.622  17.416  0.00  0.00    +0.000 OA
ENDBRANCH  24  27
ENDBRANCH   1  24
TORSDOF 4
ENDMDL
MODEL 4
REMARK VINA RESULT:      -6.5      4.992      7.976
REMARK  Name = 
REMARK  6 active torsions:
REMARK  status: ('A' for Active; 'I' for Inactive)
REMARK    1  A    between atoms: C_1  and  O_2
REMARK    2  A    between atoms: O_2  and  C_3
REMARK    3  A    between atoms: C_3  and  C_5
REMARK    4  A    between atoms: C_11  and  C_12
REMARK    5  A    between atoms: N_18  and  C_19
REMARK    6  A    between atoms: P_20  and  N_22
REMARK                            x       y       z     vdW  Elec       q    Type
REMARK                         _______ _______ _______ _____ _____    ______ ____
ROOT
ATOM      1  C   UNL     1       1.462   8.361  20.187  0.00  0.00    +0.000 A 
ATOM      2  C   UNL     1       0.940   9.299  19.315  0.00  0.00    +0.000 A 
ATOM      3  C   UNL     1       0.303  10.377  20.006  0.00  0.00    +0.000 A 
ATOM      4  C   UNL     1       0.346  10.255  21.362  0.00  0.00    +0.000 A 
ATOM      5  S   UNL     1       1.184   8.828  21.818  0.00  0.00    +0.000 S 
ATOM      6  N   UNL     1      -0.206  11.063  22.294  0.00  0.00    +0.000 NA
ATOM      7  C   UNL     1      -1.097  11.915  21.872  0.00  0.00    +0.000 C 
ATOM      8  N   UNL     1      -1.447  12.116  20.535  0.00  0.00    +0.000 N 
ATOM      9  C   UNL     1      -2.640  12.809  20.072  0.00  0.00    +0.000 C 
ATOM     10  P   UNL     1      -0.514  11.732  19.239  0.00  0.00    +0.000 P 
ATOM     11  O   UNL     1      -1.102  11.066  18.024  0.00  0.00    +0.000 OA
ENDROOT
BRANCH   7  12
ATOM     12  C   UNL     1      -1.790  12.694  22.969  0.00  0.00    +0.000 A 
ATOM     13  C   UNL     1      -1.271  13.895  23.466  0.00  0.00    +0.000 A 
ATOM     14  C   UNL     1      -2.025  14.683  24.338  0.00  0.00    +0.000 A 
ATOM     15  C   UNL     1      -3.274  14.244  24.769  0.00  0.00    +0.000 A 
ATOM     16  C   UNL     1      -3.755  13.001  24.360  0.00  0.00    +0.000 A 
ATOM     17  C   UNL     1      -3.016  12.224  23.465  0.00  0.00    +0.000 A 
ENDBRANCH   7  12
BRANCH  10  18
ATOM     18  N   UNL     1       0.379  13.048  18.875  0.00  0.00    +0.000 NA
ATOM     19  C   UNL     1       1.841  12.933  18.941  0.00  0.00    +0.000 C 
ATOM     20  C   UNL     1       2.381  13.455  20.277  0.00  0.00    +0.000 C 
ATOM     21  O   UNL     1       2.051  14.839  20.435  0.00  0.00    +0.000 OA
ATOM     22  C   UNL     1       0.632  15.028  20.418  0.00  0.00    +0.000 C 
ATOM     23  C   UNL     1      -0.007  14.432  19.157  0.00  0.00    +0.000 C 
ENDBRANCH  10  18
BRANCH   1  24
ATOM     24  C   UNL     1       2.161   7.118  19.901  0.00  0.00    +0.000 C 
ATOM     25  O   UNL     1       2.979   6.929  19.011  0.00  0.00    +0.000 OA
BRANCH  24  27
ATOM     26  C   UNL     1       1.743   4.828  20.269  0.00  0.00    +0.000 C 
ATOM     27  O   UNL     1       1.764   6.157  20.793  0.00  0.00    +0.000 OA
ENDBRANCH  24  27
ENDBRANCH   1  24
TORSDOF 4
ENDMDL
MODEL 5
REMARK VINA RESULT:      -6.4      5.137      8.927
REMARK  Name = 
REMARK  6 active torsions:
REMARK  status: ('A' for Active; 'I' for Inactive)
REMARK    1  A    between atoms: C_1  and  O_2
REMARK    2  A    between atoms: O_2  and  C_3
REMARK    3  A    between atoms: C_3  and  C_5
REMARK    4  A    between atoms: C_11  and  C_12
REMARK    5  A    between atoms: N_18  and  C_19
REMARK    6  A    between atoms: P_20  and  N_22
REMARK                            x       y       z     vdW  Elec       q    Type
REMARK                         _______ _______ _______ _____ _____    ______ ____
ROOT
ATOM      1  C   UNL     1      -3.069  11.206  17.990  0.00  0.00    +0.000 A 
ATOM      2  C   UNL     1      -2.393  11.583  19.136  0.00  0.00    +0.000 A 
ATOM      3  C   UNL     1      -1.120  10.939  19.245  0.00  0.00    +0.000 A 
ATOM      4  C   UNL     1      -0.846  10.100  18.208  0.00  0.00    +0.000 A 
ATOM      5  S   UNL     1      -2.131  10.098  17.070  0.00  0.00    +0.000 S 
ATOM      6  N   UNL     1       0.233   9.304  18.038  0.00  0.00    +0.000 NA
ATOM      7  C   UNL     1       0.982   9.106  19.085  0.00  0.00    +0.000 C 
ATOM      8  N   UNL     1       0.808   9.723  20.326  0.00  0.00    +0.000 N 
ATOM      9  C   UNL     1       1.414   9.288  21.575  0.00  0.00    +0.000 C 
ATOM     10  P   UNL     1       0.004  11.132  20.583  0.00  0.00    +0.000 P 
ATOM     11  O   UNL     1      -0.946  11.288  21.740  0.00  0.00    +0.000 OA
ENDROOT
BRANCH   7  12
ATOM     12  C   UNL     1       2.091   8.095  18.883  0.00  0.00    +0.000 A 
ATOM     13  C   UNL     1       2.264   7.004  19.741  0.00  0.00    +0.000 A 
ATOM     14  C   UNL     1       3.171   5.991  19.422  0.00  0.00    +0.000 A 
ATOM     15  C   UNL     1       3.957   6.097  18.277  0.00  0.00    +0.000 A 
ATOM     16  C   UNL     1       3.865   7.230  17.471  0.00  0.00    +0.000 A 
ATOM     17  C   UNL     1       2.937   8.230  17.772  0.00  0.00    +0.000 A 
ENDBRANCH   7  12
BRANCH  10  18
ATOM     18  N   UNL     1       1.095  12.341  20.488  0.00  0.00    +0.000 NA
ATOM     19  C   UNL     1       0.829  13.576  21.235  0.00  0.00    +0.000 C 
ATOM     20  C   UNL     1       0.193  14.643  20.338  0.00  0.00    +0.000 C 
ATOM     21  O   UNL     1       1.078  14.974  19.262  0.00  0.00    +0.000 OA
ATOM     22  C   UNL     1       1.358  13.821  18.462  0.00  0.00    +0.000 C 
ATOM     23  C   UNL     1       1.899  12.659  19.306  0.00  0.00    +0.000 C 
ENDBRANCH  10  18
BRANCH   1  24
ATOM     24  C   UNL     1      -4.384  11.606  17.517  0.00  0.00    +0.000 C 
ATOM     25  O   UNL     1      -4.695  11.878  16.366  0.00  0.00    +0.000 OA
BRANCH  24  27
ATOM     26  C   UNL     1      -6.598  11.266  18.252  0.00  0.00    +0.000 C 
ATOM     27  O   UNL     1      -5.256  11.639  18.573  0.00  0.00    +0.000 OA
ENDBRANCH  24  27
ENDBRANCH   1  24
TORSDOF 4
ENDMDL
MODEL 6
REMARK VINA RESULT:      -6.3      5.452      9.360
REMARK  Name = 
REMARK  6 active torsions:
REMARK  status: ('A' for Active; 'I' for Inactive)
REMARK    1  A    between atoms: C_1  and  O_2
REMARK    2  A    between atoms: O_2  and  C_3
REMARK    3  A    between atoms: C_3  and  C_5
REMARK    4  A    between atoms: C_11  and  C_12
REMARK    5  A    between atoms: N_18  and  C_19
REMARK    6  A    between atoms: P_20  and  N_22
REMARK                            x       y       z     vdW  Elec       q    Type
REMARK                         _______ _______ _______ _____ _____    ______ ____
ROOT
ATOM      1  C   UNL     1      -4.182  11.558  18.075  0.00  0.00    +0.000 A 
ATOM      2  C   UNL     1      -3.433  12.169  19.064  0.00  0.00    +0.000 A 
ATOM      3  C   UNL     1      -2.110  11.632  19.143  0.00  0.00    +0.000 A 
ATOM      4  C   UNL     1      -1.870  10.642  18.239  0.00  0.00    +0.000 A 
ATOM      5  S   UNL     1      -3.252  10.365  17.260  0.00  0.00    +0.000 S 
ATOM      6  N   UNL     1      -0.753   9.896  18.091  0.00  0.00    +0.000 NA
ATOM      7  C   UNL     1       0.104   9.928  19.071  0.00  0.00    +0.000 C 
ATOM      8  N   UNL     1       0.000  10.741  20.202  0.00  0.00    +0.000 N 
ATOM      9  C   UNL     1       0.753  10.568  21.435  0.00  0.00    +0.000 C 
ATOM     10  P   UNL     1      -0.883  12.122  20.304  0.00  0.00    +0.000 P 
ATOM     11  O   UNL     1      -1.729  12.420  21.512  0.00  0.00    +0.000 OA
ENDROOT
BRANCH   7  12
ATOM     12  C   UNL     1       1.264   8.967  18.925  0.00  0.00    +0.000 A 
ATOM     13  C   UNL     1       1.518   7.964  19.867  0.00  0.00    +0.000 A 
ATOM     14  C   UNL     1       2.473   6.979  19.609  0.00  0.00    +0.000 A 
ATOM     15  C   UNL     1       3.226   7.029  18.439  0.00  0.00    +0.000 A 
ATOM     16  C   UNL     1       3.052   8.082  17.543  0.00  0.00    +0.000 A 
ATOM     17  C   UNL     1       2.076   9.052  17.784  0.00  0.00    +0.000 A 
ENDBRANCH   7  12
BRANCH  10  18
ATOM     18  N   UNL     1       0.098  13.359  19.892  0.00  0.00    +0.000 NA
ATOM     19  C   UNL     1       0.637  13.392  18.527  0.00  0.00    +0.000 C 
ATOM     20  C   UNL     1       2.051  12.805  18.472  0.00  0.00    +0.000 C 
ATOM     21  O   UNL     1       2.934  13.568  19.301  0.00  0.00    +0.000 OA
ATOM     22  C   UNL     1       2.492  13.554  20.663  0.00  0.00    +0.000 C 
ATOM     23  C   UNL     1       1.038  14.026  20.795  0.00  0.00    +0.000 C 
ENDBRANCH  10  18
BRANCH   1  24
ATOM     24  C   UNL     1      -5.564  11.790  17.684  0.00  0.00    +0.000 C 
ATOM     25  O   UNL     1      -5.988  12.726  17.021  0.00  0.00    +0.000 OA
BRANCH  24  27
ATOM     26  C   UNL     1      -6.973  11.069  19.430  0.00  0.00    +0.000 C 
ATOM     27  O   UNL     1      -6.351  10.782  18.176  0.00  0.00    +0.000 OA
ENDBRANCH  24  27
ENDBRANCH   1  24
TORSDOF 4
ENDMDL
MODEL 7
REMARK VINA RESULT:      -6.2      5.831      9.723
REMARK  Name = 
REMARK  6 active torsions:
REMARK  status: ('A' for Active; 'I' for Inactive)
REMARK    1  A    between atoms: C_1  and  O_2
REMARK    2  A    between atoms: O_2  and  C_3
REMARK    3  A    between atoms: C_3  and  C_5
REMARK    4  A    between atoms: C_11  and  C_12
REMARK    5  A    between atoms: N_18  and  C_19
REMARK    6  A    between atoms: P_20  and  N_22
REMARK                            x       y       z     vdW  Elec       q    Type
REMARK                         _______ _______ _______ _____ _____    ______ ____
ROOT
ATOM      1  C   UNL     1      -4.685  11.820  18.236  0.00  0.00    +0.000 A 
ATOM      2  C   UNL     1      -4.001  12.369  19.305  0.00  0.00    +0.000 A 
ATOM      3  C   UNL     1      -2.666  11.865  19.405  0.00  0.00    +0.000 A 
ATOM      4  C   UNL     1      -2.354  10.960  18.435  0.00  0.00    +0.000 A 
ATOM      5  S   UNL     1      -3.681  10.725  17.372  0.00  0.00    +0.000 S 
ATOM      6  N   UNL     1      -1.208  10.260  18.281  0.00  0.00    +0.000 NA
ATOM      7  C   UNL     1      -0.398  10.237  19.301  0.00  0.00    +0.000 C 
ATOM      8  N   UNL     1      -0.579  10.951  20.488  0.00  0.00    +0.000 N 
ATOM      9  C   UNL     1       0.122  10.698  21.738  0.00  0.00    +0.000 C 
ATOM     10  P   UNL     1      -1.510  12.293  20.658  0.00  0.00    +0.000 P 
ATOM     11  O   UNL     1      -2.420  12.466  21.845  0.00  0.00    +0.000 OA
ENDROOT
BRANCH   7  12
ATOM     12  C   UNL     1       0.798   9.324  19.134  0.00  0.00    +0.000 A 
ATOM     13  C   UNL     1       1.173   8.406  20.120  0.00  0.00    +0.000 A 
ATOM     14  C   UNL     1       2.158   7.451  19.859  0.00  0.00    +0.000 A 
ATOM     15  C   UNL     1       2.820   7.452  18.634  0.00  0.00    +0.000 A 
ATOM     16  C   UNL     1       2.525   8.428  17.683  0.00  0.00    +0.000 A 
ATOM     17  C   UNL     1       1.519   9.365  17.931  0.00  0.00    +0.000 A 
ENDBRANCH   7  12
BRANCH  10  18
ATOM     18  N   UNL     1      -0.552  13.587  20.395  0.00  0.00    +0.000 NA
ATOM     19  C   UNL     1      -0.287  13.983  19.007  0.00  0.00    +0.000 C 
ATOM     20  C   UNL     1       1.051  13.420  18.514  0.00  0.00    +0.000 C 
ATOM     21  O   UNL     1       2.124  13.924  19.316  0.00  0.00    +0.000 OA
ATOM     22  C   UNL     1       1.953  13.546  20.687  0.00  0.00    +0.000 C 
ATOM     23  C   UNL     1       0.585  13.977  21.231  0.00  0.00    +0.000 C 
ENDBRANCH  10  18
BRANCH   1  24
ATOM     24  C   UNL     1      -6.054  12.044  17.799  0.00  0.00    +0.000 C 
ATOM     25  O   UNL     1      -7.053  11.466  18.203  0.00  0.00    +0.000 OA
BRANCH  24  27
ATOM     26  C   UNL     1      -6.909  14.139  17.140  0.00  0.00    +0.000 C 
ATOM     27  O   UNL     1      -6.070  13.022  16.840  0.00  0.00    +0.000 OA
ENDBRANCH  24  27
ENDBRANCH   1  24
TORSDOF 4
ENDMDL
MODEL 8
REMARK VINA RESULT:      -6.1      5.637      9.396
REMARK  Name = 
REMARK  6 active torsions:
REMARK  status: ('A' for Active; 'I' for Inactive)
REMARK    1  A    between atoms: C_1  and  O_2
REMARK    2  A    between atoms: O_2  and  C_3
REMARK    3  A    between atoms: C_3  and  C_5
REMARK    4  A    between atoms: C_11  and  C_12
REMARK    5  A    between atoms: N_18  and  C_19
REMARK    6  A    between atoms: P_20  and  N_22
REMARK                            x       y       z     vdW  Elec       q    Type
REMARK                         _______ _______ _______ _____ _____    ______ ____
ROOT
ATOM      1  C   UNL     1      -3.616  12.040  19.213  0.00  0.00    +0.000 A 
ATOM      2  C   UNL     1      -2.822  12.266  20.323  0.00  0.00    +0.000 A 
ATOM      3  C   UNL     1      -1.562  11.597  20.227  0.00  0.00    +0.000 A 
ATOM      4  C   UNL     1      -1.411  10.887  19.074  0.00  0.00    +0.000 A 
ATOM      5  S   UNL     1      -2.800  11.041  18.078  0.00  0.00    +0.000 S 
ATOM      6  N   UNL     1      -0.374  10.104  18.702  0.00  0.00    +0.000 NA
ATOM      7  C   UNL     1       0.468   9.770  19.639  0.00  0.00    +0.000 C 
ATOM      8  N   UNL     1       0.431  10.233  20.955  0.00  0.00    +0.000 N 
ATOM      9  C   UNL     1       1.145   9.640  22.077  0.00  0.00    +0.000 C 
ATOM     10  P   UNL     1      -0.308  11.609  21.460  0.00  0.00    +0.000 P 
ATOM     11  O   UNL     1      -1.138  11.635  22.716  0.00  0.00    +0.000 OA
ENDROOT
BRANCH   7  12
ATOM     12  C   UNL     1       1.527   8.777  19.207  0.00  0.00    +0.000 A 
ATOM     13  C   UNL     1       1.837   7.647  19.970  0.00  0.00    +0.000 A 
ATOM     14  C   UNL     1       2.677   6.656  19.456  0.00  0.00    +0.000 A 
ATOM     15  C   UNL     1       3.263   6.822  18.204  0.00  0.00    +0.000 A 
ATOM     16  C   UNL     1       3.040   7.992  17.480  0.00  0.00    +0.000 A 
ATOM     17  C   UNL     1       2.177   8.971  17.979  0.00  0.00    +0.000 A 
ENDBRANCH   7  12
BRANCH  10  18
ATOM     18  N   UNL     1       0.798  12.807  21.402  0.00  0.00    +0.000 NA
ATOM     19  C   UNL     1       0.417  14.128  21.915  0.00  0.00    +0.000 C 
ATOM     20  C   UNL     1      -0.030  15.058  20.781  0.00  0.00    +0.000 C 
ATOM     21  O   UNL     1       1.040  15.251  19.851  0.00  0.00    +0.000 OA
ATOM     22  C   UNL     1       1.446  14.003  19.278  0.00  0.00    +0.000 C 
ATOM     23  C   UNL     1       1.808  12.972  20.355  0.00  0.00    +0.000 C 
ENDBRANCH  10  18
BRANCH   1  24
ATOM     24  C   UNL     1      -4.961  12.513  18.925  0.00  0.00    +0.000 C 
ATOM     25  O   UNL     1      -5.518  13.480  19.425  0.00  0.00    +0.000 OA
BRANCH  24  27
ATOM     26  C   UNL     1      -6.563  10.839  18.489  0.00  0.00    +0.000 C 
ATOM     27  O   UNL     1      -5.537  11.698  17.986  0.00  0.00    +0.000 OA
ENDBRANCH  24  27
ENDBRANCH   1  24
TORSDOF 4
ENDMDL
MODEL 9
REMARK VINA RESULT:      -6.1      8.378     11.296
REMARK  Name = 
REMARK  6 active torsions:
REMARK  status: ('A' for Active; 'I' for Inactive)
REMARK    1  A    between atoms: C_1  and  O_2
REMARK    2  A    between atoms: O_2  and  C_3
REMARK    3  A    between atoms: C_3  and  C_5
REMARK    4  A    between atoms: C_11  and  C_12
REMARK    5  A    between atoms: N_18  and  C_19
REMARK    6  A    between atoms: P_20  and  N_22
REMARK                            x       y       z     vdW  Elec       q    Type
REMARK                         _______ _______ _______ _____ _____    ______ ____
ROOT
ATOM      1  C   UNL     1      -3.264  11.272  17.812  0.00  0.00    +0.000 A 
ATOM      2  C   UNL     1      -4.597  11.316  18.178  0.00  0.00    +0.000 A 
ATOM      3  C   UNL     1      -4.811  12.141  19.326  0.00  0.00    +0.000 A 
ATOM      4  C   UNL     1      -3.670  12.704  19.811  0.00  0.00    +0.000 A 
ATOM      5  S   UNL     1      -2.316  12.250  18.859  0.00  0.00    +0.000 S 
ATOM      6  N   UNL     1      -3.519  13.481  20.906  0.00  0.00    +0.000 NA
ATOM      7  C   UNL     1      -4.511  13.496  21.751  0.00  0.00    +0.000 C 
ATOM      8  N   UNL     1      -5.737  12.855  21.562  0.00  0.00    +0.000 N 
ATOM      9  C   UNL     1      -6.718  12.590  22.604  0.00  0.00    +0.000 C 
ATOM     10  P   UNL     1      -6.362  12.406  20.112  0.00  0.00    +0.000 P 
ATOM     11  O   UNL     1      -7.014  11.062  19.926  0.00  0.00    +0.000 OA
ENDROOT
BRANCH   7  12
ATOM     12  C   UNL     1      -4.237  14.262  23.028  0.00  0.00    +0.000 A 
ATOM     13  C   UNL     1      -3.532  13.696  24.095  0.00  0.00    +0.000 A 
ATOM     14  C   UNL     1      -3.133  14.484  25.176  0.00  0.00    +0.000 A 
ATOM     15  C   UNL     1      -3.494  15.828  25.228  0.00  0.00    +0.000 A 
ATOM     16  C   UNL     1      -4.285  16.376  24.219  0.00  0.00    +0.000 A 
ATOM     17  C   UNL     1      -4.660  15.597  23.122  0.00  0.00    +0.000 A 
ENDBRANCH   7  12
BRANCH  10  18
ATOM     18  N   UNL     1      -7.283  13.641  19.574  0.00  0.00    +0.000 NA
ATOM     19  C   UNL     1      -7.773  13.589  18.192  0.00  0.00    +0.000 C 
ATOM     20  C   UNL     1      -6.875  14.402  17.252  0.00  0.00    +0.000 C 
ATOM     21  O   UNL     1      -6.860  15.777  17.652  0.00  0.00    +0.000 OA
ATOM     22  C   UNL     1      -6.357  15.912  18.986  0.00  0.00    +0.000 C 
ATOM     23  C   UNL     1      -7.135  15.040  19.979  0.00  0.00    +0.000 C 
ENDBRANCH  10  18
BRANCH   1  24
ATOM     24  C   UNL     1      -2.625  10.542  16.729  0.00  0.00    +0.000 C 
ATOM     25  O   UNL     1      -1.846   9.606  16.838  0.00  0.00    +0.000 OA
BRANCH  24  27
ATOM     26  C   UNL     1      -3.251  10.100  14.500  0.00  0.00    +0.000 C 
ATOM     27  O   UNL     1      -3.029  11.066  15.528  0.00  0.00    +0.000 OA
ENDBRANCH  24  27
ENDBRANCH   1  24
TORSDOF 4
ENDMDL
