MODEL 1
REMARK VINA RESULT:      -6.0      0.000      0.000
REMARK  Name = 
REMARK  4 active torsions:
REMARK  status: ('A' for Active; 'I' for Inactive)
REMARK    1  A    between atoms: C_1  and  S_2
REMARK    2  A    between atoms: S_2  and  C_3
REMARK    3  A    between atoms: C_7  and  C_8
REMARK    4  A    between atoms: N_12  and  C_13
REMARK                            x       y       z     vdW  Elec       q    Type
REMARK                         _______ _______ _______ _____ _____    ______ ____
ROOT
ATOM      1  C   UNL     1       6.652   4.665  17.294  0.00  0.00    +0.000 A 
ATOM      2  N   UNL     1       7.775   5.274  17.717  0.00  0.00    +0.000 NA
ATOM      3  S   UNL     1       7.576   5.702  19.281  0.00  0.00    +0.000 S 
ATOM      4  N   UNL     1       6.118   5.002  19.542  0.00  0.00    +0.000 NA
ATOM      5  C   UNL     1       5.653   4.485  18.383  0.00  0.00    +0.000 A 
ENDROOT
BRANCH   5   6
ATOM      6  C   UNL     1       4.345   3.831  18.466  0.00  0.00    +0.000 C 
ATOM      7  C   UNL     1       3.809   2.953  17.622  0.00  0.00    +0.000 C 
ATOM      8  C   UNL     1       2.514   2.239  17.840  0.00  0.00    +0.000 C 
ATOM      9  C   UNL     1       1.743   2.559  19.128  0.00  0.00    +0.000 C 
ATOM     10  N   UNL     1       2.387   3.392  20.130  0.00  0.00    +0.000 NA
ATOM     11  C   UNL     1       2.475   2.772  21.444  0.00  0.00    +0.000 C 
ATOM     12  C   UNL     1       3.521   4.215  19.720  0.00  0.00    +0.000 C 
ENDBRANCH   5   6
BRANCH   1  14
ATOM     13  C   UNL     1       5.530   4.419  14.477  0.00  0.00    +0.000 C 
ATOM     14  S   UNL     1       6.898   4.313  15.593  0.00  0.00    +0.000 S 
ENDBRANCH   1  14
TORSDOF 2
ENDMDL
MODEL 2
REMARK VINA RESULT:      -5.9      1.252      1.252
REMARK  Name = 
REMARK  4 active torsions:
REMARK  status: ('A' for Active; 'I' for Inactive)
REMARK    1  A    between atoms: C_1  and  S_2
REMARK    2  A    between atoms: S_2  and  C_3
REMARK    3  A    between atoms: C_7  and  C_8
REMARK    4  A    between atoms: N_12  and  C_13
REMARK                            x       y       z     vdW  Elec       q    Type
REMARK                         _______ _______ _______ _____ _____    ______ ____
ROOT
ATOM      1  C   UNL     1       6.241   4.336  16.465  0.00  0.00    +0.000 A 
ATOM      2  N   UNL     1       7.503   4.725  16.726  0.00  0.00    +0.000 NA
ATOM      3  S   UNL     1       7.612   5.099  18.313  0.00  0.00    +0.000 S 
ATOM      4  N   UNL     1       6.109   4.641  18.776  0.00  0.00    +0.000 NA
ATOM      5  C   UNL     1       5.396   4.270  17.688  0.00  0.00    +0.000 A 
ENDROOT
BRANCH   5   6
ATOM      6  C   UNL     1       4.021   3.841  17.955  0.00  0.00    +0.000 C 
ATOM      7  C   UNL     1       3.478   2.645  17.742  0.00  0.00    +0.000 C 
ATOM      8  C   UNL     1       2.095   2.250  18.153  0.00  0.00    +0.000 C 
ATOM      9  C   UNL     1       1.239   3.314  18.855  0.00  0.00    +0.000 C 
ATOM     10  N   UNL     1       1.869   4.568  19.233  0.00  0.00    +0.000 NA
ATOM     11  C   UNL     1       1.754   4.881  20.650  0.00  0.00    +0.000 C 
ATOM     12  C   UNL     1       3.124   4.935  18.584  0.00  0.00    +0.000 C 
ENDBRANCH   5   6
BRANCH   1  14
ATOM     13  C   UNL     1       7.256   4.917  13.657  0.00  0.00    +0.000 C 
ATOM     14  S   UNL     1       6.170   4.035  14.738  0.00  0.00    +0.000 S 
ENDBRANCH   1  14
TORSDOF 2
ENDMDL
MODEL 3
REMARK VINA RESULT:      -5.9      1.028      1.028
REMARK  Name = 
REMARK  4 active torsions:
REMARK  status: ('A' for Active; 'I' for Inactive)
REMARK    1  A    between atoms: C_1  and  S_2
REMARK    2  A    between atoms: S_2  and  C_3
REMARK    3  A    between atoms: C_7  and  C_8
REMARK    4  A    between atoms: N_12  and  C_13
REMARK                            x       y       z     vdW  Elec       q    Type
REMARK                         _______ _______ _______ _____ _____    ______ ____
ROOT
ATOM      1  C   UNL     1       6.124   4.509  16.901  0.00  0.00    +0.000 A 
ATOM      2  N   UNL     1       7.428   4.755  17.121  0.00  0.00    +0.000 NA
ATOM      3  S   UNL     1       7.611   5.235  18.672  0.00  0.00    +0.000 S 
ATOM      4  N   UNL     1       6.071   5.007  19.181  0.00  0.00    +0.000 NA
ATOM      5  C   UNL     1       5.299   4.645  18.132  0.00  0.00    +0.000 A 
ENDROOT
BRANCH   5   6
ATOM      6  C   UNL     1       3.886   4.415  18.442  0.00  0.00    +0.000 C 
ATOM      7  C   UNL     1       2.924   3.991  17.627  0.00  0.00    +0.000 C 
ATOM      8  C   UNL     1       1.527   3.666  18.050  0.00  0.00    +0.000 C 
ATOM      9  C   UNL     1       1.180   3.855  19.533  0.00  0.00    +0.000 C 
ATOM     10  N   UNL     1       2.255   4.164  20.460  0.00  0.00    +0.000 NA
ATOM     11  C   UNL     1       2.367   3.226  21.568  0.00  0.00    +0.000 C 
ATOM     12  C   UNL     1       3.506   4.687  19.919  0.00  0.00    +0.000 C 
ENDBRANCH   5   6
BRANCH   1  14
ATOM     13  C   UNL     1       7.079   4.832  14.031  0.00  0.00    +0.000 C 
ATOM     14  S   UNL     1       5.986   4.086  15.204  0.00  0.00    +0.000 S 
ENDBRANCH   1  14
TORSDOF 2
ENDMDL
MODEL 4
REMARK VINA RESULT:      -5.9      1.111      1.837
REMARK  Name = 
REMARK  4 active torsions:
REMARK  status: ('A' for Active; 'I' for Inactive)
REMARK    1  A    between atoms: C_1  and  S_2
REMARK    2  A    between atoms: S_2  and  C_3
REMARK    3  A    between atoms: C_7  and  C_8
REMARK    4  A    between atoms: N_12  and  C_13
REMARK                            x       y       z     vdW  Elec       q    Type
REMARK                         _______ _______ _______ _____ _____    ______ ____
ROOT
ATOM      1  C   UNL     1       6.089   4.625  17.475  0.00  0.00    +0.000 A 
ATOM      2  N   UNL     1       7.409   4.875  17.405  0.00  0.00    +0.000 NA
ATOM      3  S   UNL     1       7.894   5.509  18.830  0.00  0.00    +0.000 S 
ATOM      4  N   UNL     1       6.488   5.356  19.656  0.00  0.00    +0.000 NA
ATOM      5  C   UNL     1       5.524   4.898  18.825  0.00  0.00    +0.000 A 
ENDROOT
BRANCH   5   6
ATOM      6  C   UNL     1       4.203   4.720  19.432  0.00  0.00    +0.000 C 
ATOM      7  C   UNL     1       3.326   5.658  19.780  0.00  0.00    +0.000 C 
ATOM      8  C   UNL     1       1.945   5.389  20.287  0.00  0.00    +0.000 C 
ATOM      9  C   UNL     1       1.521   3.920  20.428  0.00  0.00    +0.000 C 
ATOM     10  N   UNL     1       2.406   2.893  19.906  0.00  0.00    +0.000 NA
ATOM     11  C   UNL     1       1.776   2.009  18.936  0.00  0.00    +0.000 C 
ATOM     12  C   UNL     1       3.802   3.242  19.660  0.00  0.00    +0.000 C 
ENDBRANCH   5   6
BRANCH   1  14
ATOM     13  C   UNL     1       6.648   4.370  14.496  0.00  0.00    +0.000 C 
ATOM     14  S   UNL     1       5.618   4.032  15.893  0.00  0.00    +0.000 S 
ENDBRANCH   1  14
TORSDOF 2
ENDMDL
MODEL 5
REMARK VINA RESULT:      -5.8      2.067      3.005
REMARK  Name = 
REMARK  4 active torsions:
REMARK  status: ('A' for Active; 'I' for Inactive)
REMARK    1  A    between atoms: C_1  and  S_2
REMARK    2  A    between atoms: S_2  and  C_3
REMARK    3  A    between atoms: C_7  and  C_8
REMARK    4  A    between atoms: N_12  and  C_13
REMARK                            x       y       z     vdW  Elec       q    Type
REMARK                         _______ _______ _______ _____ _____    ______ ____
ROOT
ATOM      1  C   UNL     1       6.520   5.464  16.654  0.00  0.00    +0.000 A 
ATOM      2  N   UNL     1       7.346   5.584  15.599  0.00  0.00    +0.000 NA
ATOM      3  S   UNL     1       6.745   4.697  14.367  0.00  0.00    +0.000 S 
ATOM      4  N   UNL     1       5.333   4.241  15.059  0.00  0.00    +0.000 NA
ATOM      5  C   UNL     1       5.301   4.670  16.341  0.00  0.00    +0.000 A 
ENDROOT
BRANCH   5   6
ATOM      6  C   UNL     1       4.090   4.324  17.089  0.00  0.00    +0.000 C 
ATOM      7  C   UNL     1       3.618   3.113  17.374  0.00  0.00    +0.000 C 
ATOM      8  C   UNL     1       2.435   2.842  18.248  0.00  0.00    +0.000 C 
ATOM      9  C   UNL     1       1.706   4.055  18.841  0.00  0.00    +0.000 C 
ATOM     10  N   UNL     1       2.300   5.370  18.669  0.00  0.00    +0.000 NA
ATOM     11  C   UNL     1       2.539   6.078  19.918  0.00  0.00    +0.000 C 
ATOM     12  C   UNL     1       3.299   5.546  17.619  0.00  0.00    +0.000 C 
ENDBRANCH   5   6
BRANCH   1  14
ATOM     13  C   UNL     1       7.810   8.022  17.678  0.00  0.00    +0.000 C 
ATOM     14  S   UNL     1       7.264   6.364  17.964  0.00  0.00    +0.000 S 
ENDBRANCH   1  14
TORSDOF 2
ENDMDL
MODEL 6
REMARK VINA RESULT:      -5.7      2.037      3.131
REMARK  Name = 
REMARK  4 active torsions:
REMARK  status: ('A' for Active; 'I' for Inactive)
REMARK    1  A    between atoms: C_1  and  S_2
REMARK    2  A    between atoms: S_2  and  C_3
REMARK    3  A    between atoms: C_7  and  C_8
REMARK    4  A    between atoms: N_12  and  C_13
REMARK                            x       y       z     vdW  Elec       q    Type
REMARK                         _______ _______ _______ _____ _____    ______ ____
ROOT
ATOM      1  C   UNL     1       6.743   5.828  16.865  0.00  0.00    +0.000 A 
ATOM      2  N   UNL     1       7.482   5.707  15.747  0.00  0.00    +0.000 NA
ATOM      3  S   UNL     1       6.691   4.727  14.707  0.00  0.00    +0.000 S 
ATOM      4  N   UNL     1       5.306   4.532  15.559  0.00  0.00    +0.000 NA
ATOM      5  C   UNL     1       5.429   5.137  16.762  0.00  0.00    +0.000 A 
ENDROOT
BRANCH   5   6
ATOM      6  C   UNL     1       4.260   5.036  17.639  0.00  0.00    +0.000 C 
ATOM      7  C   UNL     1       3.378   5.983  17.946  0.00  0.00    +0.000 C 
ATOM      8  C   UNL     1       2.140   5.768  18.757  0.00  0.00    +0.000 C 
ATOM      9  C   UNL     1       1.884   4.349  19.286  0.00  0.00    +0.000 C 
ATOM     10  N   UNL     1       2.751   3.275  18.830  0.00  0.00    +0.000 NA
ATOM     11  C   UNL     1       2.040   2.167  18.211  0.00  0.00    +0.000 C 
ATOM     12  C   UNL     1       4.042   3.628  18.248  0.00  0.00    +0.000 C 
ENDBRANCH   5   6
BRANCH   1  14
ATOM     13  C   UNL     1       7.824   8.554  17.677  0.00  0.00    +0.000 C 
ATOM     14  S   UNL     1       7.685   6.815  17.969  0.00  0.00    +0.000 S 
ENDBRANCH   1  14
TORSDOF 2
ENDMDL
MODEL 7
REMARK VINA RESULT:      -5.7      1.721      1.744
REMARK  Name = 
REMARK  4 active torsions:
REMARK  status: ('A' for Active; 'I' for Inactive)
REMARK    1  A    between atoms: C_1  and  S_2
REMARK    2  A    between atoms: S_2  and  C_3
REMARK    3  A    between atoms: C_7  and  C_8
REMARK    4  A    between atoms: N_12  and  C_13
REMARK                            x       y       z     vdW  Elec       q    Type
REMARK                         _______ _______ _______ _____ _____    ______ ____
ROOT
ATOM      1  C   UNL     1       6.458   5.353  15.992  0.00  0.00    +0.000 A 
ATOM      2  N   UNL     1       7.539   6.127  16.196  0.00  0.00    +0.000 NA
ATOM      3  S   UNL     1       7.276   7.048  17.519  0.00  0.00    +0.000 S 
ATOM      4  N   UNL     1       5.846   6.402  17.986  0.00  0.00    +0.000 NA
ATOM      5  C   UNL     1       5.437   5.500  17.066  0.00  0.00    +0.000 A 
ENDROOT
BRANCH   5   6
ATOM      6  C   UNL     1       4.159   4.845  17.352  0.00  0.00    +0.000 C 
ATOM      7  C   UNL     1       3.764   3.623  17.003  0.00  0.00    +0.000 C 
ATOM      8  C   UNL     1       2.485   2.982  17.437  0.00  0.00    +0.000 C 
ATOM      9  C   UNL     1       1.555   3.807  18.338  0.00  0.00    +0.000 C 
ATOM     10  N   UNL     1       2.040   5.076  18.854  0.00  0.00    +0.000 NA
ATOM     11  C   UNL     1       2.001   5.176  20.306  0.00  0.00    +0.000 C 
ATOM     12  C   UNL     1       3.177   5.704  18.187  0.00  0.00    +0.000 C 
ENDBRANCH   5   6
BRANCH   1  14
ATOM     13  C   UNL     1       5.406   3.919  13.524  0.00  0.00    +0.000 C 
ATOM     14  S   UNL     1       6.767   4.459  14.515  0.00  0.00    +0.000 S 
ENDBRANCH   1  14
TORSDOF 2
ENDMDL
MODEL 8
REMARK VINA RESULT:      -5.6      2.862      5.193
REMARK  Name = 
REMARK  4 active torsions:
REMARK  status: ('A' for Active; 'I' for Inactive)
REMARK    1  A    between atoms: C_1  and  S_2
REMARK    2  A    between atoms: S_2  and  C_3
REMARK    3  A    between atoms: C_7  and  C_8
REMARK    4  A    between atoms: N_12  and  C_13
REMARK                            x       y       z     vdW  Elec       q    Type
REMARK                         _______ _______ _______ _____ _____    ______ ____
ROOT
ATOM      1  C   UNL     1       2.206   4.412  19.298  0.00  0.00    +0.000 A 
ATOM      2  N   UNL     1       1.075   3.762  19.629  0.00  0.00    +0.000 NA
ATOM      3  S   UNL     1       0.975   2.403  18.728  0.00  0.00    +0.000 S 
ATOM      4  N   UNL     1       2.433   2.494  17.987  0.00  0.00    +0.000 NA
ATOM      5  C   UNL     1       3.037   3.657  18.321  0.00  0.00    +0.000 A 
ENDROOT
BRANCH   5   6
ATOM      6  C   UNL     1       4.354   3.876  17.719  0.00  0.00    +0.000 C 
ATOM      7  C   UNL     1       4.658   3.999  16.430  0.00  0.00    +0.000 C 
ATOM      8  C   UNL     1       6.015   4.342  15.901  0.00  0.00    +0.000 C 
ATOM      9  C   UNL     1       7.137   4.549  16.927  0.00  0.00    +0.000 C 
ATOM     10  N   UNL     1       6.789   4.573  18.338  0.00  0.00    +0.000 NA
ATOM     11  C   UNL     1       7.206   5.785  19.028  0.00  0.00    +0.000 C 
ATOM     12  C   UNL     1       5.509   3.999  18.744  0.00  0.00    +0.000 C 
ENDBRANCH   5   6
BRANCH   1  14
ATOM     13  C   UNL     1       2.282   7.452  19.392  0.00  0.00    +0.000 C 
ATOM     14  S   UNL     1       2.208   5.897  20.232  0.00  0.00    +0.000 S 
ENDBRANCH   1  14
TORSDOF 2
ENDMDL
MODEL 9
REMARK VINA RESULT:      -5.6      1.864      3.075
REMARK  Name = 
REMARK  4 active torsions:
REMARK  status: ('A' for Active; 'I' for Inactive)
REMARK    1  A    between atoms: C_1  and  S_2
REMARK    2  A    between atoms: S_2  and  C_3
REMARK    3  A    between atoms: C_7  and  C_8
REMARK    4  A    between atoms: N_12  and  C_13
REMARK                            x       y       z     vdW  Elec       q    Type
REMARK                         _______ _______ _______ _____ _____    ______ ____
ROOT
ATOM      1  C   UNL     1       6.849   5.519  16.927  0.00  0.00    +0.000 A 
ATOM      2  N   UNL     1       7.449   5.788  15.753  0.00  0.00    +0.000 NA
ATOM      3  S   UNL     1       6.878   4.750  14.629  0.00  0.00    +0.000 S 
ATOM      4  N   UNL     1       5.734   4.011  15.538  0.00  0.00    +0.000 NA
ATOM      5  C   UNL     1       5.808   4.462  16.810  0.00  0.00    +0.000 A 
ENDROOT
BRANCH   5   6
ATOM      6  C   UNL     1       4.842   3.876  17.742  0.00  0.00    +0.000 C 
ATOM      7  C   UNL     1       4.991   3.644  19.043  0.00  0.00    +0.000 C 
ATOM      8  C   UNL     1       3.911   3.152  19.953  0.00  0.00    +0.000 C 
ATOM      9  C   UNL     1       2.536   2.880  19.328  0.00  0.00    +0.000 C 
ATOM     10  N   UNL     1       2.313   3.276  17.948  0.00  0.00    +0.000 NA
ATOM     11  C   UNL     1       1.181   4.174  17.767  0.00  0.00    +0.000 C 
ATOM     12  C   UNL     1       3.478   3.517  17.101  0.00  0.00    +0.000 C 
ENDBRANCH   5   6
BRANCH   1  14
ATOM     13  C   UNL     1       7.845   8.296  17.669  0.00  0.00    +0.000 C 
ATOM     14  S   UNL     1       7.567   6.605  18.104  0.00  0.00    +0.000 S 
ENDBRANCH   1  14
TORSDOF 2
ENDMDL
