MODEL 1
REMARK VINA RESULT:      -9.0      0.000      0.000
REMARK  Name = 
REMARK  4 active torsions:
REMARK  status: ('A' for Active; 'I' for Inactive)
REMARK    1  A    between atoms: C_2  and  C_3
REMARK    2  A    between atoms: C_3  and  O_4
REMARK    3  A    between atoms: O_4  and  C_5
REMARK    4  A    between atoms: C_12  and  C_13
REMARK                            x       y       z     vdW  Elec       q    Type
REMARK                         _______ _______ _______ _____ _____    ______ ____
ROOT
ATOM      1  C   UNL     1       3.633   3.640  17.567  0.00  0.00    +0.000 A 
ATOM      2  C   UNL     1       3.830   2.279  17.842  0.00  0.00    +0.000 A 
ATOM      3  C   UNL     1       3.440   1.740  19.063  0.00  0.00    +0.000 A 
ATOM      4  C   UNL     1       2.842   2.555  20.015  0.00  0.00    +0.000 A 
ATOM      5  C   UNL     1       2.623   3.914  19.747  0.00  0.00    +0.000 A 
ATOM      6  C   UNL     1       2.012   4.736  20.703  0.00  0.00    +0.000 A 
ATOM      7  C   UNL     1       1.800   6.079  20.424  0.00  0.00    +0.000 A 
ATOM      8  C   UNL     1       2.210   6.574  19.195  0.00  0.00    +0.000 A 
ATOM      9  N   UNL     1       2.808   5.797  18.265  0.00  0.00    +0.000 NA
ATOM     10  C   UNL     1       3.017   4.482  18.515  0.00  0.00    +0.000 A 
ENDROOT
BRANCH   8  11
ATOM     11  C   UNL     1       2.043   7.990  18.867  0.00  0.00    +0.000 A 
ATOM     12  N   UNL     1       2.501   8.564  17.761  0.00  0.00    +0.000 NA
ATOM     13  N   UNL     1       2.102   9.874  17.732  0.00  0.00    +0.000 NA
ATOM     14  C   UNL     1       1.410  10.099  18.822  0.00  0.00    +0.000 A 
ATOM     15  C   UNL     1       0.739  11.260  19.290  0.00  0.00    +0.000 A 
ATOM     16  C   UNL     1       0.120  11.230  20.484  0.00  0.00    +0.000 A 
ATOM     17  C   UNL     1       0.149  10.042  21.322  0.00  0.00    +0.000 A 
ATOM     18 BR   UNL     1      -0.651  10.172  22.989  0.00  0.00    +0.000 Br
ATOM     19  C   UNL     1       0.748   8.926  20.867  0.00  0.00    +0.000 A 
ATOM     20  N   UNL     1       1.370   8.951  19.611  0.00  0.00    +0.000 N 
ENDBRANCH   8  11
BRANCH   1  21
ATOM     21  O   UNL     1       4.026   4.240  16.384  0.00  0.00    +0.000 OA
BRANCH  21  22
ATOM     22  C   UNL     1       5.323   3.900  15.882  0.00  0.00    +0.000 C 
BRANCH  22  24
ATOM     23  F   UNL     1       7.471   4.802  15.573  0.00  0.00    +0.000 F 
ATOM     24  C   UNL     1       6.398   4.853  16.423  0.00  0.00    +0.000 C 
ATOM     25  C   UNL     1       6.884   4.380  17.797  0.00  0.00    +0.000 C 
ATOM     26  C   UNL     1       7.900   5.355  18.380  0.00  0.00    +0.000 C 
ATOM     27  N   UNL     1       7.328   6.699  18.477  0.00  0.00    +0.000 NA
ATOM     28  C   UNL     1       6.961   7.189  17.147  0.00  0.00    +0.000 C 
ATOM     29  C   UNL     1       5.910   6.299  16.493  0.00  0.00    +0.000 C 
ATOM     30  H   UNL     1       8.035   7.326  18.866  0.00  0.00    +0.000 HD
ENDBRANCH  22  24
ENDBRANCH  21  22
ENDBRANCH   1  21
TORSDOF 4
ENDMDL
MODEL 2
REMARK VINA RESULT:      -8.8      3.786      7.393
REMARK  Name = 
REMARK  4 active torsions:
REMARK  status: ('A' for Active; 'I' for Inactive)
REMARK    1  A    between atoms: C_2  and  C_3
REMARK    2  A    between atoms: C_3  and  O_4
REMARK    3  A    between atoms: O_4  and  C_5
REMARK    4  A    between atoms: C_12  and  C_13
REMARK                            x       y       z     vdW  Elec       q    Type
REMARK                         _______ _______ _______ _____ _____    ______ ____
ROOT
ATOM      1  C   UNL     1       2.362   5.980  19.398  0.00  0.00    +0.000 A 
ATOM      2  C   UNL     1       1.331   5.602  20.270  0.00  0.00    +0.000 A 
ATOM      3  C   UNL     1       0.957   4.267  20.387  0.00  0.00    +0.000 A 
ATOM      4  C   UNL     1       1.617   3.300  19.641  0.00  0.00    +0.000 A 
ATOM      5  C   UNL     1       2.662   3.661  18.779  0.00  0.00    +0.000 A 
ATOM      6  C   UNL     1       3.334   2.686  18.032  0.00  0.00    +0.000 A 
ATOM      7  C   UNL     1       4.368   3.057  17.183  0.00  0.00    +0.000 A 
ATOM      8  C   UNL     1       4.702   4.400  17.093  0.00  0.00    +0.000 A 
ATOM      9  N   UNL     1       4.059   5.355  17.801  0.00  0.00    +0.000 NA
ATOM     10  C   UNL     1       3.053   5.011  18.641  0.00  0.00    +0.000 A 
ENDROOT
BRANCH   8  11
ATOM     11  C   UNL     1       5.759   4.848  16.186  0.00  0.00    +0.000 A 
ATOM     12  N   UNL     1       6.796   5.593  16.549  0.00  0.00    +0.000 NA
ATOM     13  N   UNL     1       7.631   5.760  15.476  0.00  0.00    +0.000 NA
ATOM     14  C   UNL     1       7.098   5.127  14.460  0.00  0.00    +0.000 A 
ATOM     15  C   UNL     1       7.546   4.943  13.124  0.00  0.00    +0.000 A 
ATOM     16  C   UNL     1       6.775   4.264  12.256  0.00  0.00    +0.000 A 
ATOM     17  C   UNL     1       5.476   3.738  12.648  0.00  0.00    +0.000 A 
ATOM     18 BR   UNL     1       4.470   2.918  11.325  0.00  0.00    +0.000 Br
ATOM     19  C   UNL     1       5.065   3.873  13.923  0.00  0.00    +0.000 A 
ATOM     20  N   UNL     1       5.882   4.558  14.832  0.00  0.00    +0.000 N 
ENDBRANCH   8  11
BRANCH   1  21
ATOM     21  O   UNL     1       2.759   7.292  19.215  0.00  0.00    +0.000 OA
BRANCH  21  22
ATOM     22  C   UNL     1       2.223   7.982  18.080  0.00  0.00    +0.000 C 
BRANCH  22  24
ATOM     23  F   UNL     1       0.258   9.235  17.779  0.00  0.00    +0.000 F 
ATOM     24  C   UNL     1       1.419   9.217  18.508  0.00  0.00    +0.000 C 
ATOM     25  C   UNL     1       2.189  10.496  18.167  0.00  0.00    +0.000 C 
ATOM     26  C   UNL     1       1.436  11.730  18.650  0.00  0.00    +0.000 C 
ATOM     27  N   UNL     1       1.189  11.653  20.090  0.00  0.00    +0.000 NA
ATOM     28  C   UNL     1       0.362  10.485  20.399  0.00  0.00    +0.000 C 
ATOM     29  C   UNL     1       1.052   9.187  19.990  0.00  0.00    +0.000 C 
ATOM     30  H   UNL     1       0.680  12.491  20.379  0.00  0.00    +0.000 HD
ENDBRANCH  22  24
ENDBRANCH  21  22
ENDBRANCH   1  21
TORSDOF 4
ENDMDL
MODEL 3
REMARK VINA RESULT:      -8.7      3.741      7.405
REMARK  Name = 
REMARK  4 active torsions:
REMARK  status: ('A' for Active; 'I' for Inactive)
REMARK    1  A    between atoms: C_2  and  C_3
REMARK    2  A    between atoms: C_3  and  O_4
REMARK    3  A    between atoms: O_4  and  C_5
REMARK    4  A    between atoms: C_12  and  C_13
REMARK                            x       y       z     vdW  Elec       q    Type
REMARK                         _______ _______ _______ _____ _____    ______ ____
ROOT
ATOM      1  C   UNL     1       2.339   5.788  19.485  0.00  0.00    +0.000 A 
ATOM      2  C   UNL     1       1.306   5.376  20.339  0.00  0.00    +0.000 A 
ATOM      3  C   UNL     1       0.925   4.039  20.395  0.00  0.00    +0.000 A 
ATOM      4  C   UNL     1       1.581   3.104  19.606  0.00  0.00    +0.000 A 
ATOM      5  C   UNL     1       2.628   3.499  18.761  0.00  0.00    +0.000 A 
ATOM      6  C   UNL     1       3.295   2.555  17.970  0.00  0.00    +0.000 A 
ATOM      7  C   UNL     1       4.331   2.960  17.139  0.00  0.00    +0.000 A 
ATOM      8  C   UNL     1       4.672   4.304  17.111  0.00  0.00    +0.000 A 
ATOM      9  N   UNL     1       4.033   5.229  17.861  0.00  0.00    +0.000 NA
ATOM     10  C   UNL     1       3.025   4.852  18.684  0.00  0.00    +0.000 A 
ENDROOT
BRANCH   8  11
ATOM     11  C   UNL     1       5.731   4.787  16.225  0.00  0.00    +0.000 A 
ATOM     12  N   UNL     1       6.741   5.557  16.611  0.00  0.00    +0.000 NA
ATOM     13  N   UNL     1       7.590   5.755  15.554  0.00  0.00    +0.000 NA
ATOM     14  C   UNL     1       7.091   5.116  14.524  0.00  0.00    +0.000 A 
ATOM     15  C   UNL     1       7.566   4.955  13.195  0.00  0.00    +0.000 A 
ATOM     16  C   UNL     1       6.828   4.262  12.309  0.00  0.00    +0.000 A 
ATOM     17  C   UNL     1       5.538   3.697  12.675  0.00  0.00    +0.000 A 
ATOM     18 BR   UNL     1       4.577   2.861  11.329  0.00  0.00    +0.000 Br
ATOM     19  C   UNL     1       5.102   3.811  13.943  0.00  0.00    +0.000 A 
ATOM     20  N   UNL     1       5.884   4.511  14.871  0.00  0.00    +0.000 N 
ENDBRANCH   8  11
BRANCH   1  21
ATOM     21  O   UNL     1       2.743   7.105  19.363  0.00  0.00    +0.000 OA
BRANCH  21  22
ATOM     22  C   UNL     1       2.265   7.828  18.222  0.00  0.00    +0.000 C 
BRANCH  22  24
ATOM     23  F   UNL     1       2.368  10.169  18.400  0.00  0.00    +0.000 F 
ATOM     24  C   UNL     1       1.532   9.110  18.642  0.00  0.00    +0.000 C 
ATOM     25  C   UNL     1       1.247   9.089  20.147  0.00  0.00    +0.000 C 
ATOM     26  C   UNL     1       0.457  10.323  20.568  0.00  0.00    +0.000 C 
ATOM     27  N   UNL     1      -0.794  10.416  19.814  0.00  0.00    +0.000 NA
ATOM     28  C   UNL     1      -0.513  10.541  18.383  0.00  0.00    +0.000 C 
ATOM     29  C   UNL     1       0.243   9.327  17.852  0.00  0.00    +0.000 C 
ATOM     30  H   UNL     1      -1.295  11.254  20.117  0.00  0.00    +0.000 HD
ENDBRANCH  22  24
ENDBRANCH  21  22
ENDBRANCH   1  21
TORSDOF 4
ENDMDL
MODEL 4
REMARK VINA RESULT:      -8.7      3.864      7.585
REMARK  Name = 
REMARK  4 active torsions:
REMARK  status: ('A' for Active; 'I' for Inactive)
REMARK    1  A    between atoms: C_2  and  C_3
REMARK    2  A    between atoms: C_3  and  O_4
REMARK    3  A    between atoms: O_4  and  C_5
REMARK    4  A    between atoms: C_12  and  C_13
REMARK                            x       y       z     vdW  Elec       q    Type
REMARK                         _______ _______ _______ _____ _____    ______ ____
ROOT
ATOM      1  C   UNL     1       2.600   6.291  19.025  0.00  0.00    +0.000 A 
ATOM      2  C   UNL     1       1.606   5.994  19.969  0.00  0.00    +0.000 A 
ATOM      3  C   UNL     1       1.304   4.673  20.285  0.00  0.00    +0.000 A 
ATOM      4  C   UNL     1       1.998   3.642  19.667  0.00  0.00    +0.000 A 
ATOM      5  C   UNL     1       3.006   3.925  18.734  0.00  0.00    +0.000 A 
ATOM      6  C   UNL     1       3.713   2.886  18.116  0.00  0.00    +0.000 A 
ATOM      7  C   UNL     1       4.709   3.181  17.195  0.00  0.00    +0.000 A 
ATOM      8  C   UNL     1       4.972   4.512  16.907  0.00  0.00    +0.000 A 
ATOM      9  N   UNL     1       4.294   5.526  17.488  0.00  0.00    +0.000 NA
ATOM     10  C   UNL     1       3.324   5.259  18.395  0.00  0.00    +0.000 A 
ENDROOT
BRANCH   8  11
ATOM     11  C   UNL     1       5.987   4.875  15.916  0.00  0.00    +0.000 A 
ATOM     12  N   UNL     1       7.084   5.571  16.185  0.00  0.00    +0.000 NA
ATOM     13  N   UNL     1       7.851   5.662  15.054  0.00  0.00    +0.000 NA
ATOM     14  C   UNL     1       7.217   5.030  14.097  0.00  0.00    +0.000 A 
ATOM     15  C   UNL     1       7.562   4.785  12.741  0.00  0.00    +0.000 A 
ATOM     16  C   UNL     1       6.698   4.125  11.949  0.00  0.00    +0.000 A 
ATOM     17  C   UNL     1       5.404   3.682  12.443  0.00  0.00    +0.000 A 
ATOM     18 BR   UNL     1       4.267   2.881  11.218  0.00  0.00    +0.000 Br
ATOM     19  C   UNL     1       5.088   3.875  13.738  0.00  0.00    +0.000 A 
ATOM     20  N   UNL     1       6.001   4.540  14.568  0.00  0.00    +0.000 N 
ENDBRANCH   8  11
BRANCH   1  21
ATOM     21  O   UNL     1       2.925   7.581  18.646  0.00  0.00    +0.000 OA
BRANCH  21  22
ATOM     22  C   UNL     1       2.007   8.255  17.777  0.00  0.00    +0.000 C 
BRANCH  22  24
ATOM     23  F   UNL     1       1.442   9.309  19.800  0.00  0.00    +0.000 F 
ATOM     24  C   UNL     1       1.426   9.509  18.444  0.00  0.00    +0.000 C 
ATOM     25  C   UNL     1      -0.036   9.702  18.031  0.00  0.00    +0.000 C 
ATOM     26  C   UNL     1      -0.606  10.983  18.629  0.00  0.00    +0.000 C 
ATOM     27  N   UNL     1       0.194  12.141  18.227  0.00  0.00    +0.000 NA
ATOM     28  C   UNL     1       1.567  12.000  18.716  0.00  0.00    +0.000 C 
ATOM     29  C   UNL     1       2.244  10.762  18.136  0.00  0.00    +0.000 C 
ATOM     30  H   UNL     1      -0.211  12.979  18.648  0.00  0.00    +0.000 HD
ENDBRANCH  22  24
ENDBRANCH  21  22
ENDBRANCH   1  21
TORSDOF 4
ENDMDL
MODEL 5
REMARK VINA RESULT:      -8.4      3.761      7.350
REMARK  Name = 
REMARK  4 active torsions:
REMARK  status: ('A' for Active; 'I' for Inactive)
REMARK    1  A    between atoms: C_2  and  C_3
REMARK    2  A    between atoms: C_3  and  O_4
REMARK    3  A    between atoms: O_4  and  C_5
REMARK    4  A    between atoms: C_12  and  C_13
REMARK                            x       y       z     vdW  Elec       q    Type
REMARK                         _______ _______ _______ _____ _____    ______ ____
ROOT
ATOM      1  C   UNL     1       2.071   5.193  19.808  0.00  0.00    +0.000 A 
ATOM      2  C   UNL     1       1.039   4.628  20.572  0.00  0.00    +0.000 A 
ATOM      3  C   UNL     1       0.743   3.272  20.470  0.00  0.00    +0.000 A 
ATOM      4  C   UNL     1       1.482   2.470  19.610  0.00  0.00    +0.000 A 
ATOM      5  C   UNL     1       2.527   3.018  18.853  0.00  0.00    +0.000 A 
ATOM      6  C   UNL     1       3.278   2.209  17.991  0.00  0.00    +0.000 A 
ATOM      7  C   UNL     1       4.311   2.764  17.248  0.00  0.00    +0.000 A 
ATOM      8  C   UNL     1       4.567   4.121  17.378  0.00  0.00    +0.000 A 
ATOM      9  N   UNL     1       3.847   4.918  18.199  0.00  0.00    +0.000 NA
ATOM     10  C   UNL     1       2.840   4.393  18.938  0.00  0.00    +0.000 A 
ENDROOT
BRANCH   8  11
ATOM     11  C   UNL     1       5.620   4.762  16.590  0.00  0.00    +0.000 A 
ATOM     12  N   UNL     1       6.481   5.652  17.069  0.00  0.00    +0.000 NA
ATOM     13  N   UNL     1       7.379   5.986  16.090  0.00  0.00    +0.000 NA
ATOM     14  C   UNL     1       7.059   5.308  15.015  0.00  0.00    +0.000 A 
ATOM     15  C   UNL     1       7.659   5.241  13.729  0.00  0.00    +0.000 A 
ATOM     16  C   UNL     1       7.098   4.475  12.776  0.00  0.00    +0.000 A 
ATOM     17  C   UNL     1       5.871   3.734  13.026  0.00  0.00    +0.000 A 
ATOM     18 BR   UNL     1       5.147   2.806  11.594  0.00  0.00    +0.000 Br
ATOM     19  C   UNL     1       5.320   3.761  14.253  0.00  0.00    +0.000 A 
ATOM     20  N   UNL     1       5.921   4.539  15.252  0.00  0.00    +0.000 N 
ENDBRANCH   8  11
BRANCH   1  21
ATOM     21  O   UNL     1       2.392   6.537  19.844  0.00  0.00    +0.000 OA
BRANCH  21  22
ATOM     22  C   UNL     1       1.634   7.364  20.735  0.00  0.00    +0.000 C 
BRANCH  22  24
ATOM     23  F   UNL     1       1.943   9.690  20.858  0.00  0.00    +0.000 F 
ATOM     24  C   UNL     1       1.325   8.728  20.102  0.00  0.00    +0.000 C 
ATOM     25  C   UNL     1      -0.180   9.007  20.151  0.00  0.00    +0.000 C 
ATOM     26  C   UNL     1      -0.511  10.326  19.463  0.00  0.00    +0.000 C 
ATOM     27  N   UNL     1      -0.040  10.318  18.078  0.00  0.00    +0.000 NA
ATOM     28  C   UNL     1       1.415  10.155  18.040  0.00  0.00    +0.000 C 
ATOM     29  C   UNL     1       1.847   8.835  18.671  0.00  0.00    +0.000 C 
ATOM     30  H   UNL     1      -0.273  11.215  17.648  0.00  0.00    +0.000 HD
ENDBRANCH  22  24
ENDBRANCH  21  22
ENDBRANCH   1  21
TORSDOF 4
ENDMDL
MODEL 6
REMARK VINA RESULT:      -8.4      3.778      7.532
REMARK  Name = 
REMARK  4 active torsions:
REMARK  status: ('A' for Active; 'I' for Inactive)
REMARK    1  A    between atoms: C_2  and  C_3
REMARK    2  A    between atoms: C_3  and  O_4
REMARK    3  A    between atoms: O_4  and  C_5
REMARK    4  A    between atoms: C_12  and  C_13
REMARK                            x       y       z     vdW  Elec       q    Type
REMARK                         _______ _______ _______ _____ _____    ______ ____
ROOT
ATOM      1  C   UNL     1       2.215   5.431  19.781  0.00  0.00    +0.000 A 
ATOM      2  C   UNL     1       1.178   4.913  20.571  0.00  0.00    +0.000 A 
ATOM      3  C   UNL     1       0.824   3.571  20.481  0.00  0.00    +0.000 A 
ATOM      4  C   UNL     1       1.507   2.736  19.608  0.00  0.00    +0.000 A 
ATOM      5  C   UNL     1       2.557   3.237  18.825  0.00  0.00    +0.000 A 
ATOM      6  C   UNL     1       3.253   2.394  17.949  0.00  0.00    +0.000 A 
ATOM      7  C   UNL     1       4.291   2.902  17.180  0.00  0.00    +0.000 A 
ATOM      8  C   UNL     1       4.606   4.248  17.299  0.00  0.00    +0.000 A 
ATOM      9  N   UNL     1       3.940   5.077  18.133  0.00  0.00    +0.000 NA
ATOM     10  C   UNL     1       2.929   4.597  18.897  0.00  0.00    +0.000 A 
ENDROOT
BRANCH   8  11
ATOM     11  C   UNL     1       5.667   4.841  16.484  0.00  0.00    +0.000 A 
ATOM     12  N   UNL     1       6.550   5.727  16.929  0.00  0.00    +0.000 NA
ATOM     13  N   UNL     1       7.447   6.011  15.934  0.00  0.00    +0.000 NA
ATOM     14  C   UNL     1       7.105   5.307  14.883  0.00  0.00    +0.000 A 
ATOM     15  C   UNL     1       7.694   5.188  13.596  0.00  0.00    +0.000 A 
ATOM     16  C   UNL     1       7.110   4.405  12.671  0.00  0.00    +0.000 A 
ATOM     17  C   UNL     1       5.870   3.698  12.952  0.00  0.00    +0.000 A 
ATOM     18 BR   UNL     1       5.116   2.741  11.555  0.00  0.00    +0.000 Br
ATOM     19  C   UNL     1       5.329   3.774  14.182  0.00  0.00    +0.000 A 
ATOM     20  N   UNL     1       5.953   4.571  15.152  0.00  0.00    +0.000 N 
ENDBRANCH   8  11
BRANCH   1  21
ATOM     21  O   UNL     1       2.593   6.761  19.804  0.00  0.00    +0.000 OA
BRANCH  21  22
ATOM     22  C   UNL     1       1.612   7.724  19.401  0.00  0.00    +0.000 C 
BRANCH  22  24
ATOM     23  F   UNL     1       2.303   8.667  21.439  0.00  0.00    +0.000 F 
ATOM     24  C   UNL     1       1.257   8.673  20.554  0.00  0.00    +0.000 C 
ATOM     25  C   UNL     1       0.024   8.159  21.304  0.00  0.00    +0.000 C 
ATOM     26  C   UNL     1      -0.384   9.128  22.408  0.00  0.00    +0.000 C 
ATOM     27  N   UNL     1      -0.641  10.459  21.857  0.00  0.00    +0.000 NA
ATOM     28  C   UNL     1       0.572  10.990  21.232  0.00  0.00    +0.000 C 
ATOM     29  C   UNL     1       1.040  10.108  20.079  0.00  0.00    +0.000 C 
ATOM     30  H   UNL     1      -0.907  11.083  22.622  0.00  0.00    +0.000 HD
ENDBRANCH  22  24
ENDBRANCH  21  22
ENDBRANCH   1  21
TORSDOF 4
ENDMDL
MODEL 7
REMARK VINA RESULT:      -8.3      4.317      8.487
REMARK  Name = 
REMARK  4 active torsions:
REMARK  status: ('A' for Active; 'I' for Inactive)
REMARK    1  A    between atoms: C_2  and  C_3
REMARK    2  A    between atoms: C_3  and  O_4
REMARK    3  A    between atoms: O_4  and  C_5
REMARK    4  A    between atoms: C_12  and  C_13
REMARK                            x       y       z     vdW  Elec       q    Type
REMARK                         _______ _______ _______ _____ _____    ______ ____
ROOT
ATOM      1  C   UNL     1      -1.580  11.606  20.607  0.00  0.00    +0.000 A 
ATOM      2  C   UNL     1      -2.321  12.332  21.552  0.00  0.00    +0.000 A 
ATOM      3  C   UNL     1      -2.152  12.100  22.913  0.00  0.00    +0.000 A 
ATOM      4  C   UNL     1      -1.236  11.148  23.340  0.00  0.00    +0.000 A 
ATOM      5  C   UNL     1      -0.476  10.428  22.408  0.00  0.00    +0.000 A 
ATOM      6  C   UNL     1       0.454   9.473  22.837  0.00  0.00    +0.000 A 
ATOM      7  C   UNL     1       1.201   8.767  21.904  0.00  0.00    +0.000 A 
ATOM      8  C   UNL     1       0.995   9.028  20.557  0.00  0.00    +0.000 A 
ATOM      9  N   UNL     1       0.096   9.939  20.125  0.00  0.00    +0.000 NA
ATOM     10  C   UNL     1      -0.636  10.644  21.021  0.00  0.00    +0.000 A 
ENDROOT
BRANCH   8  11
ATOM     11  C   UNL     1       1.729   8.285  19.532  0.00  0.00    +0.000 A 
ATOM     12  N   UNL     1       2.167   8.809  18.394  0.00  0.00    +0.000 NA
ATOM     13  N   UNL     1       2.882   7.864  17.705  0.00  0.00    +0.000 NA
ATOM     14  C   UNL     1       2.869   6.765  18.419  0.00  0.00    +0.000 A 
ATOM     15  C   UNL     1       3.470   5.496  18.205  0.00  0.00    +0.000 A 
ATOM     16  C   UNL     1       3.268   4.510  19.097  0.00  0.00    +0.000 A 
ATOM     17  C   UNL     1       2.422   4.706  20.264  0.00  0.00    +0.000 A 
ATOM     18 BR   UNL     1       2.142   3.233  21.354  0.00  0.00    +0.000 Br
ATOM     19  C   UNL     1       1.883   5.918  20.494  0.00  0.00    +0.000 A 
ATOM     20  N   UNL     1       2.116   6.952  19.577  0.00  0.00    +0.000 N 
ENDBRANCH   8  11
BRANCH   1  21
ATOM     21  O   UNL     1      -1.725  11.769  19.241  0.00  0.00    +0.000 OA
BRANCH  21  22
ATOM     22  C   UNL     1      -3.062  11.856  18.735  0.00  0.00    +0.000 C 
BRANCH  22  24
ATOM     23  F   UNL     1      -4.041   9.840  18.027  0.00  0.00    +0.000 F 
ATOM     24  C   UNL     1      -3.279  10.882  17.568  0.00  0.00    +0.000 C 
ATOM     25  C   UNL     1      -1.939  10.297  17.109  0.00  0.00    +0.000 C 
ATOM     26  C   UNL     1      -2.129   9.382  15.904  0.00  0.00    +0.000 C 
ATOM     27  N   UNL     1      -2.774  10.103  14.806  0.00  0.00    +0.000 NA
ATOM     28  C   UNL     1      -4.099  10.570  15.217  0.00  0.00    +0.000 C 
ATOM     29  C   UNL     1      -4.013  11.533  16.397  0.00  0.00    +0.000 C 
ATOM     30  H   UNL     1      -2.890   9.462  14.019  0.00  0.00    +0.000 HD
ENDBRANCH  22  24
ENDBRANCH  21  22
ENDBRANCH   1  21
TORSDOF 4
ENDMDL
MODEL 8
REMARK VINA RESULT:      -8.3      1.746      2.255
REMARK  Name = 
REMARK  4 active torsions:
REMARK  status: ('A' for Active; 'I' for Inactive)
REMARK    1  A    between atoms: C_2  and  C_3
REMARK    2  A    between atoms: C_3  and  O_4
REMARK    3  A    between atoms: O_4  and  C_5
REMARK    4  A    between atoms: C_12  and  C_13
REMARK                            x       y       z     vdW  Elec       q    Type
REMARK                         _______ _______ _______ _____ _____    ______ ____
ROOT
ATOM      1  C   UNL     1       3.655   3.515  17.657  0.00  0.00    +0.000 A 
ATOM      2  C   UNL     1       3.856   2.162  17.964  0.00  0.00    +0.000 A 
ATOM      3  C   UNL     1       3.482   1.655  19.205  0.00  0.00    +0.000 A 
ATOM      4  C   UNL     1       2.896   2.495  20.142  0.00  0.00    +0.000 A 
ATOM      5  C   UNL     1       2.673   3.846  19.841  0.00  0.00    +0.000 A 
ATOM      6  C   UNL     1       2.075   4.693  20.783  0.00  0.00    +0.000 A 
ATOM      7  C   UNL     1       1.858   6.028  20.472  0.00  0.00    +0.000 A 
ATOM      8  C   UNL     1       2.253   6.491  19.225  0.00  0.00    +0.000 A 
ATOM      9  N   UNL     1       2.839   5.690  18.308  0.00  0.00    +0.000 NA
ATOM     10  C   UNL     1       3.051   4.382  18.590  0.00  0.00    +0.000 A 
ENDROOT
BRANCH   8  11
ATOM     11  C   UNL     1       2.081   7.898  18.862  0.00  0.00    +0.000 A 
ATOM     12  N   UNL     1       2.534   8.445  17.740  0.00  0.00    +0.000 NA
ATOM     13  N   UNL     1       2.131   9.753  17.679  0.00  0.00    +0.000 NA
ATOM     14  C   UNL     1       1.443  10.003  18.767  0.00  0.00    +0.000 A 
ATOM     15  C   UNL     1       0.771  11.174  19.207  0.00  0.00    +0.000 A 
ATOM     16  C   UNL     1       0.156  11.173  20.404  0.00  0.00    +0.000 A 
ATOM     17  C   UNL     1       0.191  10.006  21.271  0.00  0.00    +0.000 A 
ATOM     18 BR   UNL     1      -0.603  10.176  22.938  0.00  0.00    +0.000 Br
ATOM     19  C   UNL     1       0.791   8.880  20.842  0.00  0.00    +0.000 A 
ATOM     20  N   UNL     1       1.408   8.875  19.584  0.00  0.00    +0.000 N 
ENDBRANCH   8  11
BRANCH   1  21
ATOM     21  O   UNL     1       4.033   4.084  16.454  0.00  0.00    +0.000 OA
BRANCH  21  22
ATOM     22  C   UNL     1       5.421   4.398  16.290  0.00  0.00    +0.000 C 
BRANCH  22  24
ATOM     23  F   UNL     1       5.132   5.853  14.467  0.00  0.00    +0.000 F 
ATOM     24  C   UNL     1       5.757   4.686  14.821  0.00  0.00    +0.000 C 
ATOM     25  C   UNL     1       5.197   3.579  13.922  0.00  0.00    +0.000 C 
ATOM     26  C   UNL     1       5.583   3.813  12.466  0.00  0.00    +0.000 C 
ATOM     27  N   UNL     1       7.038   3.895  12.325  0.00  0.00    +0.000 NA
ATOM     28  C   UNL     1       7.558   5.020  13.104  0.00  0.00    +0.000 C 
ATOM     29  C   UNL     1       7.258   4.858  14.591  0.00  0.00    +0.000 C 
ATOM     30  H   UNL     1       7.262   4.056  11.341  0.00  0.00    +0.000 HD
ENDBRANCH  22  24
ENDBRANCH  21  22
ENDBRANCH   1  21
TORSDOF 4
ENDMDL
MODEL 9
REMARK VINA RESULT:      -8.3      3.842      7.460
REMARK  Name = 
REMARK  4 active torsions:
REMARK  status: ('A' for Active; 'I' for Inactive)
REMARK    1  A    between atoms: C_2  and  C_3
REMARK    2  A    between atoms: C_3  and  O_4
REMARK    3  A    between atoms: O_4  and  C_5
REMARK    4  A    between atoms: C_12  and  C_13
REMARK                            x       y       z     vdW  Elec       q    Type
REMARK                         _______ _______ _______ _____ _____    ______ ____
ROOT
ATOM      1  C   UNL     1       2.048   5.243  19.743  0.00  0.00    +0.000 A 
ATOM      2  C   UNL     1       1.014   4.683  20.507  0.00  0.00    +0.000 A 
ATOM      3  C   UNL     1       0.713   3.329  20.404  0.00  0.00    +0.000 A 
ATOM      4  C   UNL     1       1.448   2.524  19.545  0.00  0.00    +0.000 A 
ATOM      5  C   UNL     1       2.496   3.067  18.788  0.00  0.00    +0.000 A 
ATOM      6  C   UNL     1       3.244   2.255  17.927  0.00  0.00    +0.000 A 
ATOM      7  C   UNL     1       4.280   2.805  17.184  0.00  0.00    +0.000 A 
ATOM      8  C   UNL     1       4.541   4.161  17.314  0.00  0.00    +0.000 A 
ATOM      9  N   UNL     1       3.824   4.961  18.134  0.00  0.00    +0.000 NA
ATOM     10  C   UNL     1       2.814   4.440  18.873  0.00  0.00    +0.000 A 
ENDROOT
BRANCH   8  11
ATOM     11  C   UNL     1       5.597   4.798  16.526  0.00  0.00    +0.000 A 
ATOM     12  N   UNL     1       6.438   5.711  16.996  0.00  0.00    +0.000 NA
ATOM     13  N   UNL     1       7.346   6.034  16.022  0.00  0.00    +0.000 NA
ATOM     14  C   UNL     1       7.052   5.325  14.959  0.00  0.00    +0.000 A 
ATOM     15  C   UNL     1       7.672   5.236  13.685  0.00  0.00    +0.000 A 
ATOM     16  C   UNL     1       7.137   4.439  12.743  0.00  0.00    +0.000 A 
ATOM     17  C   UNL     1       5.916   3.687  12.992  0.00  0.00    +0.000 A 
ATOM     18 BR   UNL     1       5.227   2.713  11.573  0.00  0.00    +0.000 Br
ATOM     19  C   UNL     1       5.347   3.735  14.210  0.00  0.00    +0.000 A 
ATOM     20  N   UNL     1       5.921   4.547  15.199  0.00  0.00    +0.000 N 
ENDBRANCH   8  11
BRANCH   1  21
ATOM     21  O   UNL     1       2.376   6.587  19.778  0.00  0.00    +0.000 OA
BRANCH  21  22
ATOM     22  C   UNL     1       2.057   7.302  20.978  0.00  0.00    +0.000 C 
BRANCH  22  24
ATOM     23  F   UNL     1      -0.163   8.041  20.754  0.00  0.00    +0.000 F 
ATOM     24  C   UNL     1       1.130   8.491  20.687  0.00  0.00    +0.000 C 
ATOM     25  C   UNL     1       1.359   9.007  19.263  0.00  0.00    +0.000 C 
ATOM     26  C   UNL     1       0.496  10.232  18.983  0.00  0.00    +0.000 C 
ATOM     27  N   UNL     1       0.770  11.289  19.958  0.00  0.00    +0.000 NA
ATOM     28  C   UNL     1       0.450  10.825  21.309  0.00  0.00    +0.000 C 
ATOM     29  C   UNL     1       1.297   9.619  21.703  0.00  0.00    +0.000 C 
ATOM     30  H   UNL     1       0.174  12.091  19.745  0.00  0.00    +0.000 HD
ENDBRANCH  22  24
ENDBRANCH  21  22
ENDBRANCH   1  21
TORSDOF 4
ENDMDL
