MODEL 1
REMARK VINA RESULT:      -7.6      0.000      0.000
REMARK  Name = 
REMARK  1 active torsions:
REMARK  status: ('A' for Active; 'I' for Inactive)
REMARK    1  A    between atoms: C_22  and  C_23
REMARK                            x       y       z     vdW  Elec       q    Type
REMARK                         _______ _______ _______ _____ _____    ______ ____
ROOT
ATOM      1  O   UNL     1       1.636   9.315  17.505  0.00  0.00    +0.000 OA
ATOM      2  C   UNL     1       0.920   9.960  18.262  0.00  0.00    +0.000 C 
ATOM      3  N   UNL     1       1.465  10.699  19.272  0.00  0.00    +0.000 N 
ATOM      4  C   UNL     1       0.663  11.110  20.392  0.00  0.00    +0.000 C 
ATOM      5  C   UNL     1      -0.735  11.718  20.029  0.00  0.00    +0.000 C 
ATOM      6  C   UNL     1      -0.635  13.116  19.381  0.00  0.00    +0.000 C 
ATOM      7  C   UNL     1      -0.245  14.294  20.260  0.00  0.00    +0.000 C 
ATOM      8  C   UNL     1      -0.588  14.225  21.741  0.00  0.00    +0.000 C 
ATOM      9  C   UNL     1      -0.804  12.838  22.335  0.00  0.00    +0.000 C 
ATOM     10  C   UNL     1      -1.492  11.837  21.382  0.00  0.00    +0.000 C 
ATOM     11  N   UNL     1      -1.337  10.829  18.983  0.00  0.00    +0.000 N 
ATOM     12  C   UNL     1      -0.509  10.082  18.139  0.00  0.00    +0.000 A 
ATOM     13  C   UNL     1      -1.265   9.629  17.073  0.00  0.00    +0.000 A 
ATOM     14  C   UNL     1      -2.506  10.279  17.141  0.00  0.00    +0.000 A 
ATOM     15  C   UNL     1      -3.563  10.447  16.256  0.00  0.00    +0.000 A 
ATOM     16  N   UNL     1      -4.587  11.250  16.588  0.00  0.00    +0.000 NA
ATOM     17  C   UNL     1      -4.597  11.826  17.807  0.00  0.00    +0.000 A 
ATOM     18  N   UNL     1      -5.704  12.637  18.018  0.00  0.00    +0.000 N 
ATOM     19  C   UNL     1      -6.024  13.393  19.133  0.00  0.00    +0.000 A 
ATOM     20  C   UNL     1      -5.763  12.921  20.417  0.00  0.00    +0.000 A 
ATOM     21  C   UNL     1      -6.051  13.725  21.509  0.00  0.00    +0.000 A 
ATOM     22  C   UNL     1      -6.594  14.981  21.312  0.00  0.00    +0.000 A 
ATOM     23  C   UNL     1      -6.824  15.379  20.005  0.00  0.00    +0.000 A 
ATOM     24  N   UNL     1      -6.591  14.597  18.920  0.00  0.00    +0.000 NA
ATOM     25  N   UNL     1      -3.611  11.720  18.739  0.00  0.00    +0.000 NA
ATOM     26  C   UNL     1      -2.568  10.967  18.347  0.00  0.00    +0.000 A 
ATOM     27  H   UNL     1       2.459  10.541  19.390  0.00  0.00    +0.000 HD
ATOM     28  H   UNL     1      -6.017  13.040  17.149  0.00  0.00    +0.000 HD
ENDROOT
BRANCH  22  29
ATOM     29  C   UNL     1      -6.723  15.885  22.469  0.00  0.00    +0.000 C 
ATOM     30  O   UNL     1      -7.817  15.894  23.036  0.00  0.00    +0.000 OA
ATOM     31  N   UNL     1      -5.655  16.646  22.907  0.00  0.00    +0.000 N 
ATOM     32  C   UNL     1      -5.765  17.324  24.197  0.00  0.00    +0.000 C 
ATOM     33  C   UNL     1      -4.534  17.002  25.062  0.00  0.00    +0.000 C 
ATOM     34  N   UNL     1      -3.262  17.332  24.390  0.00  0.00    +0.000 NA
ATOM     35  C   UNL     1      -3.189  16.695  23.061  0.00  0.00    +0.000 C 
ATOM     36  C   UNL     1      -4.424  16.985  22.182  0.00  0.00    +0.000 C 
ATOM     37  H   UNL     1      -2.489  16.998  24.966  0.00  0.00    +0.000 HD
ENDBRANCH  22  29
TORSDOF 1
ENDMDL
MODEL 2
REMARK VINA RESULT:      -7.3      3.552      7.528
REMARK  Name = 
REMARK  1 active torsions:
REMARK  status: ('A' for Active; 'I' for Inactive)
REMARK    1  A    between atoms: C_22  and  C_23
REMARK                            x       y       z     vdW  Elec       q    Type
REMARK                         _______ _______ _______ _____ _____    ______ ____
ROOT
ATOM      1  O   UNL     1      -7.904  11.690  21.480  0.00  0.00    +0.000 OA
ATOM      2  C   UNL     1      -6.816  12.252  21.519  0.00  0.00    +0.000 C 
ATOM      3  N   UNL     1      -6.396  12.872  22.660  0.00  0.00    +0.000 N 
ATOM      4  C   UNL     1      -5.354  13.863  22.612  0.00  0.00    +0.000 C 
ATOM      5  C   UNL     1      -4.095  13.472  21.765  0.00  0.00    +0.000 C 
ATOM      6  C   UNL     1      -3.240  12.371  22.428  0.00  0.00    +0.000 C 
ATOM      7  C   UNL     1      -2.419  12.734  23.656  0.00  0.00    +0.000 C 
ATOM      8  C   UNL     1      -1.953  14.176  23.803  0.00  0.00    +0.000 C 
ATOM      9  C   UNL     1      -2.738  15.235  23.040  0.00  0.00    +0.000 C 
ATOM     10  C   UNL     1      -3.254  14.776  21.659  0.00  0.00    +0.000 C 
ATOM     11  N   UNL     1      -4.601  12.876  20.485  0.00  0.00    +0.000 N 
ATOM     12  C   UNL     1      -5.854  12.257  20.449  0.00  0.00    +0.000 A 
ATOM     13  C   UNL     1      -5.938  11.509  19.289  0.00  0.00    +0.000 A 
ATOM     14  C   UNL     1      -4.658  11.486  18.717  0.00  0.00    +0.000 A 
ATOM     15  C   UNL     1      -4.050  10.724  17.728  0.00  0.00    +0.000 A 
ATOM     16  N   UNL     1      -2.737  10.870  17.490  0.00  0.00    +0.000 NA
ATOM     17  C   UNL     1      -2.048  11.805  18.175  0.00  0.00    +0.000 A 
ATOM     18  N   UNL     1      -0.701  11.845  17.840  0.00  0.00    +0.000 N 
ATOM     19  C   UNL     1       0.296  12.656  18.356  0.00  0.00    +0.000 A 
ATOM     20  C   UNL     1       0.041  13.986  18.682  0.00  0.00    +0.000 A 
ATOM     21  C   UNL     1       1.049  14.754  19.243  0.00  0.00    +0.000 A 
ATOM     22  C   UNL     1       2.294  14.195  19.468  0.00  0.00    +0.000 A 
ATOM     23  C   UNL     1       2.470  12.866  19.117  0.00  0.00    +0.000 A 
ATOM     24  N   UNL     1       1.513  12.102  18.529  0.00  0.00    +0.000 NA
ATOM     25  N   UNL     1      -2.554  12.598  19.159  0.00  0.00    +0.000 NA
ATOM     26  C   UNL     1      -3.855  12.377  19.421  0.00  0.00    +0.000 A 
ATOM     27  H   UNL     1      -7.113  12.925  23.373  0.00  0.00    +0.000 HD
ATOM     28  H   UNL     1      -0.379  10.932  17.561  0.00  0.00    +0.000 HD
ENDROOT
BRANCH  22  29
ATOM     29  C   UNL     1       3.291  14.971  20.227  0.00  0.00    +0.000 C 
ATOM     30  O   UNL     1       3.029  15.185  21.412  0.00  0.00    +0.000 OA
ATOM     31  N   UNL     1       4.468  15.395  19.640  0.00  0.00    +0.000 N 
ATOM     32  C   UNL     1       5.521  15.934  20.499  0.00  0.00    +0.000 C 
ATOM     33  C   UNL     1       6.853  15.229  20.196  0.00  0.00    +0.000 C 
ATOM     34  N   UNL     1       7.231  15.308  18.771  0.00  0.00    +0.000 NA
ATOM     35  C   UNL     1       6.137  14.822  17.909  0.00  0.00    +0.000 C 
ATOM     36  C   UNL     1       4.783  15.500  18.209  0.00  0.00    +0.000 C 
ATOM     37  H   UNL     1       8.061  14.735  18.618  0.00  0.00    +0.000 HD
ENDBRANCH  22  29
TORSDOF 1
ENDMDL
MODEL 3
REMARK VINA RESULT:      -7.3      4.266      9.637
REMARK  Name = 
REMARK  1 active torsions:
REMARK  status: ('A' for Active; 'I' for Inactive)
REMARK    1  A    between atoms: C_22  and  C_23
REMARK                            x       y       z     vdW  Elec       q    Type
REMARK                         _______ _______ _______ _____ _____    ______ ____
ROOT
ATOM      1  O   UNL     1      -0.653  17.958  22.635  0.00  0.00    +0.000 OA
ATOM      2  C   UNL     1      -0.224  17.061  21.917  0.00  0.00    +0.000 C 
ATOM      3  N   UNL     1       0.832  17.285  21.082  0.00  0.00    +0.000 N 
ATOM      4  C   UNL     1       1.078  16.414  19.965  0.00  0.00    +0.000 C 
ATOM      5  C   UNL     1       1.011  14.881  20.283  0.00  0.00    +0.000 C 
ATOM      6  C   UNL     1       2.200  14.389  21.136  0.00  0.00    +0.000 C 
ATOM      7  C   UNL     1       3.568  14.290  20.480  0.00  0.00    +0.000 C 
ATOM      8  C   UNL     1       3.625  14.042  18.979  0.00  0.00    +0.000 C 
ATOM      9  C   UNL     1       2.391  14.422  18.171  0.00  0.00    +0.000 C 
ATOM     10  C   UNL     1       1.051  14.175  18.898  0.00  0.00    +0.000 C 
ATOM     11  N   UNL     1      -0.210  14.666  21.127  0.00  0.00    +0.000 N 
ATOM     12  C   UNL     1      -0.700  15.704  21.924  0.00  0.00    +0.000 A 
ATOM     13  C   UNL     1      -1.591  15.169  22.837  0.00  0.00    +0.000 A 
ATOM     14  C   UNL     1      -1.485  13.773  22.752  0.00  0.00    +0.000 A 
ATOM     15  C   UNL     1      -1.903  12.718  23.550  0.00  0.00    +0.000 A 
ATOM     16  N   UNL     1      -1.527  11.465  23.246  0.00  0.00    +0.000 NA
ATOM     17  C   UNL     1      -0.802  11.253  22.130  0.00  0.00    +0.000 A 
ATOM     18  N   UNL     1      -0.472   9.917  21.939  0.00  0.00    +0.000 N 
ATOM     19  C   UNL     1       0.275   9.347  20.922  0.00  0.00    +0.000 A 
ATOM     20  C   UNL     1       0.174   9.809  19.612  0.00  0.00    +0.000 A 
ATOM     21  C   UNL     1       0.974   9.248  18.628  0.00  0.00    +0.000 A 
ATOM     22  C   UNL     1       1.858   8.237  18.957  0.00  0.00    +0.000 A 
ATOM     23  C   UNL     1       1.901   7.832  20.281  0.00  0.00    +0.000 A 
ATOM     24  N   UNL     1       1.101   8.335  21.257  0.00  0.00    +0.000 NA
ATOM     25  N   UNL     1      -0.346  12.220  21.287  0.00  0.00    +0.000 NA
ATOM     26  C   UNL     1      -0.681  13.468  21.659  0.00  0.00    +0.000 A 
ATOM     27  H   UNL     1       1.103  18.261  21.035  0.00  0.00    +0.000 HD
ATOM     28  H   UNL     1      -0.381   9.446  22.825  0.00  0.00    +0.000 HD
ENDROOT
BRANCH  22  29
ATOM     29  C   UNL     1       2.821   7.782  17.939  0.00  0.00    +0.000 C 
ATOM     30  O   UNL     1       3.177   8.622  17.111  0.00  0.00    +0.000 OA
ATOM     31  N   UNL     1       3.322   6.494  17.950  0.00  0.00    +0.000 N 
ATOM     32  C   UNL     1       4.453   6.178  17.080  0.00  0.00    +0.000 C 
ATOM     33  C   UNL     1       5.562   5.492  17.895  0.00  0.00    +0.000 C 
ATOM     34  N   UNL     1       5.085   4.292  18.611  0.00  0.00    +0.000 NA
ATOM     35  C   UNL     1       3.903   4.607  19.436  0.00  0.00    +0.000 C 
ATOM     36  C   UNL     1       2.784   5.317  18.644  0.00  0.00    +0.000 C 
ATOM     37  H   UNL     1       5.834   3.947  19.212  0.00  0.00    +0.000 HD
ENDBRANCH  22  29
TORSDOF 1
ENDMDL
MODEL 4
REMARK VINA RESULT:      -7.0      3.669      7.060
REMARK  Name = 
REMARK  1 active torsions:
REMARK  status: ('A' for Active; 'I' for Inactive)
REMARK    1  A    between atoms: C_22  and  C_23
REMARK                            x       y       z     vdW  Elec       q    Type
REMARK                         _______ _______ _______ _____ _____    ______ ____
ROOT
ATOM      1  O   UNL     1      -7.874  10.814  20.110  0.00  0.00    +0.000 OA
ATOM      2  C   UNL     1      -6.913  11.539  20.341  0.00  0.00    +0.000 C 
ATOM      3  N   UNL     1      -6.871  12.296  21.475  0.00  0.00    +0.000 N 
ATOM      4  C   UNL     1      -5.990  13.430  21.565  0.00  0.00    +0.000 C 
ATOM      5  C   UNL     1      -4.522  13.177  21.079  0.00  0.00    +0.000 C 
ATOM      6  C   UNL     1      -3.717  12.272  22.036  0.00  0.00    +0.000 C 
ATOM      7  C   UNL     1      -3.277  12.845  23.374  0.00  0.00    +0.000 C 
ATOM      8  C   UNL     1      -3.056  14.348  23.471  0.00  0.00    +0.000 C 
ATOM      9  C   UNL     1      -3.763  15.216  22.438  0.00  0.00    +0.000 C 
ATOM     10  C   UNL     1      -3.861  14.585  21.032  0.00  0.00    +0.000 C 
ATOM     11  N   UNL     1      -4.615  12.421  19.788  0.00  0.00    +0.000 N 
ATOM     12  C   UNL     1      -5.728  11.615  19.529  0.00  0.00    +0.000 A 
ATOM     13  C   UNL     1      -5.426  10.782  18.467  0.00  0.00    +0.000 A 
ATOM     14  C   UNL     1      -4.053  10.916  18.213  0.00  0.00    +0.000 A 
ATOM     15  C   UNL     1      -3.126  10.188  17.479  0.00  0.00    +0.000 A 
ATOM     16  N   UNL     1      -1.826  10.517  17.537  0.00  0.00    +0.000 NA
ATOM     17  C   UNL     1      -1.455  11.594  18.260  0.00  0.00    +0.000 A 
ATOM     18  N   UNL     1      -0.085  11.816  18.244  0.00  0.00    +0.000 N 
ATOM     19  C   UNL     1       0.639  12.806  18.886  0.00  0.00    +0.000 A 
ATOM     20  C   UNL     1       0.138  14.101  19.001  0.00  0.00    +0.000 A 
ATOM     21  C   UNL     1       0.867  15.054  19.695  0.00  0.00    +0.000 A 
ATOM     22  C   UNL     1       2.081  14.711  20.260  0.00  0.00    +0.000 A 
ATOM     23  C   UNL     1       2.513  13.404  20.104  0.00  0.00    +0.000 A 
ATOM     24  N   UNL     1       1.839  12.461  19.395  0.00  0.00    +0.000 NA
ATOM     25  N   UNL     1      -2.288  12.367  19.009  0.00  0.00    +0.000 NA
ATOM     26  C   UNL     1      -3.572  11.967  18.985  0.00  0.00    +0.000 A 
ATOM     27  H   UNL     1      -7.742  12.288  21.993  0.00  0.00    +0.000 HD
ATOM     28  H   UNL     1       0.413  10.946  18.145  0.00  0.00    +0.000 HD
ENDROOT
BRANCH  22  29
ATOM     29  C   UNL     1       2.750  15.684  21.142  0.00  0.00    +0.000 C 
ATOM     30  O   UNL     1       2.524  15.572  22.349  0.00  0.00    +0.000 OA
ATOM     31  N   UNL     1       3.613  16.637  20.635  0.00  0.00    +0.000 N 
ATOM     32  C   UNL     1       4.434  17.403  21.571  0.00  0.00    +0.000 C 
ATOM     33  C   UNL     1       5.907  17.354  21.132  0.00  0.00    +0.000 C 
ATOM     34  N   UNL     1       6.105  17.817  19.744  0.00  0.00    +0.000 NA
ATOM     35  C   UNL     1       5.224  17.083  18.815  0.00  0.00    +0.000 C 
ATOM     36  C   UNL     1       3.742  17.098  19.247  0.00  0.00    +0.000 C 
ATOM     37  H   UNL     1       7.077  17.661  19.479  0.00  0.00    +0.000 HD
ENDBRANCH  22  29
TORSDOF 1
ENDMDL
MODEL 5
REMARK VINA RESULT:      -6.9      2.420      4.964
REMARK  Name = 
REMARK  1 active torsions:
REMARK  status: ('A' for Active; 'I' for Inactive)
REMARK    1  A    between atoms: C_22  and  C_23
REMARK                            x       y       z     vdW  Elec       q    Type
REMARK                         _______ _______ _______ _____ _____    ______ ____
ROOT
ATOM      1  O   UNL     1       2.628   7.532  19.017  0.00  0.00    +0.000 OA
ATOM      2  C   UNL     1       1.790   8.422  18.928  0.00  0.00    +0.000 C 
ATOM      3  N   UNL     1       1.208   8.710  17.728  0.00  0.00    +0.000 N 
ATOM      4  C   UNL     1       0.561   9.977  17.514  0.00  0.00    +0.000 C 
ATOM      5  C   UNL     1      -0.403  10.439  18.659  0.00  0.00    +0.000 C 
ATOM      6  C   UNL     1      -1.701   9.605  18.728  0.00  0.00    +0.000 C 
ATOM      7  C   UNL     1      -2.745   9.802  17.640  0.00  0.00    +0.000 C 
ATOM      8  C   UNL     1      -2.811  11.156  16.949  0.00  0.00    +0.000 C 
ATOM      9  C   UNL     1      -1.555  12.017  16.998  0.00  0.00    +0.000 C 
ATOM     10  C   UNL     1      -0.762  11.913  18.319  0.00  0.00    +0.000 C 
ATOM     11  N   UNL     1       0.309  10.188  19.954  0.00  0.00    +0.000 N 
ATOM     12  C   UNL     1       1.278   9.183  20.036  0.00  0.00    +0.000 A 
ATOM     13  C   UNL     1       1.528   8.926  21.372  0.00  0.00    +0.000 A 
ATOM     14  C   UNL     1       0.556   9.612  22.115  0.00  0.00    +0.000 A 
ATOM     15  C   UNL     1       0.122   9.554  23.433  0.00  0.00    +0.000 A 
ATOM     16  N   UNL     1      -0.943  10.278  23.814  0.00  0.00    +0.000 NA
ATOM     17  C   UNL     1      -1.529  11.099  22.920  0.00  0.00    +0.000 A 
ATOM     18  N   UNL     1      -2.622  11.781  23.440  0.00  0.00    +0.000 N 
ATOM     19  C   UNL     1      -3.464  12.678  22.805  0.00  0.00    +0.000 A 
ATOM     20  C   UNL     1      -2.971  13.591  21.876  0.00  0.00    +0.000 A 
ATOM     21  C   UNL     1      -3.850  14.441  21.223  0.00  0.00    +0.000 A 
ATOM     22  C   UNL     1      -5.202  14.375  21.504  0.00  0.00    +0.000 A 
ATOM     23  C   UNL     1      -5.617  13.441  22.439  0.00  0.00    +0.000 A 
ATOM     24  N   UNL     1      -4.773  12.625  23.123  0.00  0.00    +0.000 NA
ATOM     25  N   UNL     1      -1.176  11.225  21.611  0.00  0.00    +0.000 NA
ATOM     26  C   UNL     1      -0.152  10.434  21.245  0.00  0.00    +0.000 A 
ATOM     27  H   UNL     1       1.634   8.220  16.950  0.00  0.00    +0.000 HD
ATOM     28  H   UNL     1      -3.074  11.231  24.152  0.00  0.00    +0.000 HD
ENDROOT
BRANCH  22  29
ATOM     29  C   UNL     1      -6.135  15.157  20.672  0.00  0.00    +0.000 C 
ATOM     30  O   UNL     1      -6.356  16.312  21.039  0.00  0.00    +0.000 OA
ATOM     31  N   UNL     1      -6.692  14.625  19.525  0.00  0.00    +0.000 N 
ATOM     32  C   UNL     1      -7.401  15.521  18.613  0.00  0.00    +0.000 C 
ATOM     33  C   UNL     1      -6.872  15.334  17.182  0.00  0.00    +0.000 C 
ATOM     34  N   UNL     1      -6.947  13.933  16.722  0.00  0.00    +0.000 NA
ATOM     35  C   UNL     1      -6.285  13.029  17.682  0.00  0.00    +0.000 C 
ATOM     36  C   UNL     1      -6.784  13.213  19.130  0.00  0.00    +0.000 C 
ATOM     37  H   UNL     1      -6.486  13.858  15.815  0.00  0.00    +0.000 HD
ENDBRANCH  22  29
TORSDOF 1
ENDMDL
MODEL 6
REMARK VINA RESULT:      -6.7      1.856      2.899
REMARK  Name = 
REMARK  1 active torsions:
REMARK  status: ('A' for Active; 'I' for Inactive)
REMARK    1  A    between atoms: C_22  and  C_23
REMARK                            x       y       z     vdW  Elec       q    Type
REMARK                         _______ _______ _______ _____ _____    ______ ____
ROOT
ATOM      1  O   UNL     1      -1.932   9.445  16.065  0.00  0.00    +0.000 OA
ATOM      2  C   UNL     1      -1.941  10.093  17.105  0.00  0.00    +0.000 C 
ATOM      3  N   UNL     1      -0.776  10.384  17.752  0.00  0.00    +0.000 N 
ATOM      4  C   UNL     1      -0.784  10.762  19.140  0.00  0.00    +0.000 C 
ATOM      5  C   UNL     1      -1.856  11.835  19.535  0.00  0.00    +0.000 C 
ATOM      6  C   UNL     1      -1.532  13.242  18.987  0.00  0.00    +0.000 C 
ATOM      7  C   UNL     1      -0.385  14.016  19.617  0.00  0.00    +0.000 C 
ATOM      8  C   UNL     1      -0.041  13.729  21.072  0.00  0.00    +0.000 C 
ATOM      9  C   UNL     1      -0.480  12.380  21.630  0.00  0.00    +0.000 C 
ATOM     10  C   UNL     1      -1.836  11.877  21.090  0.00  0.00    +0.000 C 
ATOM     11  N   UNL     1      -3.140  11.430  18.877  0.00  0.00    +0.000 N 
ATOM     12  C   UNL     1      -3.115  10.672  17.702  0.00  0.00    +0.000 A 
ATOM     13  C   UNL     1      -4.370  10.723  17.123  0.00  0.00    +0.000 A 
ATOM     14  C   UNL     1      -5.109  11.690  17.819  0.00  0.00    +0.000 A 
ATOM     15  C   UNL     1      -6.296  12.367  17.573  0.00  0.00    +0.000 A 
ATOM     16  N   UNL     1      -6.684  13.351  18.401  0.00  0.00    +0.000 NA
ATOM     17  C   UNL     1      -5.941  13.616  19.495  0.00  0.00    +0.000 A 
ATOM     18  N   UNL     1      -6.446  14.660  20.258  0.00  0.00    +0.000 N 
ATOM     19  C   UNL     1      -5.934  15.209  21.421  0.00  0.00    +0.000 A 
ATOM     20  C   UNL     1      -5.336  14.407  22.390  0.00  0.00    +0.000 A 
ATOM     21  C   UNL     1      -4.789  14.997  23.519  0.00  0.00    +0.000 A 
ATOM     22  C   UNL     1      -4.846  16.370  23.672  0.00  0.00    +0.000 A 
ATOM     23  C   UNL     1      -5.457  17.100  22.665  0.00  0.00    +0.000 A 
ATOM     24  N   UNL     1      -6.037  16.546  21.569  0.00  0.00    +0.000 NA
ATOM     25  N   UNL     1      -4.767  13.008  19.819  0.00  0.00    +0.000 NA
ATOM     26  C   UNL     1      -4.372  12.077  18.933  0.00  0.00    +0.000 A 
ATOM     27  H   UNL     1       0.028   9.906  17.361  0.00  0.00    +0.000 HD
ATOM     28  H   UNL     1      -6.931  15.322  19.674  0.00  0.00    +0.000 HD
ENDROOT
BRANCH  22  29
ATOM     29  C   UNL     1      -4.104  16.988  24.785  0.00  0.00    +0.000 C 
ATOM     30  O   UNL     1      -4.783  17.473  25.691  0.00  0.00    +0.000 OA
ATOM     31  N   UNL     1      -2.722  16.983  24.816  0.00  0.00    +0.000 N 
ATOM     32  C   UNL     1      -2.051  17.381  26.052  0.00  0.00    +0.000 C 
ATOM     33  C   UNL     1      -1.016  16.314  26.450  0.00  0.00    +0.000 C 
ATOM     34  N   UNL     1      -0.042  16.035  25.377  0.00  0.00    +0.000 NA
ATOM     35  C   UNL     1      -0.730  15.698  24.116  0.00  0.00    +0.000 C 
ATOM     36  C   UNL     1      -1.790  16.743  23.707  0.00  0.00    +0.000 C 
ATOM     37  H   UNL     1       0.545  15.251  25.660  0.00  0.00    +0.000 HD
ENDBRANCH  22  29
TORSDOF 1
ENDMDL
MODEL 7
REMARK VINA RESULT:      -6.6     10.862     12.330
REMARK  Name = 
REMARK  1 active torsions:
REMARK  status: ('A' for Active; 'I' for Inactive)
REMARK    1  A    between atoms: C_22  and  C_23
REMARK                            x       y       z     vdW  Elec       q    Type
REMARK                         _______ _______ _______ _____ _____    ______ ____
ROOT
ATOM      1  O   UNL     1      10.870  15.998  16.335  0.00  0.00    +0.000 OA
ATOM      2  C   UNL     1      10.401  16.044  17.467  0.00  0.00    +0.000 C 
ATOM      3  N   UNL     1       9.701  17.139  17.884  0.00  0.00    +0.000 N 
ATOM      4  C   UNL     1       9.509  17.393  19.287  0.00  0.00    +0.000 C 
ATOM      5  C   UNL     1       9.054  16.157  20.136  0.00  0.00    +0.000 C 
ATOM      6  C   UNL     1       7.598  15.731  19.849  0.00  0.00    +0.000 C 
ATOM      7  C   UNL     1       6.472  16.616  20.359  0.00  0.00    +0.000 C 
ATOM      8  C   UNL     1       6.730  17.457  21.602  0.00  0.00    +0.000 C 
ATOM      9  C   UNL     1       8.185  17.763  21.937  0.00  0.00    +0.000 C 
ATOM     10  C   UNL     1       9.168  16.616  21.617  0.00  0.00    +0.000 C 
ATOM     11  N   UNL     1       9.906  14.999  19.709  0.00  0.00    +0.000 N 
ATOM     12  C   UNL     1      10.453  14.970  18.423  0.00  0.00    +0.000 A 
ATOM     13  C   UNL     1      10.892  13.684  18.164  0.00  0.00    +0.000 A 
ATOM     14  C   UNL     1      10.418  12.868  19.201  0.00  0.00    +0.000 A 
ATOM     15  C   UNL     1      10.301  11.496  19.380  0.00  0.00    +0.000 A 
ATOM     16  N   UNL     1       9.674  11.019  20.468  0.00  0.00    +0.000 NA
ATOM     17  C   UNL     1       9.227  11.886  21.398  0.00  0.00    +0.000 A 
ATOM     18  N   UNL     1       8.590  11.263  22.463  0.00  0.00    +0.000 N 
ATOM     19  C   UNL     1       7.996  11.839  23.574  0.00  0.00    +0.000 A 
ATOM     20  C   UNL     1       8.554  12.959  24.186  0.00  0.00    +0.000 A 
ATOM     21  C   UNL     1       7.905  13.539  25.265  0.00  0.00    +0.000 A 
ATOM     22  C   UNL     1       6.717  13.000  25.721  0.00  0.00    +0.000 A 
ATOM     23  C   UNL     1       6.225  11.887  25.060  0.00  0.00    +0.000 A 
ATOM     24  N   UNL     1       6.859  11.274  24.027  0.00  0.00    +0.000 NA
ATOM     25  N   UNL     1       9.296  13.243  21.312  0.00  0.00    +0.000 NA
ATOM     26  C   UNL     1       9.866  13.689  20.178  0.00  0.00    +0.000 A 
ATOM     27  H   UNL     1       9.740  17.911  17.230  0.00  0.00    +0.000 HD
ATOM     28  H   UNL     1       8.147  10.411  22.160  0.00  0.00    +0.000 HD
ENDROOT
BRANCH  22  29
ATOM     29  C   UNL     1       5.955  13.735  26.747  0.00  0.00    +0.000 C 
ATOM     30  O   UNL     1       5.869  13.198  27.852  0.00  0.00    +0.000 OA
ATOM     31  N   UNL     1       5.409  14.977  26.482  0.00  0.00    +0.000 N 
ATOM     32  C   UNL     1       4.888  15.762  27.599  0.00  0.00    +0.000 C 
ATOM     33  C   UNL     1       5.481  17.181  27.559  0.00  0.00    +0.000 C 
ATOM     34  N   UNL     1       5.246  17.862  26.270  0.00  0.00    +0.000 NA
ATOM     35  C   UNL     1       5.716  17.032  25.144  0.00  0.00    +0.000 C 
ATOM     36  C   UNL     1       5.152  15.596  25.175  0.00  0.00    +0.000 C 
ATOM     37  H   UNL     1       5.751  18.748  26.269  0.00  0.00    +0.000 HD
ENDBRANCH  22  29
TORSDOF 1
ENDMDL
MODEL 8
REMARK VINA RESULT:      -6.5      2.963      4.500
REMARK  Name = 
REMARK  1 active torsions:
REMARK  status: ('A' for Active; 'I' for Inactive)
REMARK    1  A    between atoms: C_22  and  C_23
REMARK                            x       y       z     vdW  Elec       q    Type
REMARK                         _______ _______ _______ _____ _____    ______ ____
ROOT
ATOM      1  O   UNL     1      -2.956   9.698  15.814  0.00  0.00    +0.000 OA
ATOM      2  C   UNL     1      -2.497  10.199  16.835  0.00  0.00    +0.000 C 
ATOM      3  N   UNL     1      -1.149  10.229  17.047  0.00  0.00    +0.000 N 
ATOM      4  C   UNL     1      -0.622  10.419  18.372  0.00  0.00    +0.000 C 
ATOM      5  C   UNL     1      -1.283  11.576  19.197  0.00  0.00    +0.000 C 
ATOM      6  C   UNL     1      -0.911  12.979  18.673  0.00  0.00    +0.000 C 
ATOM      7  C   UNL     1       0.502  13.489  18.911  0.00  0.00    +0.000 C 
ATOM      8  C   UNL     1       1.255  12.965  20.126  0.00  0.00    +0.000 C 
ATOM      9  C   UNL     1       0.791  11.634  20.704  0.00  0.00    +0.000 C 
ATOM     10  C   UNL     1      -0.735  11.409  20.643  0.00  0.00    +0.000 C 
ATOM     11  N   UNL     1      -2.765  11.452  19.007  0.00  0.00    +0.000 N 
ATOM     12  C   UNL     1      -3.275  10.860  17.848  0.00  0.00    +0.000 A 
ATOM     13  C   UNL     1      -4.620  11.169  17.755  0.00  0.00    +0.000 A 
ATOM     14  C   UNL     1      -4.892  12.134  18.735  0.00  0.00    +0.000 A 
ATOM     15  C   UNL     1      -5.948  13.003  18.974  0.00  0.00    +0.000 A 
ATOM     16  N   UNL     1      -5.848  13.916  19.955  0.00  0.00    +0.000 NA
ATOM     17  C   UNL     1      -4.746  13.924  20.731  0.00  0.00    +0.000 A 
ATOM     18  N   UNL     1      -4.767  14.921  21.697  0.00  0.00    +0.000 N 
ATOM     19  C   UNL     1      -3.802  15.232  22.641  0.00  0.00    +0.000 A 
ATOM     20  C   UNL     1      -3.071  14.231  23.275  0.00  0.00    +0.000 A 
ATOM     21  C   UNL     1      -2.078  14.581  24.178  0.00  0.00    +0.000 A 
ATOM     22  C   UNL     1      -1.829  15.916  24.440  0.00  0.00    +0.000 A 
ATOM     23  C   UNL     1      -2.598  16.853  23.769  0.00  0.00    +0.000 A 
ATOM     24  N   UNL     1      -3.603  16.538  22.912  0.00  0.00    +0.000 NA
ATOM     25  N   UNL     1      -3.664  13.114  20.575  0.00  0.00    +0.000 NA
ATOM     26  C   UNL     1      -3.766  12.260  19.541  0.00  0.00    +0.000 A 
ATOM     27  H   UNL     1      -0.625   9.695  16.364  0.00  0.00    +0.000 HD
ATOM     28  H   UNL     1      -5.289  15.718  21.371  0.00  0.00    +0.000 HD
ENDROOT
BRANCH  22  29
ATOM     29  C   UNL     1      -0.656  16.268  25.259  0.00  0.00    +0.000 C 
ATOM     30  O   UNL     1      -0.487  15.603  26.283  0.00  0.00    +0.000 OA
ATOM     31  N   UNL     1       0.219  17.263  24.869  0.00  0.00    +0.000 N 
ATOM     32  C   UNL     1       1.489  17.395  25.582  0.00  0.00    +0.000 C 
ATOM     33  C   UNL     1       2.651  17.432  24.576  0.00  0.00    +0.000 C 
ATOM     34  N   UNL     1       2.494  18.493  23.561  0.00  0.00    +0.000 NA
ATOM     35  C   UNL     1       1.183  18.391  22.892  0.00  0.00    +0.000 C 
ATOM     36  C   UNL     1       0.001  18.329  23.883  0.00  0.00    +0.000 C 
ATOM     37  H   UNL     1       3.234  18.397  22.866  0.00  0.00    +0.000 HD
ENDBRANCH  22  29
TORSDOF 1
ENDMDL
MODEL 9
REMARK VINA RESULT:      -6.5      2.166      8.665
REMARK  Name = 
REMARK  1 active torsions:
REMARK  status: ('A' for Active; 'I' for Inactive)
REMARK    1  A    between atoms: C_22  and  C_23
REMARK                            x       y       z     vdW  Elec       q    Type
REMARK                         _______ _______ _______ _____ _____    ______ ____
ROOT
ATOM      1  O   UNL     1      -5.144  18.277  25.931  0.00  0.00    +0.000 OA
ATOM      2  C   UNL     1      -4.877  17.340  25.187  0.00  0.00    +0.000 C 
ATOM      3  N   UNL     1      -5.845  16.770  24.412  0.00  0.00    +0.000 N 
ATOM      4  C   UNL     1      -5.664  15.451  23.868  0.00  0.00    +0.000 C 
ATOM      5  C   UNL     1      -4.271  15.188  23.199  0.00  0.00    +0.000 C 
ATOM      6  C   UNL     1      -4.092  15.940  21.863  0.00  0.00    +0.000 C 
ATOM      7  C   UNL     1      -4.873  15.455  20.651  0.00  0.00    +0.000 C 
ATOM      8  C   UNL     1      -5.254  13.983  20.588  0.00  0.00    +0.000 C 
ATOM      9  C   UNL     1      -5.306  13.227  21.910  0.00  0.00    +0.000 C 
ATOM     10  C   UNL     1      -4.231  13.656  22.932  0.00  0.00    +0.000 C 
ATOM     11  N   UNL     1      -3.232  15.750  24.123  0.00  0.00    +0.000 N 
ATOM     12  C   UNL     1      -3.557  16.804  24.982  0.00  0.00    +0.000 A 
ATOM     13  C   UNL     1      -2.382  17.354  25.462  0.00  0.00    +0.000 A 
ATOM     14  C   UNL     1      -1.330  16.786  24.730  0.00  0.00    +0.000 A 
ATOM     15  C   UNL     1       0.012  17.098  24.559  0.00  0.00    +0.000 A 
ATOM     16  N   UNL     1       0.746  16.410  23.669  0.00  0.00    +0.000 NA
ATOM     17  C   UNL     1       0.177  15.384  23.005  0.00  0.00    +0.000 A 
ATOM     18  N   UNL     1       1.040  14.767  22.110  0.00  0.00    +0.000 N 
ATOM     19  C   UNL     1       0.789  13.707  21.255  0.00  0.00    +0.000 A 
ATOM     20  C   UNL     1      -0.027  12.648  21.647  0.00  0.00    +0.000 A 
ATOM     21  C   UNL     1      -0.298  11.628  20.747  0.00  0.00    +0.000 A 
ATOM     22  C   UNL     1       0.246  11.673  19.477  0.00  0.00    +0.000 A 
ATOM     23  C   UNL     1       1.046  12.759  19.162  0.00  0.00    +0.000 A 
ATOM     24  N   UNL     1       1.361  13.750  20.036  0.00  0.00    +0.000 NA
ATOM     25  N   UNL     1      -1.127  15.004  23.105  0.00  0.00    +0.000 NA
ATOM     26  C   UNL     1      -1.850  15.758  23.952  0.00  0.00    +0.000 A 
ATOM     27  H   UNL     1      -6.776  17.108  24.626  0.00  0.00    +0.000 HD
ATOM     28  H   UNL     1       1.711  15.428  21.753  0.00  0.00    +0.000 HD
ENDROOT
BRANCH  22  29
ATOM     29  C   UNL     1      -0.198  10.679  18.483  0.00  0.00    +0.000 C 
ATOM     30  O   UNL     1       0.559   9.726  18.289  0.00  0.00    +0.000 OA
ATOM     31  N   UNL     1      -1.416  10.800  17.842  0.00  0.00    +0.000 N 
ATOM     32  C   UNL     1      -1.911   9.666  17.065  0.00  0.00    +0.000 C 
ATOM     33  C   UNL     1      -3.353   9.335  17.485  0.00  0.00    +0.000 C 
ATOM     34  N   UNL     1      -4.260  10.496  17.376  0.00  0.00    +0.000 NA
ATOM     35  C   UNL     1      -3.719  11.656  18.110  0.00  0.00    +0.000 C 
ATOM     36  C   UNL     1      -2.264  11.993  17.722  0.00  0.00    +0.000 C 
ATOM     37  H   UNL     1      -5.167  10.243  17.767  0.00  0.00    +0.000 HD
ENDBRANCH  22  29
TORSDOF 1
ENDMDL
