MODEL 1
REMARK VINA RESULT:      -7.9      0.000      0.000
REMARK  Name = 
REMARK  1 active torsions:
REMARK  status: ('A' for Active; 'I' for Inactive)
REMARK    1  A    between atoms: C_1  and  N_2
REMARK                            x       y       z     vdW  Elec       q    Type
REMARK                         _______ _______ _______ _____ _____    ______ ____
ROOT
ATOM      1  C   UNL     1       6.747   8.563  17.826  0.00  0.00    +0.000 C 
ATOM      2  N   UNL     1       7.162   7.259  17.360  0.00  0.00    +0.000 N 
ATOM      3  O   UNL     1       6.279   6.701  16.434  0.00  0.00    +0.000 OA
ATOM      4  C   UNL     1       6.402   5.277  16.682  0.00  0.00    +0.000 C 
ATOM      5  N   UNL     1       7.391   4.998  17.741  0.00  0.00    +0.000 NA
ATOM      6  C   UNL     1       7.634   6.225  18.117  0.00  0.00    +0.000 C 
ATOM      7  N   UNL     1       8.343   6.511  19.230  0.00  0.00    +0.000 N 
ATOM      8  C   UNL     1       6.731   4.774  15.299  0.00  0.00    +0.000 A 
ATOM      9  C   UNL     1       7.638   5.367  14.418  0.00  0.00    +0.000 A 
ATOM     10  C   UNL     1       7.549   5.061  13.065  0.00  0.00    +0.000 A 
ATOM     11 CL   UNL     1       8.536   5.911  11.937  0.00  0.00    +0.000 Cl
ATOM     12  C   UNL     1       6.604   4.135  12.607  0.00  0.00    +0.000 A 
ATOM     13  C   UNL     1       5.742   3.494  13.508  0.00  0.00    +0.000 A 
ATOM     14  C   UNL     1       5.805   3.835  14.854  0.00  0.00    +0.000 A 
ATOM     15  C   UNL     1       4.925   3.374  15.981  0.00  0.00    +0.000 C 
ATOM     16  C   UNL     1       4.968   4.561  17.018  0.00  0.00    +0.000 C 
ATOM     17  C   UNL     1       3.794   5.496  16.709  0.00  0.00    +0.000 C 
ATOM     18  C   UNL     1       3.968   6.740  17.545  0.00  0.00    +0.000 C 
ATOM     19  C   UNL     1       2.994   6.874  18.633  0.00  0.00    +0.000 A 
ATOM     20  C   UNL     1       2.283   8.081  18.700  0.00  0.00    +0.000 A 
ATOM     21  C   UNL     1       1.509   8.360  19.803  0.00  0.00    +0.000 A 
ATOM     22  C   UNL     1       1.435   7.426  20.829  0.00  0.00    +0.000 A 
ATOM     23  C   UNL     1       2.153   6.211  20.750  0.00  0.00    +0.000 A 
ATOM     24  C   UNL     1       2.955   5.901  19.636  0.00  0.00    +0.000 A 
ATOM     25  C   UNL     1       3.778   4.609  19.617  0.00  0.00    +0.000 C 
ATOM     26  C   UNL     1       4.759   4.014  18.500  0.00  0.00    +0.000 C 
ATOM     27  H   UNL     1       8.493   5.672  19.781  0.00  0.00    +0.000 HD
ATOM     28  H   UNL     1       7.939   7.244  19.797  0.00  0.00    +0.000 HD
ENDROOT
TORSDOF 0
ENDMDL
MODEL 2
REMARK VINA RESULT:      -6.6     10.199     13.984
REMARK  Name = 
REMARK  1 active torsions:
REMARK  status: ('A' for Active; 'I' for Inactive)
REMARK    1  A    between atoms: C_1  and  N_2
REMARK                            x       y       z     vdW  Elec       q    Type
REMARK                         _______ _______ _______ _____ _____    ______ ____
ROOT
ATOM      1  C   UNL     1      -4.976  10.792  18.628  0.00  0.00    +0.000 C 
ATOM      2  N   UNL     1      -5.710  11.893  19.213  0.00  0.00    +0.000 N 
ATOM      3  O   UNL     1      -5.000  13.095  19.196  0.00  0.00    +0.000 OA
ATOM      4  C   UNL     1      -5.480  13.773  20.386  0.00  0.00    +0.000 C 
ATOM      5  N   UNL     1      -6.503  12.974  21.086  0.00  0.00    +0.000 NA
ATOM      6  C   UNL     1      -6.426  11.881  20.375  0.00  0.00    +0.000 C 
ATOM      7  N   UNL     1      -7.036  10.735  20.746  0.00  0.00    +0.000 N 
ATOM      8  C   UNL     1      -5.931  15.088  19.802  0.00  0.00    +0.000 A 
ATOM      9  C   UNL     1      -6.660  15.241  18.621  0.00  0.00    +0.000 A 
ATOM     10  C   UNL     1      -6.656  16.480  17.991  0.00  0.00    +0.000 A 
ATOM     11 CL   UNL     1      -7.399  16.647  16.446  0.00  0.00    +0.000 Cl
ATOM     12  C   UNL     1      -5.978  17.564  18.562  0.00  0.00    +0.000 A 
ATOM     13  C   UNL     1      -5.304  17.419  19.782  0.00  0.00    +0.000 A 
ATOM     14  C   UNL     1      -5.274  16.168  20.387  0.00  0.00    +0.000 A 
ATOM     15  C   UNL     1      -4.537  15.741  21.624  0.00  0.00    +0.000 C 
ATOM     16  C   UNL     1      -4.274  14.201  21.407  0.00  0.00    +0.000 C 
ATOM     17  C   UNL     1      -2.902  14.049  20.741  0.00  0.00    +0.000 C 
ATOM     18  C   UNL     1      -2.752  12.606  20.328  0.00  0.00    +0.000 C 
ATOM     19  C   UNL     1      -1.772  11.854  21.118  0.00  0.00    +0.000 A 
ATOM     20  C   UNL     1      -0.777  11.168  20.406  0.00  0.00    +0.000 A 
ATOM     21  C   UNL     1       0.045  10.280  21.060  0.00  0.00    +0.000 A 
ATOM     22  C   UNL     1      -0.116  10.091  22.426  0.00  0.00    +0.000 A 
ATOM     23  C   UNL     1      -1.119  10.789  23.136  0.00  0.00    +0.000 A 
ATOM     24  C   UNL     1      -1.978  11.700  22.492  0.00  0.00    +0.000 A 
ATOM     25  C   UNL     1      -3.102  12.384  23.277  0.00  0.00    +0.000 C 
ATOM     26  C   UNL     1      -4.206  13.445  22.808  0.00  0.00    +0.000 C 
ATOM     27  H   UNL     1      -7.392  10.812  21.694  0.00  0.00    +0.000 HD
ATOM     28  H   UNL     1      -6.457   9.911  20.647  0.00  0.00    +0.000 HD
ENDROOT
TORSDOF 0
ENDMDL
MODEL 3
REMARK VINA RESULT:      -6.6      8.260     10.153
REMARK  Name = 
REMARK  1 active torsions:
REMARK  status: ('A' for Active; 'I' for Inactive)
REMARK    1  A    between atoms: C_1  and  N_2
REMARK                            x       y       z     vdW  Elec       q    Type
REMARK                         _______ _______ _______ _____ _____    ______ ____
ROOT
ATOM      1  C   UNL     1      -1.927  12.246  22.538  0.00  0.00    +0.000 C 
ATOM      2  N   UNL     1      -0.522  12.183  22.198  0.00  0.00    +0.000 N 
ATOM      3  O   UNL     1      -0.175  13.030  21.143  0.00  0.00    +0.000 OA
ATOM      4  C   UNL     1       0.915  12.320  20.501  0.00  0.00    +0.000 C 
ATOM      5  N   UNL     1       1.229  11.063  21.207  0.00  0.00    +0.000 NA
ATOM      6  C   UNL     1       0.243  11.061  22.064  0.00  0.00    +0.000 C 
ATOM      7  N   UNL     1      -0.044   9.987  22.830  0.00  0.00    +0.000 N 
ATOM      8  C   UNL     1       1.986  13.381  20.501  0.00  0.00    +0.000 A 
ATOM      9  C   UNL     1       2.291  14.221  21.575  0.00  0.00    +0.000 A 
ATOM     10  C   UNL     1       2.989  15.397  21.322  0.00  0.00    +0.000 A 
ATOM     11 CL   UNL     1       3.224  16.532  22.596  0.00  0.00    +0.000 Cl
ATOM     12  C   UNL     1       3.423  15.701  20.026  0.00  0.00    +0.000 A 
ATOM     13  C   UNL     1       3.170  14.820  18.966  0.00  0.00    +0.000 A 
ATOM     14  C   UNL     1       2.434  13.666  19.214  0.00  0.00    +0.000 A 
ATOM     15  C   UNL     1       1.946  12.636  18.236  0.00  0.00    +0.000 C 
ATOM     16  C   UNL     1       0.648  12.045  18.910  0.00  0.00    +0.000 C 
ATOM     17  C   UNL     1      -0.552  12.850  18.400  0.00  0.00    +0.000 C 
ATOM     18  C   UNL     1      -1.755  12.440  19.212  0.00  0.00    +0.000 C 
ATOM     19  C   UNL     1      -2.743  11.654  18.466  0.00  0.00    +0.000 A 
ATOM     20  C   UNL     1      -4.069  12.111  18.497  0.00  0.00    +0.000 A 
ATOM     21  C   UNL     1      -5.078  11.319  17.999  0.00  0.00    +0.000 A 
ATOM     22  C   UNL     1      -4.759  10.081  17.455  0.00  0.00    +0.000 A 
ATOM     23  C   UNL     1      -3.420   9.631  17.426  0.00  0.00    +0.000 A 
ATOM     24  C   UNL     1      -2.368  10.418  17.933  0.00  0.00    +0.000 A 
ATOM     25  C   UNL     1      -0.938   9.868  17.952  0.00  0.00    +0.000 C 
ATOM     26  C   UNL     1       0.428  10.532  18.460  0.00  0.00    +0.000 C 
ATOM     27  H   UNL     1       0.486   9.178  22.522  0.00  0.00    +0.000 HD
ATOM     28  H   UNL     1      -1.031   9.771  22.879  0.00  0.00    +0.000 HD
ENDROOT
TORSDOF 0
ENDMDL
MODEL 4
REMARK VINA RESULT:      -6.5      8.723     10.563
REMARK  Name = 
REMARK  1 active torsions:
REMARK  status: ('A' for Active; 'I' for Inactive)
REMARK    1  A    between atoms: C_1  and  N_2
REMARK                            x       y       z     vdW  Elec       q    Type
REMARK                         _______ _______ _______ _____ _____    ______ ____
ROOT
ATOM      1  C   UNL     1      -1.167  10.811  23.075  0.00  0.00    +0.000 C 
ATOM      2  N   UNL     1      -0.234  10.966  21.981  0.00  0.00    +0.000 N 
ATOM      3  O   UNL     1      -0.192  12.268  21.478  0.00  0.00    +0.000 OA
ATOM      4  C   UNL     1       0.120  12.065  20.076  0.00  0.00    +0.000 C 
ATOM      5  N   UNL     1       0.295  10.633  19.764  0.00  0.00    +0.000 NA
ATOM      6  C   UNL     1      -0.069  10.132  20.914  0.00  0.00    +0.000 C 
ATOM      7  N   UNL     1      -0.284   8.810  21.088  0.00  0.00    +0.000 N 
ATOM      8  C   UNL     1       1.336  12.943  19.924  0.00  0.00    +0.000 A 
ATOM      9  C   UNL     1       2.398  13.017  20.829  0.00  0.00    +0.000 A 
ATOM     10  C   UNL     1       3.230  14.130  20.790  0.00  0.00    +0.000 A 
ATOM     11 CL   UNL     1       4.434  14.330  22.005  0.00  0.00    +0.000 Cl
ATOM     12  C   UNL     1       3.037  15.127  19.826  0.00  0.00    +0.000 A 
ATOM     13  C   UNL     1       2.010  15.012  18.879  0.00  0.00    +0.000 A 
ATOM     14  C   UNL     1       1.153  13.919  18.949  0.00  0.00    +0.000 A 
ATOM     15  C   UNL     1      -0.071  13.633  18.127  0.00  0.00    +0.000 C 
ATOM     16  C   UNL     1      -0.975  12.752  19.072  0.00  0.00    +0.000 C 
ATOM     17  C   UNL     1      -1.914  13.693  19.833  0.00  0.00    +0.000 C 
ATOM     18  C   UNL     1      -2.613  12.881  20.896  0.00  0.00    +0.000 C 
ATOM     19  C   UNL     1      -4.039  12.657  20.639  0.00  0.00    +0.000 A 
ATOM     20  C   UNL     1      -4.929  13.002  21.667  0.00  0.00    +0.000 A 
ATOM     21  C   UNL     1      -6.251  12.631  21.582  0.00  0.00    +0.000 A 
ATOM     22  C   UNL     1      -6.685  11.932  20.463  0.00  0.00    +0.000 A 
ATOM     23  C   UNL     1      -5.782  11.593  19.430  0.00  0.00    +0.000 A 
ATOM     24  C   UNL     1      -4.423  11.955  19.493  0.00  0.00    +0.000 A 
ATOM     25  C   UNL     1      -3.457  11.506  18.392  0.00  0.00    +0.000 C 
ATOM     26  C   UNL     1      -1.888  11.769  18.211  0.00  0.00    +0.000 C 
ATOM     27  H   UNL     1      -0.287   8.329  20.194  0.00  0.00    +0.000 HD
ATOM     28  H   UNL     1      -1.122   8.596  21.612  0.00  0.00    +0.000 HD
ENDROOT
TORSDOF 0
ENDMDL
MODEL 5
REMARK VINA RESULT:      -6.5     10.583     14.809
REMARK  Name = 
REMARK  1 active torsions:
REMARK  status: ('A' for Active; 'I' for Inactive)
REMARK    1  A    between atoms: C_1  and  N_2
REMARK                            x       y       z     vdW  Elec       q    Type
REMARK                         _______ _______ _______ _____ _____    ______ ____
ROOT
ATOM      1  C   UNL     1      -5.485  13.365  19.512  0.00  0.00    +0.000 C 
ATOM      2  N   UNL     1      -5.762  13.561  20.918  0.00  0.00    +0.000 N 
ATOM      3  O   UNL     1      -4.923  14.503  21.516  0.00  0.00    +0.000 OA
ATOM      4  C   UNL     1      -4.814  14.022  22.880  0.00  0.00    +0.000 C 
ATOM      5  N   UNL     1      -5.623  12.806  23.090  0.00  0.00    +0.000 NA
ATOM      6  C   UNL     1      -5.992  12.595  21.854  0.00  0.00    +0.000 C 
ATOM      7  N   UNL     1      -6.600  11.453  21.469  0.00  0.00    +0.000 N 
ATOM      8  C   UNL     1      -5.228  15.251  23.649  0.00  0.00    +0.000 A 
ATOM      9  C   UNL     1      -6.305  16.080  23.330  0.00  0.00    +0.000 A 
ATOM     10  C   UNL     1      -6.331  17.368  23.851  0.00  0.00    +0.000 A 
ATOM     11 CL   UNL     1      -7.553  18.467  23.333  0.00  0.00    +0.000 Cl
ATOM     12  C   UNL     1      -5.325  17.803  24.722  0.00  0.00    +0.000 A 
ATOM     13  C   UNL     1      -4.282  16.941  25.090  0.00  0.00    +0.000 A 
ATOM     14  C   UNL     1      -4.236  15.668  24.533  0.00  0.00    +0.000 A 
ATOM     15  C   UNL     1      -3.175  14.616  24.684  0.00  0.00    +0.000 C 
ATOM     16  C   UNL     1      -3.264  13.780  23.350  0.00  0.00    +0.000 C 
ATOM     17  C   UNL     1      -2.278  14.389  22.348  0.00  0.00    +0.000 C 
ATOM     18  C   UNL     1      -2.528  13.741  21.009  0.00  0.00    +0.000 C 
ATOM     19  C   UNL     1      -1.462  12.832  20.574  0.00  0.00    +0.000 A 
ATOM     20  C   UNL     1      -0.925  13.051  19.297  0.00  0.00    +0.000 A 
ATOM     21  C   UNL     1      -0.076  12.122  18.742  0.00  0.00    +0.000 A 
ATOM     22  C   UNL     1       0.248  10.984  19.470  0.00  0.00    +0.000 A 
ATOM     23  C   UNL     1      -0.295  10.773  20.757  0.00  0.00    +0.000 A 
ATOM     24  C   UNL     1      -1.170  11.705  21.348  0.00  0.00    +0.000 A 
ATOM     25  C   UNL     1      -1.799  11.409  22.714  0.00  0.00    +0.000 C 
ATOM     26  C   UNL     1      -2.809  12.274  23.605  0.00  0.00    +0.000 C 
ATOM     27  H   UNL     1      -6.565  10.762  22.212  0.00  0.00    +0.000 HD
ATOM     28  H   UNL     1      -6.241  11.068  20.605  0.00  0.00    +0.000 HD
ENDROOT
TORSDOF 0
ENDMDL
MODEL 6
REMARK VINA RESULT:      -6.4      8.761     11.169
REMARK  Name = 
REMARK  1 active torsions:
REMARK  status: ('A' for Active; 'I' for Inactive)
REMARK    1  A    between atoms: C_1  and  N_2
REMARK                            x       y       z     vdW  Elec       q    Type
REMARK                         _______ _______ _______ _____ _____    ______ ____
ROOT
ATOM      1  C   UNL     1      -3.155  12.440  22.048  0.00  0.00    +0.000 C 
ATOM      2  N   UNL     1      -1.738  12.662  22.239  0.00  0.00    +0.000 N 
ATOM      3  O   UNL     1      -1.193  13.548  21.309  0.00  0.00    +0.000 OA
ATOM      4  C   UNL     1       0.169  13.069  21.161  0.00  0.00    +0.000 C 
ATOM      5  N   UNL     1       0.430  11.911  22.037  0.00  0.00    +0.000 NA
ATOM      6  C   UNL     1      -0.783  11.718  22.483  0.00  0.00    +0.000 C 
ATOM      7  N   UNL     1      -1.126  10.617  23.184  0.00  0.00    +0.000 N 
ATOM      8  C   UNL     1       0.947  14.327  21.452  0.00  0.00    +0.000 A 
ATOM      9  C   UNL     1       0.676  15.224  22.488  0.00  0.00    +0.000 A 
ATOM     10  C   UNL     1       1.187  16.514  22.402  0.00  0.00    +0.000 A 
ATOM     11 CL   UNL     1       0.722  17.688  23.574  0.00  0.00    +0.000 Cl
ATOM     12  C   UNL     1       2.001  16.885  21.325  0.00  0.00    +0.000 A 
ATOM     13  C   UNL     1       2.323  15.958  20.324  0.00  0.00    +0.000 A 
ATOM     14  C   UNL     1       1.775  14.682  20.391  0.00  0.00    +0.000 A 
ATOM     15  C   UNL     1       1.881  13.562  19.395  0.00  0.00    +0.000 C 
ATOM     16  C   UNL     1       0.561  12.727  19.609  0.00  0.00    +0.000 C 
ATOM     17  C   UNL     1      -0.496  13.264  18.638  0.00  0.00    +0.000 C 
ATOM     18  C   UNL     1      -1.815  12.626  18.999  0.00  0.00    +0.000 C 
ATOM     19  C   UNL     1      -2.295  11.646  18.020  0.00  0.00    +0.000 A 
ATOM     20  C   UNL     1      -3.600  11.823  17.536  0.00  0.00    +0.000 A 
ATOM     21  C   UNL     1      -4.190  10.836  16.780  0.00  0.00    +0.000 A 
ATOM     22  C   UNL     1      -3.470   9.683  16.495  0.00  0.00    +0.000 A 
ATOM     23  C   UNL     1      -2.155   9.515  16.983  0.00  0.00    +0.000 A 
ATOM     24  C   UNL     1      -1.528  10.506  17.763  0.00  0.00    +0.000 A 
ATOM     25  C   UNL     1      -0.129  10.261  18.338  0.00  0.00    +0.000 C 
ATOM     26  C   UNL     1       0.805  11.196  19.242  0.00  0.00    +0.000 C 
ATOM     27  H   UNL     1      -0.379   9.929  23.157  0.00  0.00    +0.000 HD
ATOM     28  H   UNL     1      -2.003  10.204  22.896  0.00  0.00    +0.000 HD
ENDROOT
TORSDOF 0
ENDMDL
MODEL 7
REMARK VINA RESULT:      -6.4     13.649     15.050
REMARK  Name = 
REMARK  1 active torsions:
REMARK  status: ('A' for Active; 'I' for Inactive)
REMARK    1  A    between atoms: C_1  and  N_2
REMARK                            x       y       z     vdW  Elec       q    Type
REMARK                         _______ _______ _______ _____ _____    ______ ____
ROOT
ATOM      1  C   UNL     1      -4.959  12.528  24.647  0.00  0.00    +0.000 C 
ATOM      2  N   UNL     1      -5.999  12.586  23.643  0.00  0.00    +0.000 N 
ATOM      3  O   UNL     1      -5.502  12.579  22.339  0.00  0.00    +0.000 OA
ATOM      4  C   UNL     1      -6.483  13.364  21.613  0.00  0.00    +0.000 C 
ATOM      5  N   UNL     1      -7.580  13.806  22.496  0.00  0.00    +0.000 NA
ATOM      6  C   UNL     1      -7.094  13.401  23.638  0.00  0.00    +0.000 C 
ATOM      7  N   UNL     1      -7.641  13.755  24.821  0.00  0.00    +0.000 N 
ATOM      8  C   UNL     1      -6.849  12.409  20.505  0.00  0.00    +0.000 A 
ATOM      9  C   UNL     1      -7.089  11.042  20.662  0.00  0.00    +0.000 A 
ATOM     10  C   UNL     1      -7.011  10.220  19.544  0.00  0.00    +0.000 A 
ATOM     11 CL   UNL     1      -7.127   8.512  19.739  0.00  0.00    +0.000 Cl
ATOM     12  C   UNL     1      -6.752  10.763  18.280  0.00  0.00    +0.000 A 
ATOM     13  C   UNL     1      -6.578  12.145  18.121  0.00  0.00    +0.000 A 
ATOM     14  C   UNL     1      -6.614  12.959  19.248  0.00  0.00    +0.000 A 
ATOM     15  C   UNL     1      -6.352  14.434  19.348  0.00  0.00    +0.000 C 
ATOM     16  C   UNL     1      -5.824  14.636  20.820  0.00  0.00    +0.000 C 
ATOM     17  C   UNL     1      -4.295  14.538  20.787  0.00  0.00    +0.000 C 
ATOM     18  C   UNL     1      -3.809  14.500  22.215  0.00  0.00    +0.000 C 
ATOM     19  C   UNL     1      -3.112  15.717  22.644  0.00  0.00    +0.000 A 
ATOM     20  C   UNL     1      -1.839  15.551  23.210  0.00  0.00    +0.000 A 
ATOM     21  C   UNL     1      -1.217  16.615  23.821  0.00  0.00    +0.000 A 
ATOM     22  C   UNL     1      -1.858  17.846  23.849  0.00  0.00    +0.000 A 
ATOM     23  C   UNL     1      -3.139  18.005  23.273  0.00  0.00    +0.000 A 
ATOM     24  C   UNL     1      -3.801  16.933  22.646  0.00  0.00    +0.000 A 
ATOM     25  C   UNL     1      -5.220  17.121  22.097  0.00  0.00    +0.000 C 
ATOM     26  C   UNL     1      -6.193  16.093  21.349  0.00  0.00    +0.000 C 
ATOM     27  H   UNL     1      -8.337  14.482  24.687  0.00  0.00    +0.000 HD
ATOM     28  H   UNL     1      -6.964  14.032  25.519  0.00  0.00    +0.000 HD
ENDROOT
TORSDOF 0
ENDMDL
MODEL 8
REMARK VINA RESULT:      -6.4      8.407     11.467
REMARK  Name = 
REMARK  1 active torsions:
REMARK  status: ('A' for Active; 'I' for Inactive)
REMARK    1  A    between atoms: C_1  and  N_2
REMARK                            x       y       z     vdW  Elec       q    Type
REMARK                         _______ _______ _______ _____ _____    ______ ____
ROOT
ATOM      1  C   UNL     1      -2.633  11.571  17.277  0.00  0.00    +0.000 C 
ATOM      2  N   UNL     1      -1.578  11.695  18.259  0.00  0.00    +0.000 N 
ATOM      3  O   UNL     1      -1.934  11.191  19.511  0.00  0.00    +0.000 OA
ATOM      4  C   UNL     1      -1.184  12.032  20.426  0.00  0.00    +0.000 C 
ATOM      5  N   UNL     1      -0.357  13.015  19.699  0.00  0.00    +0.000 NA
ATOM      6  C   UNL     1      -0.792  12.787  18.489  0.00  0.00    +0.000 C 
ATOM      7  N   UNL     1      -0.485  13.593  17.449  0.00  0.00    +0.000 N 
ATOM      8  C   UNL     1      -0.447  10.991  21.230  0.00  0.00    +0.000 A 
ATOM      9  C   UNL     1       0.188   9.863  20.705  0.00  0.00    +0.000 A 
ATOM     10  C   UNL     1       0.463   8.798  21.554  0.00  0.00    +0.000 A 
ATOM     11 CL   UNL     1       1.083   7.330  20.899  0.00  0.00    +0.000 Cl
ATOM     12  C   UNL     1       0.160   8.881  22.918  0.00  0.00    +0.000 A 
ATOM     13  C   UNL     1      -0.417  10.043  23.450  0.00  0.00    +0.000 A 
ATOM     14  C   UNL     1      -0.731  11.090  22.590  0.00  0.00    +0.000 A 
ATOM     15  C   UNL     1      -1.443  12.375  22.897  0.00  0.00    +0.000 C 
ATOM     16  C   UNL     1      -2.132  12.773  21.536  0.00  0.00    +0.000 C 
ATOM     17  C   UNL     1      -3.547  12.186  21.538  0.00  0.00    +0.000 C 
ATOM     18  C   UNL     1      -4.120  12.367  20.154  0.00  0.00    +0.000 C 
ATOM     19  C   UNL     1      -5.193  13.364  20.074  0.00  0.00    +0.000 A 
ATOM     20  C   UNL     1      -6.396  12.952  19.482  0.00  0.00    +0.000 A 
ATOM     21  C   UNL     1      -7.367  13.881  19.186  0.00  0.00    +0.000 A 
ATOM     22  C   UNL     1      -7.141  15.216  19.497  0.00  0.00    +0.000 A 
ATOM     23  C   UNL     1      -5.927  15.621  20.096  0.00  0.00    +0.000 A 
ATOM     24  C   UNL     1      -4.914  14.693  20.406  0.00  0.00    +0.000 A 
ATOM     25  C   UNL     1      -3.581  15.175  20.988  0.00  0.00    +0.000 C 
ATOM     26  C   UNL     1      -2.278  14.356  21.426  0.00  0.00    +0.000 C 
ATOM     27  H   UNL     1      -0.038  14.443  17.778  0.00  0.00    +0.000 HD
ATOM     28  H   UNL     1      -1.272  13.810  16.853  0.00  0.00    +0.000 HD
ENDROOT
TORSDOF 0
ENDMDL
MODEL 9
REMARK VINA RESULT:      -6.3     11.512     14.537
REMARK  Name = 
REMARK  1 active torsions:
REMARK  status: ('A' for Active; 'I' for Inactive)
REMARK    1  A    between atoms: C_1  and  N_2
REMARK                            x       y       z     vdW  Elec       q    Type
REMARK                         _______ _______ _______ _____ _____    ______ ____
ROOT
ATOM      1  C   UNL     1      -4.577  10.898  17.901  0.00  0.00    +0.000 C 
ATOM      2  N   UNL     1      -5.801  11.638  18.116  0.00  0.00    +0.000 N 
ATOM      3  O   UNL     1      -5.590  13.008  18.282  0.00  0.00    +0.000 OA
ATOM      4  C   UNL     1      -6.664  13.397  19.177  0.00  0.00    +0.000 C 
ATOM      5  N   UNL     1      -7.529  12.249  19.511  0.00  0.00    +0.000 NA
ATOM      6  C   UNL     1      -6.833  11.301  18.942  0.00  0.00    +0.000 C 
ATOM      7  N   UNL     1      -7.103   9.993  19.138  0.00  0.00    +0.000 N 
ATOM      8  C   UNL     1      -7.298  14.517  18.392  0.00  0.00    +0.000 A 
ATOM      9  C   UNL     1      -7.562  14.494  17.021  0.00  0.00    +0.000 A 
ATOM     10  C   UNL     1      -7.758  15.702  16.361  0.00  0.00    +0.000 A 
ATOM     11 CL   UNL     1      -7.909  15.714  14.644  0.00  0.00    +0.000 Cl
ATOM     12  C   UNL     1      -7.745  16.909  17.069  0.00  0.00    +0.000 A 
ATOM     13  C   UNL     1      -7.545  16.917  18.457  0.00  0.00    +0.000 A 
ATOM     14  C   UNL     1      -7.306  15.712  19.107  0.00  0.00    +0.000 A 
ATOM     15  C   UNL     1      -6.960  15.476  20.549  0.00  0.00    +0.000 C 
ATOM     16  C   UNL     1      -6.127  14.137  20.535  0.00  0.00    +0.000 C 
ATOM     17  C   UNL     1      -4.645  14.509  20.417  0.00  0.00    +0.000 C 
ATOM     18  C   UNL     1      -3.873  13.237  20.173  0.00  0.00    +0.000 C 
ATOM     19  C   UNL     1      -3.046  12.810  21.306  0.00  0.00    +0.000 A 
ATOM     20  C   UNL     1      -1.692  12.556  21.041  0.00  0.00    +0.000 A 
ATOM     21  C   UNL     1      -0.906  11.958  21.999  0.00  0.00    +0.000 A 
ATOM     22  C   UNL     1      -1.470  11.630  23.225  0.00  0.00    +0.000 A 
ATOM     23  C   UNL     1      -2.834  11.893  23.485  0.00  0.00    +0.000 A 
ATOM     24  C   UNL     1      -3.663  12.499  22.521  0.00  0.00    +0.000 A 
ATOM     25  C   UNL     1      -5.154  12.702  22.808  0.00  0.00    +0.000 C 
ATOM     26  C   UNL     1      -6.309  13.353  21.910  0.00  0.00    +0.000 C 
ATOM     27  H   UNL     1      -7.778   9.877  19.888  0.00  0.00    +0.000 HD
ATOM     28  H   UNL     1      -6.283   9.425  19.304  0.00  0.00    +0.000 HD
ENDROOT
TORSDOF 0
ENDMDL
