MODEL 1
REMARK VINA RESULT:      -6.0      0.000      0.000
REMARK  Name = 
REMARK  8 active torsions:
REMARK  status: ('A' for Active; 'I' for Inactive)
REMARK    1  A    between atoms: C_1  and  C_2
REMARK    2  A    between atoms: C_2  and  C_3
REMARK    3  A    between atoms: C_3  and  N_4
REMARK    4  A    between atoms: C_5  and  C_6
REMARK    5  A    between atoms: C_9  and  O_10
REMARK    6  A    between atoms: O_10  and  C_11
REMARK    7  A    between atoms: C_14  and  O_15
REMARK    8  A    between atoms: O_15  and  C_16
REMARK                            x       y       z     vdW  Elec       q    Type
REMARK                         _______ _______ _______ _____ _____    ______ ____
ROOT
ATOM      1  N   UNL     1       3.448   3.872  19.628  0.00  0.00    +0.000 N 
ATOM      2  C   UNL     1       2.513   4.014  20.560  0.00  0.00    +0.000 A 
ATOM      3  C   UNL     1       2.058   3.036  21.587  0.00  0.00    +0.000 C 
ATOM      4  S   UNL     1       1.804   5.560  20.507  0.00  0.00    +0.000 S 
ATOM      5  C   UNL     1       2.806   6.052  19.195  0.00  0.00    +0.000 A 
ATOM      6  C   UNL     1       2.805   7.309  18.555  0.00  0.00    +0.000 A 
ATOM      7  C   UNL     1       3.703   7.490  17.507  0.00  0.00    +0.000 A 
ATOM      8  C   UNL     1       4.571   6.475  17.119  0.00  0.00    +0.000 A 
ATOM      9  C   UNL     1       4.583   5.220  17.764  0.00  0.00    +0.000 A 
ATOM     10  C   UNL     1       3.657   5.012  18.829  0.00  0.00    +0.000 A 
ENDROOT
BRANCH   6  11
ATOM     11  O   UNL     1       1.927   8.250  19.016  0.00  0.00    +0.000 OA
ATOM     12  C   UNL     1       1.456   9.228  18.096  0.00  0.00    +0.000 C 
ENDBRANCH   6  11
BRANCH   9  13
ATOM     13  O   UNL     1       5.446   4.212  17.409  0.00  0.00    +0.000 OA
ATOM     14  C   UNL     1       6.460   4.523  16.447  0.00  0.00    +0.000 C 
ENDBRANCH   9  13
BRANCH   1  15
ATOM     15  C   UNL     1       4.200   2.618  19.476  0.00  0.00    +0.000 C 
BRANCH  15  17
ATOM     16  C   UNL     1       2.620   2.128  17.572  0.00  0.00    +0.000 C 
ATOM     17  C   UNL     1       3.374   1.552  18.758  0.00  0.00    +0.000 C 
ENDBRANCH  15  17
ENDBRANCH   1  15
TORSDOF 4
ENDMDL
MODEL 2
REMARK VINA RESULT:      -5.8      1.816      4.157
REMARK  Name = 
REMARK  8 active torsions:
REMARK  status: ('A' for Active; 'I' for Inactive)
REMARK    1  A    between atoms: C_1  and  C_2
REMARK    2  A    between atoms: C_2  and  C_3
REMARK    3  A    between atoms: C_3  and  N_4
REMARK    4  A    between atoms: C_5  and  C_6
REMARK    5  A    between atoms: C_9  and  O_10
REMARK    6  A    between atoms: O_10  and  C_11
REMARK    7  A    between atoms: C_14  and  O_15
REMARK    8  A    between atoms: O_15  and  C_16
REMARK                            x       y       z     vdW  Elec       q    Type
REMARK                         _______ _______ _______ _____ _____    ______ ____
ROOT
ATOM      1  N   UNL     1       2.509   4.131  18.595  0.00  0.00    +0.000 N 
ATOM      2  C   UNL     1       2.557   2.826  18.353  0.00  0.00    +0.000 A 
ATOM      3  C   UNL     1       1.711   1.737  18.915  0.00  0.00    +0.000 C 
ATOM      4  S   UNL     1       3.769   2.442  17.223  0.00  0.00    +0.000 S 
ATOM      5  C   UNL     1       4.228   4.094  17.048  0.00  0.00    +0.000 A 
ATOM      6  C   UNL     1       5.241   4.606  16.211  0.00  0.00    +0.000 A 
ATOM      7  C   UNL     1       5.445   5.983  16.228  0.00  0.00    +0.000 A 
ATOM      8  C   UNL     1       4.671   6.815  17.031  0.00  0.00    +0.000 A 
ATOM      9  C   UNL     1       3.649   6.307  17.860  0.00  0.00    +0.000 A 
ATOM     10  C   UNL     1       3.438   4.896  17.867  0.00  0.00    +0.000 A 
ENDROOT
BRANCH   6  11
ATOM     11  O   UNL     1       5.939   3.713  15.447  0.00  0.00    +0.000 OA
ATOM     12  C   UNL     1       6.042   3.970  14.051  0.00  0.00    +0.000 C 
ENDBRANCH   6  11
BRANCH   9  13
ATOM     13  O   UNL     1       2.861   7.115  18.644  0.00  0.00    +0.000 OA
ATOM     14  C   UNL     1       2.270   8.261  18.022  0.00  0.00    +0.000 C 
ENDBRANCH   9  13
BRANCH   1  15
ATOM     15  C   UNL     1       1.540   4.703  19.542  0.00  0.00    +0.000 C 
BRANCH  15  17
ATOM     16  C   UNL     1       2.097   3.523  21.701  0.00  0.00    +0.000 C 
ATOM     17  C   UNL     1       2.137   4.838  20.942  0.00  0.00    +0.000 C 
ENDBRANCH  15  17
ENDBRANCH   1  15
TORSDOF 4
ENDMDL
MODEL 3
REMARK VINA RESULT:      -5.7      2.127      4.849
REMARK  Name = 
REMARK  8 active torsions:
REMARK  status: ('A' for Active; 'I' for Inactive)
REMARK    1  A    between atoms: C_1  and  C_2
REMARK    2  A    between atoms: C_2  and  C_3
REMARK    3  A    between atoms: C_3  and  N_4
REMARK    4  A    between atoms: C_5  and  C_6
REMARK    5  A    between atoms: C_9  and  O_10
REMARK    6  A    between atoms: O_10  and  C_11
REMARK    7  A    between atoms: C_14  and  O_15
REMARK    8  A    between atoms: O_15  and  C_16
REMARK                            x       y       z     vdW  Elec       q    Type
REMARK                         _______ _______ _______ _____ _____    ______ ____
ROOT
ATOM      1  N   UNL     1       4.359   5.351  17.143  0.00  0.00    +0.000 N 
ATOM      2  C   UNL     1       4.724   4.105  16.860  0.00  0.00    +0.000 A 
ATOM      3  C   UNL     1       5.673   3.621  15.821  0.00  0.00    +0.000 C 
ATOM      4  S   UNL     1       3.963   2.981  17.885  0.00  0.00    +0.000 S 
ATOM      5  C   UNL     1       3.131   4.221  18.745  0.00  0.00    +0.000 A 
ATOM      6  C   UNL     1       2.246   4.049  19.830  0.00  0.00    +0.000 A 
ATOM      7  C   UNL     1       1.680   5.198  20.376  0.00  0.00    +0.000 A 
ATOM      8  C   UNL     1       1.988   6.459  19.877  0.00  0.00    +0.000 A 
ATOM      9  C   UNL     1       2.882   6.635  18.801  0.00  0.00    +0.000 A 
ATOM     10  C   UNL     1       3.458   5.467  18.218  0.00  0.00    +0.000 A 
ENDROOT
BRANCH   6  11
ATOM     11  O   UNL     1       2.016   2.773  20.261  0.00  0.00    +0.000 OA
ATOM     12  C   UNL     1       1.608   2.590  21.612  0.00  0.00    +0.000 C 
ENDBRANCH   6  11
BRANCH   9  13
ATOM     13  O   UNL     1       3.214   7.873  18.307  0.00  0.00    +0.000 OA
ATOM     14  C   UNL     1       2.148   8.691  17.810  0.00  0.00    +0.000 C 
ENDBRANCH   9  13
BRANCH   1  15
ATOM     15  C   UNL     1       4.884   6.498  16.388  0.00  0.00    +0.000 C 
BRANCH  15  17
ATOM     16  C   UNL     1       7.303   6.457  17.102  0.00  0.00    +0.000 C 
ATOM     17  C   UNL     1       5.990   7.218  17.159  0.00  0.00    +0.000 C 
ENDBRANCH  15  17
ENDBRANCH   1  15
TORSDOF 4
ENDMDL
MODEL 4
REMARK VINA RESULT:      -5.7      1.784      3.718
REMARK  Name = 
REMARK  8 active torsions:
REMARK  status: ('A' for Active; 'I' for Inactive)
REMARK    1  A    between atoms: C_1  and  C_2
REMARK    2  A    between atoms: C_2  and  C_3
REMARK    3  A    between atoms: C_3  and  N_4
REMARK    4  A    between atoms: C_5  and  C_6
REMARK    5  A    between atoms: C_9  and  O_10
REMARK    6  A    between atoms: O_10  and  C_11
REMARK    7  A    between atoms: C_14  and  O_15
REMARK    8  A    between atoms: O_15  and  C_16
REMARK                            x       y       z     vdW  Elec       q    Type
REMARK                         _______ _______ _______ _____ _____    ______ ____
ROOT
ATOM      1  N   UNL     1       3.222   4.318  20.180  0.00  0.00    +0.000 N 
ATOM      2  C   UNL     1       4.087   3.427  19.708  0.00  0.00    +0.000 A 
ATOM      3  C   UNL     1       4.404   2.066  20.222  0.00  0.00    +0.000 C 
ATOM      4  S   UNL     1       4.883   4.002  18.319  0.00  0.00    +0.000 S 
ATOM      5  C   UNL     1       4.017   5.491  18.352  0.00  0.00    +0.000 A 
ATOM      6  C   UNL     1       4.139   6.561  17.440  0.00  0.00    +0.000 A 
ATOM      7  C   UNL     1       3.338   7.678  17.659  0.00  0.00    +0.000 A 
ATOM      8  C   UNL     1       2.448   7.727  18.727  0.00  0.00    +0.000 A 
ATOM      9  C   UNL     1       2.315   6.654  19.634  0.00  0.00    +0.000 A 
ATOM     10  C   UNL     1       3.141   5.508  19.434  0.00  0.00    +0.000 A 
ENDROOT
BRANCH   6  11
ATOM     11  O   UNL     1       5.029   6.415  16.414  0.00  0.00    +0.000 OA
ATOM     12  C   UNL     1       6.388   6.761  16.657  0.00  0.00    +0.000 C 
ENDBRANCH   6  11
BRANCH   9  13
ATOM     13  O   UNL     1       1.428   6.676  20.682  0.00  0.00    +0.000 OA
ATOM     14  C   UNL     1       1.099   7.953  21.240  0.00  0.00    +0.000 C 
ENDBRANCH   9  13
BRANCH   1  15
ATOM     15  C   UNL     1       2.415   4.047  21.379  0.00  0.00    +0.000 C 
BRANCH  15  17
ATOM     16  C   UNL     1       0.620   3.237  19.803  0.00  0.00    +0.000 C 
ATOM     17  C   UNL     1       1.351   2.984  21.111  0.00  0.00    +0.000 C 
ENDBRANCH  15  17
ENDBRANCH   1  15
TORSDOF 4
ENDMDL
MODEL 5
REMARK VINA RESULT:      -5.6      2.032      3.618
REMARK  Name = 
REMARK  8 active torsions:
REMARK  status: ('A' for Active; 'I' for Inactive)
REMARK    1  A    between atoms: C_1  and  C_2
REMARK    2  A    between atoms: C_2  and  C_3
REMARK    3  A    between atoms: C_3  and  N_4
REMARK    4  A    between atoms: C_5  and  C_6
REMARK    5  A    between atoms: C_9  and  O_10
REMARK    6  A    between atoms: O_10  and  C_11
REMARK    7  A    between atoms: C_14  and  O_15
REMARK    8  A    between atoms: O_15  and  C_16
REMARK                            x       y       z     vdW  Elec       q    Type
REMARK                         _______ _______ _______ _____ _____    ______ ____
ROOT
ATOM      1  N   UNL     1       2.389   5.343  19.074  0.00  0.00    +0.000 N 
ATOM      2  C   UNL     1       2.445   6.645  19.332  0.00  0.00    +0.000 A 
ATOM      3  C   UNL     1       1.653   7.441  20.309  0.00  0.00    +0.000 C 
ATOM      4  S   UNL     1       3.621   7.423  18.379  0.00  0.00    +0.000 S 
ATOM      5  C   UNL     1       4.074   5.949  17.610  0.00  0.00    +0.000 A 
ATOM      6  C   UNL     1       5.070   5.781  16.625  0.00  0.00    +0.000 A 
ATOM      7  C   UNL     1       5.270   4.492  16.137  0.00  0.00    +0.000 A 
ATOM      8  C   UNL     1       4.524   3.419  16.611  0.00  0.00    +0.000 A 
ATOM      9  C   UNL     1       3.536   3.582  17.604  0.00  0.00    +0.000 A 
ATOM     10  C   UNL     1       3.306   4.898  18.104  0.00  0.00    +0.000 A 
ENDROOT
BRANCH   6  11
ATOM     11  O   UNL     1       5.762   6.891  16.232  0.00  0.00    +0.000 OA
ATOM     12  C   UNL     1       6.961   7.209  16.930  0.00  0.00    +0.000 C 
ENDBRANCH   6  11
BRANCH   9  13
ATOM     13  O   UNL     1       2.803   2.531  18.100  0.00  0.00    +0.000 OA
ATOM     14  C   UNL     1       3.527   1.407  18.612  0.00  0.00    +0.000 C 
ENDBRANCH   9  13
BRANCH   1  15
ATOM     15  C   UNL     1       1.444   4.460  19.773  0.00  0.00    +0.000 C 
BRANCH  15  17
ATOM     16  C   UNL     1       1.479   2.648  21.528  0.00  0.00    +0.000 C 
ATOM     17  C   UNL     1       1.986   4.024  21.134  0.00  0.00    +0.000 C 
ENDBRANCH  15  17
ENDBRANCH   1  15
TORSDOF 4
ENDMDL
MODEL 6
REMARK VINA RESULT:      -5.6      1.817      3.370
REMARK  Name = 
REMARK  8 active torsions:
REMARK  status: ('A' for Active; 'I' for Inactive)
REMARK    1  A    between atoms: C_1  and  C_2
REMARK    2  A    between atoms: C_2  and  C_3
REMARK    3  A    between atoms: C_3  and  N_4
REMARK    4  A    between atoms: C_5  and  C_6
REMARK    5  A    between atoms: C_9  and  O_10
REMARK    6  A    between atoms: O_10  and  C_11
REMARK    7  A    between atoms: C_14  and  O_15
REMARK    8  A    between atoms: O_15  and  C_16
REMARK                            x       y       z     vdW  Elec       q    Type
REMARK                         _______ _______ _______ _____ _____    ______ ____
ROOT
ATOM      1  N   UNL     1       4.196   4.201  18.463  0.00  0.00    +0.000 N 
ATOM      2  C   UNL     1       4.789   4.632  17.354  0.00  0.00    +0.000 A 
ATOM      3  C   UNL     1       5.698   3.896  16.432  0.00  0.00    +0.000 C 
ATOM      4  S   UNL     1       4.384   6.249  17.014  0.00  0.00    +0.000 S 
ATOM      5  C   UNL     1       3.365   6.359  18.400  0.00  0.00    +0.000 A 
ATOM      6  C   UNL     1       2.618   7.482  18.812  0.00  0.00    +0.000 A 
ATOM      7  C   UNL     1       1.859   7.350  19.972  0.00  0.00    +0.000 A 
ATOM      8  C   UNL     1       1.834   6.155  20.683  0.00  0.00    +0.000 A 
ATOM      9  C   UNL     1       2.570   5.026  20.266  0.00  0.00    +0.000 A 
ATOM     10  C   UNL     1       3.367   5.149  19.089  0.00  0.00    +0.000 A 
ENDROOT
BRANCH   6  11
ATOM     11  O   UNL     1       2.694   8.608  18.041  0.00  0.00    +0.000 OA
ATOM     12  C   UNL     1       1.528   9.417  17.928  0.00  0.00    +0.000 C 
ENDBRANCH   6  11
BRANCH   9  13
ATOM     13  O   UNL     1       2.542   3.832  20.944  0.00  0.00    +0.000 OA
ATOM     14  C   UNL     1       1.276   3.174  21.066  0.00  0.00    +0.000 C 
ENDBRANCH   9  13
BRANCH   1  15
ATOM     15  C   UNL     1       4.397   2.833  18.962  0.00  0.00    +0.000 C 
BRANCH  15  17
ATOM     16  C   UNL     1       2.272   2.430  17.664  0.00  0.00    +0.000 C 
ATOM     17  C   UNL     1       3.568   1.821  18.173  0.00  0.00    +0.000 C 
ENDBRANCH  15  17
ENDBRANCH   1  15
TORSDOF 4
ENDMDL
MODEL 7
REMARK VINA RESULT:      -5.4      1.817      3.935
REMARK  Name = 
REMARK  8 active torsions:
REMARK  status: ('A' for Active; 'I' for Inactive)
REMARK    1  A    between atoms: C_1  and  C_2
REMARK    2  A    between atoms: C_2  and  C_3
REMARK    3  A    between atoms: C_3  and  N_4
REMARK    4  A    between atoms: C_5  and  C_6
REMARK    5  A    between atoms: C_9  and  O_10
REMARK    6  A    between atoms: O_10  and  C_11
REMARK    7  A    between atoms: C_14  and  O_15
REMARK    8  A    between atoms: O_15  and  C_16
REMARK                            x       y       z     vdW  Elec       q    Type
REMARK                         _______ _______ _______ _____ _____    ______ ____
ROOT
ATOM      1  N   UNL     1       4.618   5.209  17.312  0.00  0.00    +0.000 N 
ATOM      2  C   UNL     1       4.562   6.393  16.711  0.00  0.00    +0.000 A 
ATOM      3  C   UNL     1       5.244   6.845  15.467  0.00  0.00    +0.000 C 
ATOM      4  S   UNL     1       3.538   7.470  17.540  0.00  0.00    +0.000 S 
ATOM      5  C   UNL     1       3.149   6.290  18.735  0.00  0.00    +0.000 A 
ATOM      6  C   UNL     1       2.282   6.456  19.835  0.00  0.00    +0.000 A 
ATOM      7  C   UNL     1       2.113   5.363  20.681  0.00  0.00    +0.000 A 
ATOM      8  C   UNL     1       2.764   4.159  20.440  0.00  0.00    +0.000 A 
ATOM      9  C   UNL     1       3.622   3.986  19.334  0.00  0.00    +0.000 A 
ATOM     10  C   UNL     1       3.820   5.100  18.466  0.00  0.00    +0.000 A 
ENDROOT
BRANCH   6  11
ATOM     11  O   UNL     1       1.675   7.671  19.982  0.00  0.00    +0.000 OA
ATOM     12  C   UNL     1       1.241   8.045  21.285  0.00  0.00    +0.000 C 
ENDBRANCH   6  11
BRANCH   9  13
ATOM     13  O   UNL     1       4.258   2.798  19.068  0.00  0.00    +0.000 OA
ATOM     14  C   UNL     1       3.446   1.697  18.645  0.00  0.00    +0.000 C 
ENDBRANCH   9  13
BRANCH   1  15
ATOM     15  C   UNL     1       5.442   4.114  16.780  0.00  0.00    +0.000 C 
BRANCH  15  17
ATOM     16  C   UNL     1       7.460   4.692  18.178  0.00  0.00    +0.000 C 
ATOM     17  C   UNL     1       6.925   4.481  16.773  0.00  0.00    +0.000 C 
ENDBRANCH  15  17
ENDBRANCH   1  15
TORSDOF 4
ENDMDL
MODEL 8
REMARK VINA RESULT:      -5.3      1.939      3.572
REMARK  Name = 
REMARK  8 active torsions:
REMARK  status: ('A' for Active; 'I' for Inactive)
REMARK    1  A    between atoms: C_1  and  C_2
REMARK    2  A    between atoms: C_2  and  C_3
REMARK    3  A    between atoms: C_3  and  N_4
REMARK    4  A    between atoms: C_5  and  C_6
REMARK    5  A    between atoms: C_9  and  O_10
REMARK    6  A    between atoms: O_10  and  C_11
REMARK    7  A    between atoms: C_14  and  O_15
REMARK    8  A    between atoms: O_15  and  C_16
REMARK                            x       y       z     vdW  Elec       q    Type
REMARK                         _______ _______ _______ _____ _____    ______ ____
ROOT
ATOM      1  N   UNL     1       4.039   5.071  18.297  0.00  0.00    +0.000 N 
ATOM      2  C   UNL     1       4.424   5.852  17.294  0.00  0.00    +0.000 A 
ATOM      3  C   UNL     1       5.352   5.544  16.171  0.00  0.00    +0.000 C 
ATOM      4  S   UNL     1       3.695   7.387  17.378  0.00  0.00    +0.000 S 
ATOM      5  C   UNL     1       2.822   6.972  18.804  0.00  0.00    +0.000 A 
ATOM      6  C   UNL     1       1.928   7.797  19.518  0.00  0.00    +0.000 A 
ATOM      7  C   UNL     1       1.330   7.255  20.653  0.00  0.00    +0.000 A 
ATOM      8  C   UNL     1       1.599   5.951  21.054  0.00  0.00    +0.000 A 
ATOM      9  C   UNL     1       2.484   5.119  20.336  0.00  0.00    +0.000 A 
ATOM     10  C   UNL     1       3.118   5.664  19.180  0.00  0.00    +0.000 A 
ENDROOT
BRANCH   6  11
ATOM     11  O   UNL     1       1.715   9.059  19.039  0.00  0.00    +0.000 OA
ATOM     12  C   UNL     1       0.714   9.850  19.669  0.00  0.00    +0.000 C 
ENDBRANCH   6  11
BRANCH   9  13
ATOM     13  O   UNL     1       2.746   3.822  20.705  0.00  0.00    +0.000 OA
ATOM     14  C   UNL     1       1.652   3.047  21.208  0.00  0.00    +0.000 C 
ENDBRANCH   9  13
BRANCH   1  15
ATOM     15  C   UNL     1       4.538   3.695  18.438  0.00  0.00    +0.000 C 
BRANCH  15  17
ATOM     16  C   UNL     1       3.571   1.366  18.433  0.00  0.00    +0.000 C 
ATOM     17  C   UNL     1       3.646   2.696  17.704  0.00  0.00    +0.000 C 
ENDBRANCH  15  17
ENDBRANCH   1  15
TORSDOF 4
ENDMDL
MODEL 9
REMARK VINA RESULT:      -5.3      2.267      4.681
REMARK  Name = 
REMARK  8 active torsions:
REMARK  status: ('A' for Active; 'I' for Inactive)
REMARK    1  A    between atoms: C_1  and  C_2
REMARK    2  A    between atoms: C_2  and  C_3
REMARK    3  A    between atoms: C_3  and  N_4
REMARK    4  A    between atoms: C_5  and  C_6
REMARK    5  A    between atoms: C_9  and  O_10
REMARK    6  A    between atoms: O_10  and  C_11
REMARK    7  A    between atoms: C_14  and  O_15
REMARK    8  A    between atoms: O_15  and  C_16
REMARK                            x       y       z     vdW  Elec       q    Type
REMARK                         _______ _______ _______ _____ _____    ______ ____
ROOT
ATOM      1  N   UNL     1       5.137   5.847  18.060  0.00  0.00    +0.000 N 
ATOM      2  C   UNL     1       5.897   4.785  18.299  0.00  0.00    +0.000 A 
ATOM      3  C   UNL     1       7.230   4.440  17.731  0.00  0.00    +0.000 C 
ATOM      4  S   UNL     1       5.176   3.740  19.431  0.00  0.00    +0.000 S 
ATOM      5  C   UNL     1       3.805   4.767  19.611  0.00  0.00    +0.000 A 
ATOM      6  C   UNL     1       2.693   4.553  20.453  0.00  0.00    +0.000 A 
ATOM      7  C   UNL     1       1.690   5.518  20.439  0.00  0.00    +0.000 A 
ATOM      8  C   UNL     1       1.791   6.650  19.637  0.00  0.00    +0.000 A 
ATOM      9  C   UNL     1       2.907   6.873  18.804  0.00  0.00    +0.000 A 
ATOM     10  C   UNL     1       3.936   5.885  18.792  0.00  0.00    +0.000 A 
ENDROOT
BRANCH   6  11
ATOM     11  O   UNL     1       2.689   3.419  21.216  0.00  0.00    +0.000 OA
ATOM     12  C   UNL     1       1.444   2.761  21.423  0.00  0.00    +0.000 C 
ENDBRANCH   6  11
BRANCH   9  13
ATOM     13  O   UNL     1       3.035   7.994  18.020  0.00  0.00    +0.000 OA
ATOM     14  C   UNL     1       1.895   8.855  17.912  0.00  0.00    +0.000 C 
ENDBRANCH   9  13
BRANCH   1  15
ATOM     15  C   UNL     1       5.551   6.893  17.112  0.00  0.00    +0.000 C 
BRANCH  15  17
ATOM     16  C   UNL     1       5.628   5.524  14.995  0.00  0.00    +0.000 C 
ATOM     17  C   UNL     1       4.946   6.666  15.728  0.00  0.00    +0.000 C 
ENDBRANCH  15  17
ENDBRANCH   1  15
TORSDOF 4
ENDMDL
