MODEL 1
REMARK VINA RESULT:      -7.6      0.000      0.000
REMARK  Name = 
REMARK  6 active torsions:
REMARK  status: ('A' for Active; 'I' for Inactive)
REMARK    1  A    between atoms: C_1  and  C_2
REMARK    2  A    between atoms: C_2  and  C_3
REMARK    3  A    between atoms: C_3  and  C_4
REMARK    4  A    between atoms: C_4  and  N_5
REMARK    5  A    between atoms: C_6  and  O_8
REMARK    6  A    between atoms: O_8  and  C_9
REMARK                            x       y       z     vdW  Elec       q    Type
REMARK                         _______ _______ _______ _____ _____    ______ ____
ROOT
ATOM      1  C   UNL     1       3.902   3.661  18.813  0.00  0.00    +0.000 C 
ATOM      2  C   UNL     1       2.795   4.738  18.717  0.00  0.00    +0.000 C 
ATOM      3  C   UNL     1       1.566   4.139  17.995  0.00  0.00    +0.000 C 
ATOM      4  C   UNL     1       1.032   2.928  18.779  0.00  0.00    +0.000 C 
ATOM      5  C   UNL     1       0.618   3.406  20.180  0.00  0.00    +0.000 C 
ATOM      6  C   UNL     1       1.836   3.995  20.918  0.00  0.00    +0.000 C 
ATOM      7  C   UNL     1       2.385   5.192  20.124  0.00  0.00    +0.000 C 
ATOM      8  C   UNL     1       2.939   2.926  21.026  0.00  0.00    +0.000 C 
ATOM      9  C   UNL     1       3.364   2.458  19.622  0.00  0.00    +0.000 C 
ATOM     10  C   UNL     1       2.131   1.859  18.917  0.00  0.00    +0.000 C 
ENDROOT
BRANCH   1  11
ATOM     11  O   UNL     1       4.160   3.240  17.461  0.00  0.00    +0.000 OA
BRANCH  11  13
ATOM     12  N   UNL     1       6.185   4.033  17.571  0.00  0.00    +0.000 N 
ATOM     13  C   UNL     1       5.110   3.892  16.758  0.00  0.00    +0.000 C 
ATOM     14  O   UNL     1       5.027   4.217  15.581  0.00  0.00    +0.000 OA
ATOM     15  H   UNL     1       6.213   3.325  18.290  0.00  0.00    +0.000 HD
BRANCH  12  16
ATOM     16  C   UNL     1       7.396   4.721  17.205  0.00  0.00    +0.000 C 
BRANCH  16  17
ATOM     17  C   UNL     1       7.156   6.231  17.118  0.00  0.00    +0.000 C 
BRANCH  17  19
ATOM     18  C   UNL     1       8.074   8.466  17.865  0.00  0.00    +0.000 C 
ATOM     19  C   UNL     1       7.844   7.011  18.244  0.00  0.00    +0.000 C 
ENDBRANCH  17  19
ENDBRANCH  16  17
ENDBRANCH  12  16
ENDBRANCH  11  13
ENDBRANCH   1  11
TORSDOF 5
ENDMDL
MODEL 2
REMARK VINA RESULT:      -7.6      1.605      2.811
REMARK  Name = 
REMARK  6 active torsions:
REMARK  status: ('A' for Active; 'I' for Inactive)
REMARK    1  A    between atoms: C_1  and  C_2
REMARK    2  A    between atoms: C_2  and  C_3
REMARK    3  A    between atoms: C_3  and  C_4
REMARK    4  A    between atoms: C_4  and  N_5
REMARK    5  A    between atoms: C_6  and  O_8
REMARK    6  A    between atoms: O_8  and  C_9
REMARK                            x       y       z     vdW  Elec       q    Type
REMARK                         _______ _______ _______ _____ _____    ______ ____
ROOT
ATOM      1  C   UNL     1       4.037   3.504  18.865  0.00  0.00    +0.000 C 
ATOM      2  C   UNL     1       3.283   2.327  19.527  0.00  0.00    +0.000 C 
ATOM      3  C   UNL     1       2.868   2.732  20.960  0.00  0.00    +0.000 C 
ATOM      4  C   UNL     1       1.948   3.965  20.914  0.00  0.00    +0.000 C 
ATOM      5  C   UNL     1       0.695   3.599  20.104  0.00  0.00    +0.000 C 
ATOM      6  C   UNL     1       1.090   3.204  18.668  0.00  0.00    +0.000 C 
ATOM      7  C   UNL     1       2.027   1.986  18.713  0.00  0.00    +0.000 C 
ATOM      8  C   UNL     1       1.833   4.375  17.998  0.00  0.00    +0.000 C 
ATOM      9  C   UNL     1       3.098   4.731  18.802  0.00  0.00    +0.000 C 
ATOM     10  C   UNL     1       2.668   5.138  20.226  0.00  0.00    +0.000 C 
ENDROOT
BRANCH   1  11
ATOM     11  O   UNL     1       5.143   3.804  19.737  0.00  0.00    +0.000 OA
BRANCH  11  13
ATOM     12  N   UNL     1       6.396   4.058  17.974  0.00  0.00    +0.000 N 
ATOM     13  C   UNL     1       6.180   4.506  19.234  0.00  0.00    +0.000 C 
ATOM     14  O   UNL     1       6.755   5.428  19.798  0.00  0.00    +0.000 OA
ATOM     15  H   UNL     1       5.565   3.655  17.567  0.00  0.00    +0.000 HD
BRANCH  12  16
ATOM     16  C   UNL     1       7.452   4.526  17.115  0.00  0.00    +0.000 C 
BRANCH  16  17
ATOM     17  C   UNL     1       7.019   5.783  16.356  0.00  0.00    +0.000 C 
BRANCH  17  19
ATOM     18  C   UNL     1       4.698   6.790  16.355  0.00  0.00    +0.000 C 
ATOM     19  C   UNL     1       5.591   5.687  15.807  0.00  0.00    +0.000 C 
ENDBRANCH  17  19
ENDBRANCH  16  17
ENDBRANCH  12  16
ENDBRANCH  11  13
ENDBRANCH   1  11
TORSDOF 5
ENDMDL
MODEL 3
REMARK VINA RESULT:      -7.5      1.666      2.527
REMARK  Name = 
REMARK  6 active torsions:
REMARK  status: ('A' for Active; 'I' for Inactive)
REMARK    1  A    between atoms: C_1  and  C_2
REMARK    2  A    between atoms: C_2  and  C_3
REMARK    3  A    between atoms: C_3  and  C_4
REMARK    4  A    between atoms: C_4  and  N_5
REMARK    5  A    between atoms: C_6  and  O_8
REMARK    6  A    between atoms: O_8  and  C_9
REMARK                            x       y       z     vdW  Elec       q    Type
REMARK                         _______ _______ _______ _____ _____    ______ ____
ROOT
ATOM      1  C   UNL     1       3.938   3.944  19.500  0.00  0.00    +0.000 C 
ATOM      2  C   UNL     1       2.762   4.862  19.091  0.00  0.00    +0.000 C 
ATOM      3  C   UNL     1       1.938   4.168  17.982  0.00  0.00    +0.000 C 
ATOM      4  C   UNL     1       1.383   2.829  18.499  0.00  0.00    +0.000 C 
ATOM      5  C   UNL     1       0.475   3.119  19.704  0.00  0.00    +0.000 C 
ATOM      6  C   UNL     1       1.284   3.801  20.824  0.00  0.00    +0.000 C 
ATOM      7  C   UNL     1       1.859   5.128  20.303  0.00  0.00    +0.000 C 
ATOM      8  C   UNL     1       2.451   2.888  21.245  0.00  0.00    +0.000 C 
ATOM      9  C   UNL     1       3.369   2.610  20.039  0.00  0.00    +0.000 C 
ATOM     10  C   UNL     1       2.536   1.913  18.946  0.00  0.00    +0.000 C 
ENDROOT
BRANCH   1  11
ATOM     11  O   UNL     1       4.675   3.685  18.292  0.00  0.00    +0.000 OA
BRANCH  11  13
ATOM     12  N   UNL     1       6.140   4.158  16.751  0.00  0.00    +0.000 N 
ATOM     13  C   UNL     1       5.718   4.489  17.995  0.00  0.00    +0.000 C 
ATOM     14  O   UNL     1       6.139   5.398  18.699  0.00  0.00    +0.000 OA
ATOM     15  H   UNL     1       5.406   3.736  16.201  0.00  0.00    +0.000 HD
BRANCH  12  16
ATOM     16  C   UNL     1       7.269   4.758  16.089  0.00  0.00    +0.000 C 
BRANCH  16  17
ATOM     17  C   UNL     1       7.072   4.756  14.571  0.00  0.00    +0.000 C 
BRANCH  17  19
ATOM     18  C   UNL     1       5.896   3.548  12.685  0.00  0.00    +0.000 C 
ATOM     19  C   UNL     1       5.809   4.005  14.133  0.00  0.00    +0.000 C 
ENDBRANCH  17  19
ENDBRANCH  16  17
ENDBRANCH  12  16
ENDBRANCH  11  13
ENDBRANCH   1  11
TORSDOF 5
ENDMDL
MODEL 4
REMARK VINA RESULT:      -7.5      1.692      3.175
REMARK  Name = 
REMARK  6 active torsions:
REMARK  status: ('A' for Active; 'I' for Inactive)
REMARK    1  A    between atoms: C_1  and  C_2
REMARK    2  A    between atoms: C_2  and  C_3
REMARK    3  A    between atoms: C_3  and  C_4
REMARK    4  A    between atoms: C_4  and  N_5
REMARK    5  A    between atoms: C_6  and  O_8
REMARK    6  A    between atoms: O_8  and  C_9
REMARK                            x       y       z     vdW  Elec       q    Type
REMARK                         _______ _______ _______ _____ _____    ______ ____
ROOT
ATOM      1  C   UNL     1       3.863   4.333  18.652  0.00  0.00    +0.000 C 
ATOM      2  C   UNL     1       3.668   2.926  19.264  0.00  0.00    +0.000 C 
ATOM      3  C   UNL     1       3.113   3.070  20.700  0.00  0.00    +0.000 C 
ATOM      4  C   UNL     1       1.761   3.805  20.671  0.00  0.00    +0.000 C 
ATOM      5  C   UNL     1       0.781   2.976  19.825  0.00  0.00    +0.000 C 
ATOM      6  C   UNL     1       1.315   2.833  18.387  0.00  0.00    +0.000 C 
ATOM      7  C   UNL     1       2.676   2.119  18.416  0.00  0.00    +0.000 C 
ATOM      8  C   UNL     1       1.502   4.230  17.767  0.00  0.00    +0.000 C 
ATOM      9  C   UNL     1       2.496   5.055  18.606  0.00  0.00    +0.000 C 
ATOM     10  C   UNL     1       1.926   5.195  20.031  0.00  0.00    +0.000 C 
ENDROOT
BRANCH   1  11
ATOM     11  O   UNL     1       4.736   5.038  19.554  0.00  0.00    +0.000 OA
BRANCH  11  13
ATOM     12  N   UNL     1       5.950   5.735  17.886  0.00  0.00    +0.000 N 
ATOM     13  C   UNL     1       6.004   5.277  19.160  0.00  0.00    +0.000 C 
ATOM     14  O   UNL     1       7.000   5.170  19.864  0.00  0.00    +0.000 OA
ATOM     15  H   UNL     1       5.061   6.166  17.675  0.00  0.00    +0.000 HD
BRANCH  12  16
ATOM     16  C   UNL     1       7.104   6.061  17.089  0.00  0.00    +0.000 C 
BRANCH  16  17
ATOM     17  C   UNL     1       7.154   5.196  15.827  0.00  0.00    +0.000 C 
BRANCH  17  19
ATOM     18  C   UNL     1       5.829   3.974  14.052  0.00  0.00    +0.000 C 
ATOM     19  C   UNL     1       5.771   4.961  15.208  0.00  0.00    +0.000 C 
ENDBRANCH  17  19
ENDBRANCH  16  17
ENDBRANCH  12  16
ENDBRANCH  11  13
ENDBRANCH   1  11
TORSDOF 5
ENDMDL
MODEL 5
REMARK VINA RESULT:      -7.4      1.300      1.589
REMARK  Name = 
REMARK  6 active torsions:
REMARK  status: ('A' for Active; 'I' for Inactive)
REMARK    1  A    between atoms: C_1  and  C_2
REMARK    2  A    between atoms: C_2  and  C_3
REMARK    3  A    between atoms: C_3  and  C_4
REMARK    4  A    between atoms: C_4  and  N_5
REMARK    5  A    between atoms: C_6  and  O_8
REMARK    6  A    between atoms: O_8  and  C_9
REMARK                            x       y       z     vdW  Elec       q    Type
REMARK                         _______ _______ _______ _____ _____    ______ ____
ROOT
ATOM      1  C   UNL     1       3.613   4.560  19.580  0.00  0.00    +0.000 C 
ATOM      2  C   UNL     1       2.173   5.053  19.301  0.00  0.00    +0.000 C 
ATOM      3  C   UNL     1       1.619   4.322  18.056  0.00  0.00    +0.000 C 
ATOM      4  C   UNL     1       1.600   2.803  18.302  0.00  0.00    +0.000 C 
ATOM      5  C   UNL     1       0.687   2.523  19.506  0.00  0.00    +0.000 C 
ATOM      6  C   UNL     1       1.233   3.235  20.759  0.00  0.00    +0.000 C 
ATOM      7  C   UNL     1       1.274   4.751  20.507  0.00  0.00    +0.000 C 
ATOM      8  C   UNL     1       2.663   2.743  21.050  0.00  0.00    +0.000 C 
ATOM      9  C   UNL     1       3.580   3.038  19.848  0.00  0.00    +0.000 C 
ATOM     10  C   UNL     1       3.019   2.298  18.618  0.00  0.00    +0.000 C 
ENDROOT
BRANCH   1  11
ATOM     11  O   UNL     1       4.355   4.808  18.371  0.00  0.00    +0.000 OA
BRANCH  11  13
ATOM     12  N   UNL     1       6.069   5.809  17.474  0.00  0.00    +0.000 N 
ATOM     13  C   UNL     1       5.693   4.963  18.464  0.00  0.00    +0.000 C 
ATOM     14  O   UNL     1       6.406   4.485  19.336  0.00  0.00    +0.000 OA
ATOM     15  H   UNL     1       5.315   6.415  17.186  0.00  0.00    +0.000 HD
BRANCH  12  16
ATOM     16  C   UNL     1       7.430   6.192  17.206  0.00  0.00    +0.000 C 
BRANCH  16  17
ATOM     17  C   UNL     1       7.906   7.244  18.211  0.00  0.00    +0.000 C 
BRANCH  17  19
ATOM     18  C   UNL     1       8.710   9.632  18.434  0.00  0.00    +0.000 C 
ATOM     19  C   UNL     1       7.808   8.675  17.670  0.00  0.00    +0.000 C 
ENDBRANCH  17  19
ENDBRANCH  16  17
ENDBRANCH  12  16
ENDBRANCH  11  13
ENDBRANCH   1  11
TORSDOF 5
ENDMDL
MODEL 6
REMARK VINA RESULT:      -7.4      1.730      5.406
REMARK  Name = 
REMARK  6 active torsions:
REMARK  status: ('A' for Active; 'I' for Inactive)
REMARK    1  A    between atoms: C_1  and  C_2
REMARK    2  A    between atoms: C_2  and  C_3
REMARK    3  A    between atoms: C_3  and  C_4
REMARK    4  A    between atoms: C_4  and  N_5
REMARK    5  A    between atoms: C_6  and  O_8
REMARK    6  A    between atoms: O_8  and  C_9
REMARK                            x       y       z     vdW  Elec       q    Type
REMARK                         _______ _______ _______ _____ _____    ______ ____
ROOT
ATOM      1  C   UNL     1       4.920   3.997  17.485  0.00  0.00    +0.000 C 
ATOM      2  C   UNL     1       6.035   4.288  16.453  0.00  0.00    +0.000 C 
ATOM      3  C   UNL     1       5.666   5.557  15.651  0.00  0.00    +0.000 C 
ATOM      4  C   UNL     1       5.526   6.759  16.602  0.00  0.00    +0.000 C 
ATOM      5  C   UNL     1       6.875   6.974  17.307  0.00  0.00    +0.000 C 
ATOM      6  C   UNL     1       7.251   5.721  18.120  0.00  0.00    +0.000 C 
ATOM      7  C   UNL     1       7.370   4.514  17.175  0.00  0.00    +0.000 C 
ATOM      8  C   UNL     1       6.151   5.430  19.157  0.00  0.00    +0.000 C 
ATOM      9  C   UNL     1       4.802   5.200  18.450  0.00  0.00    +0.000 C 
ATOM     10  C   UNL     1       4.445   6.475  17.661  0.00  0.00    +0.000 C 
ENDROOT
BRANCH   1  11
ATOM     11  O   UNL     1       3.701   3.883  16.727  0.00  0.00    +0.000 OA
BRANCH  11  13
ATOM     12  N   UNL     1       2.912   2.603  18.302  0.00  0.00    +0.000 N 
ATOM     13  C   UNL     1       2.572   3.536  17.381  0.00  0.00    +0.000 C 
ATOM     14  O   UNL     1       1.469   4.041  17.213  0.00  0.00    +0.000 OA
ATOM     15  H   UNL     1       3.881   2.673  18.574  0.00  0.00    +0.000 HD
BRANCH  12  16
ATOM     16  C   UNL     1       1.975   1.943  19.174  0.00  0.00    +0.000 C 
BRANCH  16  17
ATOM     17  C   UNL     1       1.981   2.587  20.563  0.00  0.00    +0.000 C 
BRANCH  17  19
ATOM     18  C   UNL     1       1.859   5.109  20.726  0.00  0.00    +0.000 C 
ATOM     19  C   UNL     1       1.065   3.813  20.657  0.00  0.00    +0.000 C 
ENDBRANCH  17  19
ENDBRANCH  16  17
ENDBRANCH  12  16
ENDBRANCH  11  13
ENDBRANCH   1  11
TORSDOF 5
ENDMDL
MODEL 7
REMARK VINA RESULT:      -7.4      1.742      5.457
REMARK  Name = 
REMARK  6 active torsions:
REMARK  status: ('A' for Active; 'I' for Inactive)
REMARK    1  A    between atoms: C_1  and  C_2
REMARK    2  A    between atoms: C_2  and  C_3
REMARK    3  A    between atoms: C_3  and  C_4
REMARK    4  A    between atoms: C_4  and  N_5
REMARK    5  A    between atoms: C_6  and  O_8
REMARK    6  A    between atoms: O_8  and  C_9
REMARK                            x       y       z     vdW  Elec       q    Type
REMARK                         _______ _______ _______ _____ _____    ______ ____
ROOT
ATOM      1  C   UNL     1       5.204   3.816  17.717  0.00  0.00    +0.000 C 
ATOM      2  C   UNL     1       6.070   4.269  16.518  0.00  0.00    +0.000 C 
ATOM      3  C   UNL     1       5.369   5.446  15.802  0.00  0.00    +0.000 C 
ATOM      4  C   UNL     1       5.190   6.624  16.776  0.00  0.00    +0.000 C 
ATOM      5  C   UNL     1       6.583   7.071  17.249  0.00  0.00    +0.000 C 
ATOM      6  C   UNL     1       7.291   5.911  17.976  0.00  0.00    +0.000 C 
ATOM      7  C   UNL     1       7.449   4.725  17.012  0.00  0.00    +0.000 C 
ATOM      8  C   UNL     1       6.439   5.461  19.178  0.00  0.00    +0.000 C 
ATOM      9  C   UNL     1       5.050   4.999  18.701  0.00  0.00    +0.000 C 
ATOM     10  C   UNL     1       4.362   6.184  17.995  0.00  0.00    +0.000 C 
ENDROOT
BRANCH   1  11
ATOM     11  O   UNL     1       3.913   3.489  17.170  0.00  0.00    +0.000 OA
BRANCH  11  13
ATOM     12  N   UNL     1       1.931   3.108  17.989  0.00  0.00    +0.000 N 
ATOM     13  C   UNL     1       3.162   2.569  17.812  0.00  0.00    +0.000 C 
ATOM     14  O   UNL     1       3.519   1.434  18.099  0.00  0.00    +0.000 OA
ATOM     15  H   UNL     1       1.726   3.820  17.304  0.00  0.00    +0.000 HD
BRANCH  12  16
ATOM     16  C   UNL     1       0.850   2.454  18.679  0.00  0.00    +0.000 C 
BRANCH  16  17
ATOM     17  C   UNL     1       0.820   2.866  20.153  0.00  0.00    +0.000 C 
BRANCH  17  19
ATOM     18  C   UNL     1       2.338   4.585  21.219  0.00  0.00    +0.000 C 
ATOM     19  C   UNL     1       1.102   4.358  20.364  0.00  0.00    +0.000 C 
ENDBRANCH  17  19
ENDBRANCH  16  17
ENDBRANCH  12  16
ENDBRANCH  11  13
ENDBRANCH   1  11
TORSDOF 5
ENDMDL
MODEL 8
REMARK VINA RESULT:      -7.3      1.746      2.831
REMARK  Name = 
REMARK  6 active torsions:
REMARK  status: ('A' for Active; 'I' for Inactive)
REMARK    1  A    between atoms: C_1  and  C_2
REMARK    2  A    between atoms: C_2  and  C_3
REMARK    3  A    between atoms: C_3  and  C_4
REMARK    4  A    between atoms: C_4  and  N_5
REMARK    5  A    between atoms: C_6  and  O_8
REMARK    6  A    between atoms: O_8  and  C_9
REMARK                            x       y       z     vdW  Elec       q    Type
REMARK                         _______ _______ _______ _____ _____    ______ ____
ROOT
ATOM      1  C   UNL     1       4.085   3.869  19.671  0.00  0.00    +0.000 C 
ATOM      2  C   UNL     1       2.743   4.077  20.410  0.00  0.00    +0.000 C 
ATOM      3  C   UNL     1       1.779   4.871  19.498  0.00  0.00    +0.000 C 
ATOM      4  C   UNL     1       1.528   4.093  18.194  0.00  0.00    +0.000 C 
ATOM      5  C   UNL     1       0.892   2.741  18.556  0.00  0.00    +0.000 C 
ATOM      6  C   UNL     1       1.845   1.933  19.456  0.00  0.00    +0.000 C 
ATOM      7  C   UNL     1       2.116   2.719  20.750  0.00  0.00    +0.000 C 
ATOM      8  C   UNL     1       3.181   1.712  18.723  0.00  0.00    +0.000 C 
ATOM      9  C   UNL     1       3.826   3.067  18.374  0.00  0.00    +0.000 C 
ATOM     10  C   UNL     1       2.857   3.843  17.461  0.00  0.00    +0.000 C 
ENDROOT
BRANCH   1  11
ATOM     11  O   UNL     1       4.553   5.185  19.323  0.00  0.00    +0.000 OA
BRANCH  11  13
ATOM     12  N   UNL     1       5.751   5.900  17.650  0.00  0.00    +0.000 N 
ATOM     13  C   UNL     1       5.818   5.315  18.871  0.00  0.00    +0.000 C 
ATOM     14  O   UNL     1       6.830   5.027  19.497  0.00  0.00    +0.000 OA
ATOM     15  H   UNL     1       4.910   6.447  17.537  0.00  0.00    +0.000 HD
BRANCH  12  16
ATOM     16  C   UNL     1       6.892   6.169  16.814  0.00  0.00    +0.000 C 
BRANCH  16  17
ATOM     17  C   UNL     1       7.138   5.011  15.844  0.00  0.00    +0.000 C 
BRANCH  17  19
ATOM     18  C   UNL     1       6.174   3.911  13.779  0.00  0.00    +0.000 C 
ATOM     19  C   UNL     1       5.864   4.555  15.122  0.00  0.00    +0.000 C 
ENDBRANCH  17  19
ENDBRANCH  16  17
ENDBRANCH  12  16
ENDBRANCH  11  13
ENDBRANCH   1  11
TORSDOF 5
ENDMDL
MODEL 9
REMARK VINA RESULT:      -7.3      1.929      3.368
REMARK  Name = 
REMARK  6 active torsions:
REMARK  status: ('A' for Active; 'I' for Inactive)
REMARK    1  A    between atoms: C_1  and  C_2
REMARK    2  A    between atoms: C_2  and  C_3
REMARK    3  A    between atoms: C_3  and  C_4
REMARK    4  A    between atoms: C_4  and  N_5
REMARK    5  A    between atoms: C_6  and  O_8
REMARK    6  A    between atoms: O_8  and  C_9
REMARK                            x       y       z     vdW  Elec       q    Type
REMARK                         _______ _______ _______ _____ _____    ______ ____
ROOT
ATOM      1  C   UNL     1       3.981   3.953  18.247  0.00  0.00    +0.000 C 
ATOM      2  C   UNL     1       3.555   2.689  19.031  0.00  0.00    +0.000 C 
ATOM      3  C   UNL     1       3.342   3.062  20.517  0.00  0.00    +0.000 C 
ATOM      4  C   UNL     1       2.242   4.132  20.639  0.00  0.00    +0.000 C 
ATOM      5  C   UNL     1       0.940   3.550  20.066  0.00  0.00    +0.000 C 
ATOM      6  C   UNL     1       1.133   3.185  18.581  0.00  0.00    +0.000 C 
ATOM      7  C   UNL     1       2.247   2.132  18.455  0.00  0.00    +0.000 C 
ATOM      8  C   UNL     1       1.547   4.440  17.792  0.00  0.00    +0.000 C 
ATOM      9  C   UNL     1       2.860   5.014  18.357  0.00  0.00    +0.000 C 
ATOM     10  C   UNL     1       2.630   5.385  19.835  0.00  0.00    +0.000 C 
ENDROOT
BRANCH   1  11
ATOM     11  O   UNL     1       5.161   4.448  18.907  0.00  0.00    +0.000 OA
BRANCH  11  13
ATOM     12  N   UNL     1       5.992   4.543  16.897  0.00  0.00    +0.000 N 
ATOM     13  C   UNL     1       6.316   4.479  18.211  0.00  0.00    +0.000 C 
ATOM     14  O   UNL     1       7.439   4.524  18.697  0.00  0.00    +0.000 OA
ATOM     15  H   UNL     1       5.079   4.946  16.750  0.00  0.00    +0.000 HD
BRANCH  12  16
ATOM     16  C   UNL     1       6.951   4.546  15.822  0.00  0.00    +0.000 C 
BRANCH  16  17
ATOM     17  C   UNL     1       6.288   4.957  14.505  0.00  0.00    +0.000 C 
BRANCH  17  19
ATOM     18  C   UNL     1       6.738   3.790  12.306  0.00  0.00    +0.000 C 
ATOM     19  C   UNL     1       5.950   3.761  13.607  0.00  0.00    +0.000 C 
ENDBRANCH  17  19
ENDBRANCH  16  17
ENDBRANCH  12  16
ENDBRANCH  11  13
ENDBRANCH   1  11
TORSDOF 5
ENDMDL
