MODEL 1
REMARK VINA RESULT:      -7.9      0.000      0.000
REMARK  Name = 
REMARK  12 active torsions:
REMARK  status: ('A' for Active; 'I' for Inactive)
REMARK    1  A    between atoms: C_1  and  C_2
REMARK    2  A    between atoms: C_2  and  C_3
REMARK    3  A    between atoms: C_3  and  C_4
REMARK    4  A    between atoms: C_4  and  N_5
REMARK    5  A    between atoms: C_4  and  C_28
REMARK    6  A    between atoms: C_6  and  C_8
REMARK    7  A    between atoms: C_8  and  C_9
REMARK    8  A    between atoms: C_8  and  N_16
REMARK    9  A    between atoms: C_9  and  C_10
REMARK   10  A    between atoms: N_16  and  S_17
REMARK   11  A    between atoms: S_17  and  C_20
REMARK   12  A    between atoms: N_30  and  O_31
REMARK                            x       y       z     vdW  Elec       q    Type
REMARK                         _______ _______ _______ _____ _____    ______ ____
ROOT
ATOM      1  C   UNL     1       2.176   7.394  19.749  0.00  0.00    +0.000 C 
ENDROOT
BRANCH   1   3
ATOM      2  N   UNL     1       4.209   6.046  19.410  0.00  0.00    +0.000 N 
ATOM      3  C   UNL     1       3.101   6.599  18.801  0.00  0.00    +0.000 C 
ATOM      4  O   UNL     1       2.939   6.540  17.582  0.00  0.00    +0.000 OA
ATOM      5  H   UNL     1       4.172   5.854  20.404  0.00  0.00    +0.000 HD
BRANCH   2   6
ATOM      6  C   UNL     1       5.228   5.324  18.645  0.00  0.00    +0.000 C 
BRANCH   6   7
ATOM      7  C   UNL     1       4.810   3.850  18.586  0.00  0.00    +0.000 C 
ATOM      8  O   UNL     1       3.997   3.415  17.768  0.00  0.00    +0.000 OA
ATOM      9  N   UNL     1       5.361   3.052  19.561  0.00  0.00    +0.000 N 
ATOM     10  H   UNL     1       5.864   3.400  20.371  0.00  0.00    +0.000 HD
BRANCH   9  11
ATOM     11  O   UNL     1       4.858   1.734  19.639  0.00  0.00    +0.000 OA
ATOM     12  H   UNL     1       4.756   1.601  20.606  0.00  0.00    +0.000 HD
ENDBRANCH   9  11
ENDBRANCH   6   7
BRANCH   6  13
ATOM     13  C   UNL     1       6.586   5.456  19.354  0.00  0.00    +0.000 C 
BRANCH  13  15
ATOM     14  C   UNL     1       7.297   6.339  17.096  0.00  0.00    +0.000 C 
ATOM     15  C   UNL     1       7.609   6.299  18.584  0.00  0.00    +0.000 C 
ENDBRANCH  13  15
ENDBRANCH   6  13
ENDBRANCH   2   6
ENDBRANCH   1   3
BRANCH   1  16
ATOM     16  N   UNL     1       1.170   8.193  19.001  0.00  0.00    +0.000 NA
ATOM     17  H   UNL     1       0.234   7.805  18.910  0.00  0.00    +0.000 HD
BRANCH  16  18
ATOM     18  S   UNL     1       1.135   9.860  19.180  0.00  0.00    +0.000 S 
ATOM     19  O   UNL     1       1.244  10.101  20.600  0.00  0.00    +0.000 OA
ATOM     20  O   UNL     1       2.080  10.418  18.246  0.00  0.00    +0.000 OA
BRANCH  18  21
ATOM     21  C   UNL     1      -0.504  10.339  18.711  0.00  0.00    +0.000 A 
ATOM     22  C   UNL     1      -1.225  11.219  19.519  0.00  0.00    +0.000 A 
ATOM     23  C   UNL     1      -2.499  11.623  19.116  0.00  0.00    +0.000 A 
ATOM     24 CL   UNL     1      -3.394  12.722  20.093  0.00  0.00    +0.000 Cl
ATOM     25  C   UNL     1      -3.048  11.162  17.921  0.00  0.00    +0.000 A 
ATOM     26  C   UNL     1      -2.313  10.284  17.124  0.00  0.00    +0.000 A 
ATOM     27 CL   UNL     1      -2.985   9.700  15.651  0.00  0.00    +0.000 Cl
ATOM     28  C   UNL     1      -1.037   9.877  17.504  0.00  0.00    +0.000 A 
ENDBRANCH  18  21
ENDBRANCH  16  18
ENDBRANCH   1  16
BRANCH   1  29
ATOM     29  C   UNL     1       1.486   6.515  20.819  0.00  0.00    +0.000 C 
BRANCH  29  30
ATOM     30  C   UNL     1       1.640   5.026  20.609  0.00  0.00    +0.000 A 
ATOM     31  C   UNL     1       0.988   4.403  19.538  0.00  0.00    +0.000 A 
ATOM     32  C   UNL     1       0.916   3.014  19.471  0.00  0.00    +0.000 A 
ATOM     33  C   UNL     1       1.528   2.235  20.449  0.00  0.00    +0.000 A 
ATOM     34  C   UNL     1       2.267   2.844  21.462  0.00  0.00    +0.000 A 
ATOM     35  C   UNL     1       2.332   4.234  21.538  0.00  0.00    +0.000 A 
ENDBRANCH  29  30
ENDBRANCH   1  29
TORSDOF 11
ENDMDL
MODEL 2
REMARK VINA RESULT:      -7.9      4.691      7.833
REMARK  Name = 
REMARK  12 active torsions:
REMARK  status: ('A' for Active; 'I' for Inactive)
REMARK    1  A    between atoms: C_1  and  C_2
REMARK    2  A    between atoms: C_2  and  C_3
REMARK    3  A    between atoms: C_3  and  C_4
REMARK    4  A    between atoms: C_4  and  N_5
REMARK    5  A    between atoms: C_4  and  C_28
REMARK    6  A    between atoms: C_6  and  C_8
REMARK    7  A    between atoms: C_8  and  C_9
REMARK    8  A    between atoms: C_8  and  N_16
REMARK    9  A    between atoms: C_9  and  C_10
REMARK   10  A    between atoms: N_16  and  S_17
REMARK   11  A    between atoms: S_17  and  C_20
REMARK   12  A    between atoms: N_30  and  O_31
REMARK                            x       y       z     vdW  Elec       q    Type
REMARK                         _______ _______ _______ _____ _____    ______ ____
ROOT
ATOM      1  C   UNL     1       4.477   6.550  17.807  0.00  0.00    +0.000 C 
ENDROOT
BRANCH   1   3
ATOM      2  N   UNL     1       3.317   4.629  18.823  0.00  0.00    +0.000 N 
ATOM      3  C   UNL     1       4.418   5.458  18.897  0.00  0.00    +0.000 C 
ATOM      4  O   UNL     1       5.221   5.380  19.828  0.00  0.00    +0.000 OA
ATOM      5  H   UNL     1       2.854   4.516  17.929  0.00  0.00    +0.000 HD
BRANCH   2   6
ATOM      6  C   UNL     1       3.068   3.588  19.822  0.00  0.00    +0.000 C 
BRANCH   6   7
ATOM      7  C   UNL     1       3.978   2.398  19.494  0.00  0.00    +0.000 C 
ATOM      8  O   UNL     1       5.001   2.142  20.129  0.00  0.00    +0.000 OA
ATOM      9  N   UNL     1       3.604   1.671  18.388  0.00  0.00    +0.000 N 
ATOM     10  H   UNL     1       2.899   1.962  17.720  0.00  0.00    +0.000 HD
BRANCH   9  11
ATOM     11  O   UNL     1       4.519   0.682  17.961  0.00  0.00    +0.000 OA
ATOM     12  H   UNL     1       4.080   0.317  17.162  0.00  0.00    +0.000 HD
ENDBRANCH   9  11
ENDBRANCH   6   7
BRANCH   6  13
ATOM     13  C   UNL     1       1.593   3.156  19.750  0.00  0.00    +0.000 C 
BRANCH  13  15
ATOM     14  C   UNL     1       1.695   2.452  22.174  0.00  0.00    +0.000 C 
ATOM     15  C   UNL     1       0.878   3.161  21.105  0.00  0.00    +0.000 C 
ENDBRANCH  13  15
ENDBRANCH   6  13
ENDBRANCH   2   6
ENDBRANCH   1   3
BRANCH   1  16
ATOM     16  N   UNL     1       5.294   6.126  16.640  0.00  0.00    +0.000 NA
ATOM     17  H   UNL     1       6.139   6.656  16.440  0.00  0.00    +0.000 HD
BRANCH  16  18
ATOM     18  S   UNL     1       5.496   4.493  16.317  0.00  0.00    +0.000 S 
ATOM     19  O   UNL     1       6.570   4.057  17.179  0.00  0.00    +0.000 OA
ATOM     20  O   UNL     1       4.195   3.875  16.362  0.00  0.00    +0.000 OA
BRANCH  18  21
ATOM     21  C   UNL     1       6.120   4.425  14.660  0.00  0.00    +0.000 A 
ATOM     22  C   UNL     1       7.190   5.241  14.291  0.00  0.00    +0.000 A 
ATOM     23  C   UNL     1       7.700   5.145  12.995  0.00  0.00    +0.000 A 
ATOM     24 CL   UNL     1       9.032   6.132  12.529  0.00  0.00    +0.000 Cl
ATOM     25  C   UNL     1       7.157   4.247  12.079  0.00  0.00    +0.000 A 
ATOM     26  C   UNL     1       6.088   3.438  12.466  0.00  0.00    +0.000 A 
ATOM     27 CL   UNL     1       5.401   2.332  11.340  0.00  0.00    +0.000 Cl
ATOM     28  C   UNL     1       5.571   3.511  13.756  0.00  0.00    +0.000 A 
ENDBRANCH  18  21
ENDBRANCH  16  18
ENDBRANCH   1  16
BRANCH   1  29
ATOM     29  C   UNL     1       3.083   7.039  17.347  0.00  0.00    +0.000 C 
BRANCH  29  30
ATOM     30  C   UNL     1       2.438   8.058  18.258  0.00  0.00    +0.000 A 
ATOM     31  C   UNL     1       2.114   7.708  19.575  0.00  0.00    +0.000 A 
ATOM     32  C   UNL     1       1.306   8.541  20.344  0.00  0.00    +0.000 A 
ATOM     33  C   UNL     1       0.848   9.748  19.821  0.00  0.00    +0.000 A 
ATOM     34  C   UNL     1       1.250  10.153  18.550  0.00  0.00    +0.000 A 
ATOM     35  C   UNL     1       2.051   9.316  17.773  0.00  0.00    +0.000 A 
ENDBRANCH  29  30
ENDBRANCH   1  29
TORSDOF 11
ENDMDL
MODEL 3
REMARK VINA RESULT:      -7.8      1.461      1.738
REMARK  Name = 
REMARK  12 active torsions:
REMARK  status: ('A' for Active; 'I' for Inactive)
REMARK    1  A    between atoms: C_1  and  C_2
REMARK    2  A    between atoms: C_2  and  C_3
REMARK    3  A    between atoms: C_3  and  C_4
REMARK    4  A    between atoms: C_4  and  N_5
REMARK    5  A    between atoms: C_4  and  C_28
REMARK    6  A    between atoms: C_6  and  C_8
REMARK    7  A    between atoms: C_8  and  C_9
REMARK    8  A    between atoms: C_8  and  N_16
REMARK    9  A    between atoms: C_9  and  C_10
REMARK   10  A    between atoms: N_16  and  S_17
REMARK   11  A    between atoms: S_17  and  C_20
REMARK   12  A    between atoms: N_30  and  O_31
REMARK                            x       y       z     vdW  Elec       q    Type
REMARK                         _______ _______ _______ _____ _____    ______ ____
ROOT
ATOM      1  C   UNL     1       2.188   7.243  20.221  0.00  0.00    +0.000 C 
ENDROOT
BRANCH   1   3
ATOM      2  N   UNL     1       4.143   5.975  19.424  0.00  0.00    +0.000 N 
ATOM      3  C   UNL     1       2.970   6.602  19.054  0.00  0.00    +0.000 C 
ATOM      4  O   UNL     1       2.648   6.718  17.871  0.00  0.00    +0.000 OA
ATOM      5  H   UNL     1       4.236   5.641  20.376  0.00  0.00    +0.000 HD
BRANCH   2   6
ATOM      6  C   UNL     1       5.044   5.379  18.434  0.00  0.00    +0.000 C 
BRANCH   6   7
ATOM      7  C   UNL     1       4.779   3.869  18.412  0.00  0.00    +0.000 C 
ATOM      8  O   UNL     1       4.058   3.327  17.574  0.00  0.00    +0.000 OA
ATOM      9  N   UNL     1       5.357   3.165  19.443  0.00  0.00    +0.000 N 
ATOM     10  H   UNL     1       5.779   3.589  20.262  0.00  0.00    +0.000 HD
BRANCH   9  11
ATOM     11  O   UNL     1       4.986   1.806  19.547  0.00  0.00    +0.000 OA
ATOM     12  H   UNL     1       5.131   1.617  20.500  0.00  0.00    +0.000 HD
ENDBRANCH   9  11
ENDBRANCH   6   7
BRANCH   6  13
ATOM     13  C   UNL     1       6.501   5.652  18.842  0.00  0.00    +0.000 C 
BRANCH  13  15
ATOM     14  C   UNL     1       7.687   7.607  17.769  0.00  0.00    +0.000 C 
ATOM     15  C   UNL     1       7.393   6.117  17.687  0.00  0.00    +0.000 C 
ENDBRANCH  13  15
ENDBRANCH   6  13
ENDBRANCH   2   6
ENDBRANCH   1   3
BRANCH   1  16
ATOM     16  N   UNL     1       1.443   8.455  19.790  0.00  0.00    +0.000 NA
ATOM     17  H   UNL     1       0.914   8.398  18.922  0.00  0.00    +0.000 HD
BRANCH  16  18
ATOM     18  S   UNL     1       0.660   9.399  20.932  0.00  0.00    +0.000 S 
ATOM     19  O   UNL     1      -0.504   8.641  21.331  0.00  0.00    +0.000 OA
ATOM     20  O   UNL     1       1.645   9.828  21.893  0.00  0.00    +0.000 OA
BRANCH  18  21
ATOM     21  C   UNL     1       0.063  10.806  20.037  0.00  0.00    +0.000 A 
ATOM     22  C   UNL     1       0.736  12.024  20.134  0.00  0.00    +0.000 A 
ATOM     23  C   UNL     1       0.281  13.113  19.389  0.00  0.00    +0.000 A 
ATOM     24 CL   UNL     1       1.111  14.618  19.484  0.00  0.00    +0.000 Cl
ATOM     25  C   UNL     1      -0.828  12.991  18.554  0.00  0.00    +0.000 A 
ATOM     26  C   UNL     1      -1.489  11.766  18.467  0.00  0.00    +0.000 A 
ATOM     27 CL   UNL     1      -2.866  11.607  17.447  0.00  0.00    +0.000 Cl
ATOM     28  C   UNL     1      -1.044  10.666  19.195  0.00  0.00    +0.000 A 
ENDBRANCH  18  21
ENDBRANCH  16  18
ENDBRANCH   1  16
BRANCH   1  29
ATOM     29  C   UNL     1       1.246   6.256  20.950  0.00  0.00    +0.000 C 
BRANCH  29  30
ATOM     30  C   UNL     1       1.531   4.795  20.681  0.00  0.00    +0.000 A 
ATOM     31  C   UNL     1       0.959   4.169  19.566  0.00  0.00    +0.000 A 
ATOM     32  C   UNL     1       1.006   2.783  19.438  0.00  0.00    +0.000 A 
ATOM     33  C   UNL     1       1.659   2.015  20.400  0.00  0.00    +0.000 A 
ATOM     34  C   UNL     1       2.319   2.637  21.458  0.00  0.00    +0.000 A 
ATOM     35  C   UNL     1       2.264   4.024  21.594  0.00  0.00    +0.000 A 
ENDBRANCH  29  30
ENDBRANCH   1  29
TORSDOF 11
ENDMDL
MODEL 4
REMARK VINA RESULT:      -7.8      2.167      4.546
REMARK  Name = 
REMARK  12 active torsions:
REMARK  status: ('A' for Active; 'I' for Inactive)
REMARK    1  A    between atoms: C_1  and  C_2
REMARK    2  A    between atoms: C_2  and  C_3
REMARK    3  A    between atoms: C_3  and  C_4
REMARK    4  A    between atoms: C_4  and  N_5
REMARK    5  A    between atoms: C_4  and  C_28
REMARK    6  A    between atoms: C_6  and  C_8
REMARK    7  A    between atoms: C_8  and  C_9
REMARK    8  A    between atoms: C_8  and  N_16
REMARK    9  A    between atoms: C_9  and  C_10
REMARK   10  A    between atoms: N_16  and  S_17
REMARK   11  A    between atoms: S_17  and  C_20
REMARK   12  A    between atoms: N_30  and  O_31
REMARK                            x       y       z     vdW  Elec       q    Type
REMARK                         _______ _______ _______ _____ _____    ______ ____
ROOT
ATOM      1  C   UNL     1       2.855   7.055  18.036  0.00  0.00    +0.000 C 
ENDROOT
BRANCH   1   3
ATOM      2  N   UNL     1       2.453   4.656  18.418  0.00  0.00    +0.000 N 
ATOM      3  C   UNL     1       3.076   5.791  18.894  0.00  0.00    +0.000 C 
ATOM      4  O   UNL     1       3.668   5.795  19.975  0.00  0.00    +0.000 OA
ATOM      5  H   UNL     1       2.238   4.598  17.429  0.00  0.00    +0.000 HD
BRANCH   2   6
ATOM      6  C   UNL     1       2.498   3.387  19.148  0.00  0.00    +0.000 C 
BRANCH   6   7
ATOM      7  C   UNL     1       2.956   2.300  18.168  0.00  0.00    +0.000 C 
ATOM      8  O   UNL     1       2.393   2.084  17.095  0.00  0.00    +0.000 OA
ATOM      9  N   UNL     1       4.008   1.531  18.609  0.00  0.00    +0.000 N 
ATOM     10  H   UNL     1       4.364   1.534  19.558  0.00  0.00    +0.000 HD
BRANCH   9  11
ATOM     11  O   UNL     1       4.334   0.414  17.807  0.00  0.00    +0.000 OA
ATOM     12  H   UNL     1       3.857  -0.317  18.257  0.00  0.00    +0.000 HD
ENDBRANCH   9  11
ENDBRANCH   6   7
BRANCH   6  13
ATOM     13  C   UNL     1       1.094   3.056  19.682  0.00  0.00    +0.000 C 
BRANCH  13  15
ATOM     14  C   UNL     1       2.332   2.766  21.864  0.00  0.00    +0.000 C 
ATOM     15  C   UNL     1       0.992   3.066  21.210  0.00  0.00    +0.000 C 
ENDBRANCH  13  15
ENDBRANCH   6  13
ENDBRANCH   2   6
ENDBRANCH   1   3
BRANCH   1  16
ATOM     16  N   UNL     1       2.399   8.209  18.855  0.00  0.00    +0.000 NA
ATOM     17  H   UNL     1       3.057   8.599  19.525  0.00  0.00    +0.000 HD
BRANCH  16  18
ATOM     18  S   UNL     1       1.447   9.398  18.156  0.00  0.00    +0.000 S 
ATOM     19  O   UNL     1       2.370  10.392  17.658  0.00  0.00    +0.000 OA
ATOM     20  O   UNL     1       0.501   8.746  17.287  0.00  0.00    +0.000 OA
BRANCH  18  21
ATOM     21  C   UNL     1       0.580  10.148  19.507  0.00  0.00    +0.000 A 
ATOM     22  C   UNL     1      -0.206  11.279  19.282  0.00  0.00    +0.000 A 
ATOM     23  C   UNL     1      -0.919  11.833  20.346  0.00  0.00    +0.000 A 
ATOM     24 CL   UNL     1      -1.907  13.218  20.081  0.00  0.00    +0.000 Cl
ATOM     25  C   UNL     1      -0.855  11.268  21.618  0.00  0.00    +0.000 A 
ATOM     26  C   UNL     1      -0.065  10.137  21.826  0.00  0.00    +0.000 A 
ATOM     27 CL   UNL     1       0.030   9.436  23.395  0.00  0.00    +0.000 Cl
ATOM     28  C   UNL     1       0.646   9.563  20.775  0.00  0.00    +0.000 A 
ENDBRANCH  18  21
ENDBRANCH  16  18
ENDBRANCH   1  16
BRANCH   1  29
ATOM     29  C   UNL     1       4.085   7.446  17.183  0.00  0.00    +0.000 C 
BRANCH  29  30
ATOM     30  C   UNL     1       5.119   6.354  17.028  0.00  0.00    +0.000 A 
ATOM     31  C   UNL     1       6.298   6.400  17.783  0.00  0.00    +0.000 A 
ATOM     32  C   UNL     1       7.359   5.551  17.481  0.00  0.00    +0.000 A 
ATOM     33  C   UNL     1       7.239   4.622  16.449  0.00  0.00    +0.000 A 
ATOM     34  C   UNL     1       6.034   4.499  15.761  0.00  0.00    +0.000 A 
ATOM     35  C   UNL     1       4.973   5.355  16.055  0.00  0.00    +0.000 A 
ENDBRANCH  29  30
ENDBRANCH   1  29
TORSDOF 11
ENDMDL
MODEL 5
REMARK VINA RESULT:      -7.8      2.251      4.549
REMARK  Name = 
REMARK  12 active torsions:
REMARK  status: ('A' for Active; 'I' for Inactive)
REMARK    1  A    between atoms: C_1  and  C_2
REMARK    2  A    between atoms: C_2  and  C_3
REMARK    3  A    between atoms: C_3  and  C_4
REMARK    4  A    between atoms: C_4  and  N_5
REMARK    5  A    between atoms: C_4  and  C_28
REMARK    6  A    between atoms: C_6  and  C_8
REMARK    7  A    between atoms: C_8  and  C_9
REMARK    8  A    between atoms: C_8  and  N_16
REMARK    9  A    between atoms: C_9  and  C_10
REMARK   10  A    between atoms: N_16  and  S_17
REMARK   11  A    between atoms: S_17  and  C_20
REMARK   12  A    between atoms: N_30  and  O_31
REMARK                            x       y       z     vdW  Elec       q    Type
REMARK                         _______ _______ _______ _____ _____    ______ ____
ROOT
ATOM      1  C   UNL     1       2.842   7.061  18.067  0.00  0.00    +0.000 C 
ENDROOT
BRANCH   1   3
ATOM      2  N   UNL     1       2.427   4.663  18.441  0.00  0.00    +0.000 N 
ATOM      3  C   UNL     1       3.058   5.793  18.920  0.00  0.00    +0.000 C 
ATOM      4  O   UNL     1       3.653   5.790  19.999  0.00  0.00    +0.000 OA
ATOM      5  H   UNL     1       2.209   4.610  17.453  0.00  0.00    +0.000 HD
BRANCH   2   6
ATOM      6  C   UNL     1       2.467   3.391  19.167  0.00  0.00    +0.000 C 
BRANCH   6   7
ATOM      7  C   UNL     1       2.935   2.308  18.187  0.00  0.00    +0.000 C 
ATOM      8  O   UNL     1       2.375   2.087  17.113  0.00  0.00    +0.000 OA
ATOM      9  N   UNL     1       3.995   1.550  18.627  0.00  0.00    +0.000 N 
ATOM     10  H   UNL     1       4.351   1.557  19.577  0.00  0.00    +0.000 HD
BRANCH   9  11
ATOM     11  O   UNL     1       4.332   0.436  17.826  0.00  0.00    +0.000 OA
ATOM     12  H   UNL     1       4.399  -0.288  18.486  0.00  0.00    +0.000 HD
ENDBRANCH   9  11
ENDBRANCH   6   7
BRANCH   6  13
ATOM     13  C   UNL     1       1.059   3.056  19.686  0.00  0.00    +0.000 C 
BRANCH  13  15
ATOM     14  C   UNL     1       2.315   2.825  21.865  0.00  0.00    +0.000 C 
ATOM     15  C   UNL     1       0.954   3.014  21.214  0.00  0.00    +0.000 C 
ENDBRANCH  13  15
ENDBRANCH   6  13
ENDBRANCH   2   6
ENDBRANCH   1   3
BRANCH   1  16
ATOM     16  N   UNL     1       2.385   8.212  18.889  0.00  0.00    +0.000 NA
ATOM     17  H   UNL     1       3.045   8.604  19.558  0.00  0.00    +0.000 HD
BRANCH  16  18
ATOM     18  S   UNL     1       1.427   9.400  18.196  0.00  0.00    +0.000 S 
ATOM     19  O   UNL     1       2.346  10.392  17.686  0.00  0.00    +0.000 OA
ATOM     20  O   UNL     1       0.473   8.746  17.338  0.00  0.00    +0.000 OA
BRANCH  18  21
ATOM     21  C   UNL     1       0.574  10.154  19.553  0.00  0.00    +0.000 A 
ATOM     22  C   UNL     1       0.582   9.536  20.804  0.00  0.00    +0.000 A 
ATOM     23  C   UNL     1      -0.057  10.163  21.876  0.00  0.00    +0.000 A 
ATOM     24 CL   UNL     1      -0.040   9.423  23.430  0.00  0.00    +0.000 Cl
ATOM     25  C   UNL     1      -0.692  11.392  21.706  0.00  0.00    +0.000 A 
ATOM     26  C   UNL     1      -0.691  11.996  20.449  0.00  0.00    +0.000 A 
ATOM     27 CL   UNL     1      -1.482  13.508  20.225  0.00  0.00    +0.000 Cl
ATOM     28  C   UNL     1      -0.051  11.392  19.371  0.00  0.00    +0.000 A 
ENDBRANCH  18  21
ENDBRANCH  16  18
ENDBRANCH   1  16
BRANCH   1  29
ATOM     29  C   UNL     1       4.075   7.454  17.219  0.00  0.00    +0.000 C 
BRANCH  29  30
ATOM     30  C   UNL     1       5.084   6.345  17.021  0.00  0.00    +0.000 A 
ATOM     31  C   UNL     1       6.270   6.344  17.764  0.00  0.00    +0.000 A 
ATOM     32  C   UNL     1       7.310   5.482  17.425  0.00  0.00    +0.000 A 
ATOM     33  C   UNL     1       7.160   4.587  16.368  0.00  0.00    +0.000 A 
ATOM     34  C   UNL     1       5.946   4.511  15.689  0.00  0.00    +0.000 A 
ATOM     35  C   UNL     1       4.906   5.379  16.019  0.00  0.00    +0.000 A 
ENDBRANCH  29  30
ENDBRANCH   1  29
TORSDOF 11
ENDMDL
MODEL 6
REMARK VINA RESULT:      -7.7      4.691      7.902
REMARK  Name = 
REMARK  12 active torsions:
REMARK  status: ('A' for Active; 'I' for Inactive)
REMARK    1  A    between atoms: C_1  and  C_2
REMARK    2  A    between atoms: C_2  and  C_3
REMARK    3  A    between atoms: C_3  and  C_4
REMARK    4  A    between atoms: C_4  and  N_5
REMARK    5  A    between atoms: C_4  and  C_28
REMARK    6  A    between atoms: C_6  and  C_8
REMARK    7  A    between atoms: C_8  and  C_9
REMARK    8  A    between atoms: C_8  and  N_16
REMARK    9  A    between atoms: C_9  and  C_10
REMARK   10  A    between atoms: N_16  and  S_17
REMARK   11  A    between atoms: S_17  and  C_20
REMARK   12  A    between atoms: N_30  and  O_31
REMARK                            x       y       z     vdW  Elec       q    Type
REMARK                         _______ _______ _______ _____ _____    ______ ____
ROOT
ATOM      1  C   UNL     1       4.449   6.458  17.802  0.00  0.00    +0.000 C 
ENDROOT
BRANCH   1   3
ATOM      2  N   UNL     1       3.274   4.518  18.764  0.00  0.00    +0.000 N 
ATOM      3  C   UNL     1       4.366   5.355  18.880  0.00  0.00    +0.000 C 
ATOM      4  O   UNL     1       5.140   5.274  19.835  0.00  0.00    +0.000 OA
ATOM      5  H   UNL     1       2.840   4.410  17.855  0.00  0.00    +0.000 HD
BRANCH   2   6
ATOM      6  C   UNL     1       3.002   3.465  19.744  0.00  0.00    +0.000 C 
BRANCH   6   7
ATOM      7  C   UNL     1       3.884   2.260  19.392  0.00  0.00    +0.000 C 
ATOM      8  O   UNL     1       3.687   1.551  18.405  0.00  0.00    +0.000 OA
ATOM      9  N   UNL     1       4.878   1.986  20.302  0.00  0.00    +0.000 N 
ATOM     10  H   UNL     1       4.947   2.407  21.222  0.00  0.00    +0.000 HD
BRANCH   9  11
ATOM     11  O   UNL     1       5.589   0.782  20.096  0.00  0.00    +0.000 OA
ATOM     12  H   UNL     1       5.102   0.373  19.347  0.00  0.00    +0.000 HD
ENDBRANCH   9  11
ENDBRANCH   6   7
BRANCH   6  13
ATOM     13  C   UNL     1       1.518   3.070  19.670  0.00  0.00    +0.000 C 
BRANCH  13  15
ATOM     14  C   UNL     1       1.572   2.446  22.117  0.00  0.00    +0.000 C 
ATOM     15  C   UNL     1       0.788   3.141  21.015  0.00  0.00    +0.000 C 
ENDBRANCH  13  15
ENDBRANCH   6  13
ENDBRANCH   2   6
ENDBRANCH   1   3
BRANCH   1  16
ATOM     16  N   UNL     1       5.252   6.027  16.629  0.00  0.00    +0.000 NA
ATOM     17  H   UNL     1       6.093   6.558  16.413  0.00  0.00    +0.000 HD
BRANCH  16  18
ATOM     18  S   UNL     1       5.455   4.393  16.315  0.00  0.00    +0.000 S 
ATOM     19  O   UNL     1       6.500   3.952  17.210  0.00  0.00    +0.000 OA
ATOM     20  O   UNL     1       4.150   3.782  16.323  0.00  0.00    +0.000 OA
BRANCH  18  21
ATOM     21  C   UNL     1       6.128   4.317  14.678  0.00  0.00    +0.000 A 
ATOM     22  C   UNL     1       5.553   3.467  13.733  0.00  0.00    +0.000 A 
ATOM     23  C   UNL     1       6.065   3.449  12.434  0.00  0.00    +0.000 A 
ATOM     24 CL   UNL     1       5.354   2.420  11.252  0.00  0.00    +0.000 Cl
ATOM     25  C   UNL     1       7.133   4.270  12.079  0.00  0.00    +0.000 A 
ATOM     26  C   UNL     1       7.697   5.114  13.036  0.00  0.00    +0.000 A 
ATOM     27 CL   UNL     1       9.024   6.124  12.612  0.00  0.00    +0.000 Cl
ATOM     28  C   UNL     1       7.194   5.153  14.334  0.00  0.00    +0.000 A 
ENDBRANCH  18  21
ENDBRANCH  16  18
ENDBRANCH   1  16
BRANCH   1  29
ATOM     29  C   UNL     1       3.067   6.986  17.352  0.00  0.00    +0.000 C 
BRANCH  29  30
ATOM     30  C   UNL     1       2.445   8.002  18.283  0.00  0.00    +0.000 A 
ATOM     31  C   UNL     1       2.160   7.648  19.608  0.00  0.00    +0.000 A 
ATOM     32  C   UNL     1       1.371   8.476  20.402  0.00  0.00    +0.000 A 
ATOM     33  C   UNL     1       0.893   9.682  19.895  0.00  0.00    +0.000 A 
ATOM     34  C   UNL     1       1.256  10.091  18.613  0.00  0.00    +0.000 A 
ATOM     35  C   UNL     1       2.038   9.259  17.812  0.00  0.00    +0.000 A 
ENDBRANCH  29  30
ENDBRANCH   1  29
TORSDOF 11
ENDMDL
MODEL 7
REMARK VINA RESULT:      -7.5      1.849      2.841
REMARK  Name = 
REMARK  12 active torsions:
REMARK  status: ('A' for Active; 'I' for Inactive)
REMARK    1  A    between atoms: C_1  and  C_2
REMARK    2  A    between atoms: C_2  and  C_3
REMARK    3  A    between atoms: C_3  and  C_4
REMARK    4  A    between atoms: C_4  and  N_5
REMARK    5  A    between atoms: C_4  and  C_28
REMARK    6  A    between atoms: C_6  and  C_8
REMARK    7  A    between atoms: C_8  and  C_9
REMARK    8  A    between atoms: C_8  and  N_16
REMARK    9  A    between atoms: C_9  and  C_10
REMARK   10  A    between atoms: N_16  and  S_17
REMARK   11  A    between atoms: S_17  and  C_20
REMARK   12  A    between atoms: N_30  and  O_31
REMARK                            x       y       z     vdW  Elec       q    Type
REMARK                         _______ _______ _______ _____ _____    ______ ____
ROOT
ATOM      1  C   UNL     1       2.454   6.889  18.165  0.00  0.00    +0.000 C 
ENDROOT
BRANCH   1   3
ATOM      2  N   UNL     1       4.461   5.768  17.281  0.00  0.00    +0.000 N 
ATOM      3  C   UNL     1       3.886   6.982  17.596  0.00  0.00    +0.000 C 
ATOM      4  O   UNL     1       4.523   8.034  17.520  0.00  0.00    +0.000 OA
ATOM      5  H   UNL     1       3.854   4.983  17.073  0.00  0.00    +0.000 HD
BRANCH   2   6
ATOM      6  C   UNL     1       5.840   5.669  16.800  0.00  0.00    +0.000 C 
BRANCH   6   7
ATOM      7  C   UNL     1       5.811   4.963  15.439  0.00  0.00    +0.000 C 
ATOM      8  O   UNL     1       4.991   4.090  15.154  0.00  0.00    +0.000 OA
ATOM      9  N   UNL     1       6.818   5.329  14.576  0.00  0.00    +0.000 N 
ATOM     10  H   UNL     1       7.627   5.881  14.838  0.00  0.00    +0.000 HD
BRANCH   9  11
ATOM     11  O   UNL     1       6.920   4.570  13.389  0.00  0.00    +0.000 OA
ATOM     12  H   UNL     1       7.622   5.044  12.892  0.00  0.00    +0.000 HD
ENDBRANCH   9  11
ENDBRANCH   6   7
BRANCH   6  13
ATOM     13  C   UNL     1       6.671   4.848  17.800  0.00  0.00    +0.000 C 
BRANCH  13  15
ATOM     14  C   UNL     1       7.983   6.868  18.561  0.00  0.00    +0.000 C 
ATOM     15  C   UNL     1       7.176   5.656  19.000  0.00  0.00    +0.000 C 
ENDBRANCH  13  15
ENDBRANCH   6  13
ENDBRANCH   2   6
ENDBRANCH   1   3
BRANCH   1  16
ATOM     16  N   UNL     1       1.598   8.012  17.701  0.00  0.00    +0.000 NA
ATOM     17  H   UNL     1       0.715   7.777  17.254  0.00  0.00    +0.000 HD
BRANCH  16  18
ATOM     18  S   UNL     1       1.471   9.399  18.633  0.00  0.00    +0.000 S 
ATOM     19  O   UNL     1       1.473   8.947  20.005  0.00  0.00    +0.000 OA
ATOM     20  O   UNL     1       2.448  10.341  18.150  0.00  0.00    +0.000 OA
BRANCH  18  21
ATOM     21  C   UNL     1      -0.155  10.024  18.311  0.00  0.00    +0.000 A 
ATOM     22  C   UNL     1      -0.836   9.618  17.163  0.00  0.00    +0.000 A 
ATOM     23  C   UNL     1      -2.134  10.083  16.943  0.00  0.00    +0.000 A 
ATOM     24 CL   UNL     1      -2.995   9.577  15.541  0.00  0.00    +0.000 Cl
ATOM     25  C   UNL     1      -2.749  10.938  17.856  0.00  0.00    +0.000 A 
ATOM     26  C   UNL     1      -2.054  11.334  18.999  0.00  0.00    +0.000 A 
ATOM     27 CL   UNL     1      -2.798  12.398  20.128  0.00  0.00    +0.000 Cl
ATOM     28  C   UNL     1      -0.762  10.873  19.241  0.00  0.00    +0.000 A 
ENDBRANCH  18  21
ENDBRANCH  16  18
ENDBRANCH   1  16
BRANCH   1  29
ATOM     29  C   UNL     1       1.767   5.531  17.888  0.00  0.00    +0.000 C 
BRANCH  29  30
ATOM     30  C   UNL     1       1.673   4.614  19.086  0.00  0.00    +0.000 A 
ATOM     31  C   UNL     1       2.066   5.077  20.349  0.00  0.00    +0.000 A 
ATOM     32  C   UNL     1       2.221   4.186  21.407  0.00  0.00    +0.000 A 
ATOM     33  C   UNL     1       1.947   2.832  21.226  0.00  0.00    +0.000 A 
ATOM     34  C   UNL     1       1.458   2.378  20.002  0.00  0.00    +0.000 A 
ATOM     35  C   UNL     1       1.311   3.267  18.938  0.00  0.00    +0.000 A 
ENDBRANCH  29  30
ENDBRANCH   1  29
TORSDOF 11
ENDMDL
MODEL 8
REMARK VINA RESULT:      -7.5      0.451      1.887
REMARK  Name = 
REMARK  12 active torsions:
REMARK  status: ('A' for Active; 'I' for Inactive)
REMARK    1  A    between atoms: C_1  and  C_2
REMARK    2  A    between atoms: C_2  and  C_3
REMARK    3  A    between atoms: C_3  and  C_4
REMARK    4  A    between atoms: C_4  and  N_5
REMARK    5  A    between atoms: C_4  and  C_28
REMARK    6  A    between atoms: C_6  and  C_8
REMARK    7  A    between atoms: C_8  and  C_9
REMARK    8  A    between atoms: C_8  and  N_16
REMARK    9  A    between atoms: C_9  and  C_10
REMARK   10  A    between atoms: N_16  and  S_17
REMARK   11  A    between atoms: S_17  and  C_20
REMARK   12  A    between atoms: N_30  and  O_31
REMARK                            x       y       z     vdW  Elec       q    Type
REMARK                         _______ _______ _______ _____ _____    ______ ____
ROOT
ATOM      1  C   UNL     1       2.225   7.299  19.796  0.00  0.00    +0.000 C 
ENDROOT
BRANCH   1   3
ATOM      2  N   UNL     1       4.264   5.970  19.420  0.00  0.00    +0.000 N 
ATOM      3  C   UNL     1       3.216   6.635  18.816  0.00  0.00    +0.000 C 
ATOM      4  O   UNL     1       3.155   6.763  17.592  0.00  0.00    +0.000 OA
ATOM      5  H   UNL     1       4.143   5.632  20.367  0.00  0.00    +0.000 HD
BRANCH   2   6
ATOM      6  C   UNL     1       5.334   5.347  18.639  0.00  0.00    +0.000 C 
BRANCH   6   7
ATOM      7  C   UNL     1       5.002   3.856  18.498  0.00  0.00    +0.000 C 
ATOM      8  O   UNL     1       4.435   3.386  17.511  0.00  0.00    +0.000 OA
ATOM      9  N   UNL     1       5.327   3.086  19.590  0.00  0.00    +0.000 N 
ATOM     10  H   UNL     1       5.600   3.456  20.494  0.00  0.00    +0.000 HD
BRANCH   9  11
ATOM     11  O   UNL     1       4.873   1.748  19.559  0.00  0.00    +0.000 OA
ATOM     12  H   UNL     1       5.502   1.295  20.163  0.00  0.00    +0.000 HD
ENDBRANCH   9  11
ENDBRANCH   6   7
BRANCH   6  13
ATOM     13  C   UNL     1       6.672   5.520  19.378  0.00  0.00    +0.000 C 
BRANCH  13  15
ATOM     14  C   UNL     1       7.487   7.227  17.704  0.00  0.00    +0.000 C 
ATOM     15  C   UNL     1       7.828   5.961  18.474  0.00  0.00    +0.000 C 
ENDBRANCH  13  15
ENDBRANCH   6  13
ENDBRANCH   2   6
ENDBRANCH   1   3
BRANCH   1  16
ATOM     16  N   UNL     1       1.183   8.084  19.083  0.00  0.00    +0.000 NA
ATOM     17  H   UNL     1       0.228   7.732  19.111  0.00  0.00    +0.000 HD
BRANCH  16  18
ATOM     18  S   UNL     1       1.226   9.759  19.131  0.00  0.00    +0.000 S 
ATOM     19  O   UNL     1       1.346  10.105  20.528  0.00  0.00    +0.000 OA
ATOM     20  O   UNL     1       2.197  10.197  18.160  0.00  0.00    +0.000 OA
BRANCH  18  21
ATOM     21  C   UNL     1      -0.389  10.277  18.619  0.00  0.00    +0.000 A 
ATOM     22  C   UNL     1      -0.931   9.779  17.434  0.00  0.00    +0.000 A 
ATOM     23  C   UNL     1      -2.223  10.161  17.065  0.00  0.00    +0.000 A 
ATOM     24 CL   UNL     1      -2.913   9.541  15.615  0.00  0.00    +0.000 Cl
ATOM     25  C   UNL     1      -2.967  11.024  17.867  0.00  0.00    +0.000 A 
ATOM     26  C   UNL     1      -2.409  11.512  19.049  0.00  0.00    +0.000 A 
ATOM     27 CL   UNL     1      -3.315  12.587  20.042  0.00  0.00    +0.000 Cl
ATOM     28  C   UNL     1      -1.127  11.135  19.439  0.00  0.00    +0.000 A 
ENDBRANCH  18  21
ENDBRANCH  16  18
ENDBRANCH   1  16
BRANCH   1  29
ATOM     29  C   UNL     1       1.576   6.305  20.787  0.00  0.00    +0.000 C 
BRANCH  29  30
ATOM     30  C   UNL     1       1.405   4.901  20.253  0.00  0.00    +0.000 A 
ATOM     31  C   UNL     1       1.645   3.804  21.091  0.00  0.00    +0.000 A 
ATOM     32  C   UNL     1       1.735   2.521  20.559  0.00  0.00    +0.000 A 
ATOM     33  C   UNL     1       1.546   2.315  19.194  0.00  0.00    +0.000 A 
ATOM     34  C   UNL     1       1.205   3.386  18.370  0.00  0.00    +0.000 A 
ATOM     35  C   UNL     1       1.125   4.674  18.898  0.00  0.00    +0.000 A 
ENDBRANCH  29  30
ENDBRANCH   1  29
TORSDOF 11
ENDMDL
MODEL 9
REMARK VINA RESULT:      -7.4      2.072      2.538
REMARK  Name = 
REMARK  12 active torsions:
REMARK  status: ('A' for Active; 'I' for Inactive)
REMARK    1  A    between atoms: C_1  and  C_2
REMARK    2  A    between atoms: C_2  and  C_3
REMARK    3  A    between atoms: C_3  and  C_4
REMARK    4  A    between atoms: C_4  and  N_5
REMARK    5  A    between atoms: C_4  and  C_28
REMARK    6  A    between atoms: C_6  and  C_8
REMARK    7  A    between atoms: C_8  and  C_9
REMARK    8  A    between atoms: C_8  and  N_16
REMARK    9  A    between atoms: C_9  and  C_10
REMARK   10  A    between atoms: N_16  and  S_17
REMARK   11  A    between atoms: S_17  and  C_20
REMARK   12  A    between atoms: N_30  and  O_31
REMARK                            x       y       z     vdW  Elec       q    Type
REMARK                         _______ _______ _______ _____ _____    ______ ____
ROOT
ATOM      1  C   UNL     1       2.584   6.475  18.065  0.00  0.00    +0.000 C 
ENDROOT
BRANCH   1   3
ATOM      2  N   UNL     1       4.531   5.126  17.390  0.00  0.00    +0.000 N 
ATOM      3  C   UNL     1       3.914   6.356  17.289  0.00  0.00    +0.000 C 
ATOM      4  O   UNL     1       4.452   7.300  16.709  0.00  0.00    +0.000 OA
ATOM      5  H   UNL     1       3.963   4.314  17.603  0.00  0.00    +0.000 HD
BRANCH   2   6
ATOM      6  C   UNL     1       5.835   4.865  16.777  0.00  0.00    +0.000 C 
BRANCH   6   7
ATOM      7  C   UNL     1       6.881   5.696  17.532  0.00  0.00    +0.000 C 
ATOM      8  O   UNL     1       7.552   6.577  16.995  0.00  0.00    +0.000 OA
ATOM      9  N   UNL     1       7.064   5.337  18.847  0.00  0.00    +0.000 N 
ATOM     10  H   UNL     1       6.691   4.495  19.271  0.00  0.00    +0.000 HD
BRANCH   9  11
ATOM     11  O   UNL     1       8.141   5.965  19.514  0.00  0.00    +0.000 OA
ATOM     12  H   UNL     1       7.936   6.918  19.400  0.00  0.00    +0.000 HD
ENDBRANCH   9  11
ENDBRANCH   6   7
BRANCH   6  13
ATOM     13  C   UNL     1       5.798   5.286  15.299  0.00  0.00    +0.000 C 
BRANCH  13  15
ATOM     14  C   UNL     1       5.871   3.765  13.284  0.00  0.00    +0.000 C 
ATOM     15  C   UNL     1       6.681   4.429  14.386  0.00  0.00    +0.000 C 
ENDBRANCH  13  15
ENDBRANCH   6  13
ENDBRANCH   2   6
ENDBRANCH   1   3
BRANCH   1  16
ATOM     16  N   UNL     1       1.812   7.679  17.662  0.00  0.00    +0.000 NA
ATOM     17  H   UNL     1       0.905   7.532  17.225  0.00  0.00    +0.000 HD
BRANCH  16  18
ATOM     18  S   UNL     1       1.812   9.034  18.648  0.00  0.00    +0.000 S 
ATOM     19  O   UNL     1       1.905   8.531  20.000  0.00  0.00    +0.000 OA
ATOM     20  O   UNL     1       2.783   9.959  18.120  0.00  0.00    +0.000 OA
BRANCH  18  21
ATOM     21  C   UNL     1       0.190   9.728  18.479  0.00  0.00    +0.000 A 
ATOM     22  C   UNL     1      -0.297  10.593  19.460  0.00  0.00    +0.000 A 
ATOM     23  C   UNL     1      -1.559  11.167  19.292  0.00  0.00    +0.000 A 
ATOM     24 CL   UNL     1      -2.167  12.250  20.483  0.00  0.00    +0.000 Cl
ATOM     25  C   UNL     1      -2.324  10.887  18.162  0.00  0.00    +0.000 A 
ATOM     26  C   UNL     1      -1.821  10.021  17.191  0.00  0.00    +0.000 A 
ATOM     27 CL   UNL     1      -2.762   9.660  15.796  0.00  0.00    +0.000 Cl
ATOM     28  C   UNL     1      -0.561   9.446  17.335  0.00  0.00    +0.000 A 
ENDBRANCH  18  21
ENDBRANCH  16  18
ENDBRANCH   1  16
BRANCH   1  29
ATOM     29  C   UNL     1       1.702   5.207  17.976  0.00  0.00    +0.000 C 
BRANCH  29  30
ATOM     30  C   UNL     1       1.621   4.402  19.253  0.00  0.00    +0.000 A 
ATOM     31  C   UNL     1       2.092   4.951  20.452  0.00  0.00    +0.000 A 
ATOM     32  C   UNL     1       2.254   4.147  21.577  0.00  0.00    +0.000 A 
ATOM     33  C   UNL     1       1.910   2.798  21.527  0.00  0.00    +0.000 A 
ATOM     34  C   UNL     1       1.344   2.267  20.370  0.00  0.00    +0.000 A 
ATOM     35  C   UNL     1       1.190   3.068  19.238  0.00  0.00    +0.000 A 
ENDBRANCH  29  30
ENDBRANCH   1  29
TORSDOF 11
ENDMDL
