MODEL 1
REMARK VINA RESULT:      -6.6      0.000      0.000
REMARK  Name = 
REMARK  8 active torsions:
REMARK  status: ('A' for Active; 'I' for Inactive)
REMARK    1  A    between atoms: C_1  and  C_2
REMARK    2  A    between atoms: C_2  and  C_3
REMARK    3  A    between atoms: C_2  and  C_4
REMARK    4  A    between atoms: C_4  and  C_5
REMARK    5  A    between atoms: C_10  and  C_11
REMARK    6  A    between atoms: N_19  and  C_20
REMARK    7  A    between atoms: C_20  and  C_21
REMARK    8  A    between atoms: C_21  and  N_22
REMARK                            x       y       z     vdW  Elec       q    Type
REMARK                         _______ _______ _______ _____ _____    ______ ____
ROOT
ATOM      1  C   UNL     1       5.005   3.999  16.400  0.00  0.00    +0.000 A 
ATOM      2  C   UNL     1       4.134   2.938  16.590  0.00  0.00    +0.000 A 
ATOM      3  S   UNL     1       2.753   3.358  17.489  0.00  0.00    +0.000 S 
ATOM      4  C   UNL     1       3.258   4.975  17.609  0.00  0.00    +0.000 A 
ATOM      5  N   UNL     1       2.476   5.861  18.243  0.00  0.00    +0.000 NA
ATOM      6  C   UNL     1       2.969   7.099  18.227  0.00  0.00    +0.000 A 
ATOM      7  N   UNL     1       4.161   7.465  17.723  0.00  0.00    +0.000 NA
ATOM      8  C   UNL     1       4.967   6.545  17.146  0.00  0.00    +0.000 A 
ATOM      9  N   UNL     1       6.236   6.939  16.723  0.00  0.00    +0.000 N 
ATOM     10  C   UNL     1       4.492   5.217  17.019  0.00  0.00    +0.000 A 
ATOM     11  H   UNL     1       6.879   6.168  16.614  0.00  0.00    +0.000 HD
ENDROOT
BRANCH   6  12
ATOM     12  C   UNL     1       2.139   8.157  18.825  0.00  0.00    +0.000 A 
ATOM     13  C   UNL     1       1.741   8.104  20.168  0.00  0.00    +0.000 A 
ATOM     14  C   UNL     1       0.950   9.118  20.682  0.00  0.00    +0.000 A 
ATOM     15  N   UNL     1       0.520  10.173  19.959  0.00  0.00    +0.000 NA
ATOM     16  C   UNL     1       0.899  10.212  18.666  0.00  0.00    +0.000 A 
ATOM     17  C   UNL     1       1.698   9.251  18.067  0.00  0.00    +0.000 A 
ENDBRANCH   6  12
BRANCH   1  18
ATOM     18  C   UNL     1       6.279   3.855  15.606  0.00  0.00    +0.000 C 
BRANCH  18  20
ATOM     19  C   UNL     1       7.593   5.156  13.846  0.00  0.00    +0.000 C 
ATOM     20  C   UNL     1       6.242   4.552  14.233  0.00  0.00    +0.000 C 
ATOM     21  C   UNL     1       5.790   3.564  13.155  0.00  0.00    +0.000 C 
ENDBRANCH  18  20
ENDBRANCH   1  18
BRANCH   9  22
ATOM     22  C   UNL     1       6.859   8.056  17.438  0.00  0.00    +0.000 C 
BRANCH  22  23
ATOM     23  C   UNL     1       8.133   7.645  18.209  0.00  0.00    +0.000 C 
BRANCH  23  24
ATOM     24  N   UNL     1       7.985   6.376  18.938  0.00  0.00    +0.000 NA
ATOM     25  H   UNL     1       8.755   6.306  19.602  0.00  0.00    +0.000 HD
ATOM     26  H   UNL     1       8.134   5.609  18.281  0.00  0.00    +0.000 HD
ENDBRANCH  23  24
ENDBRANCH  22  23
ENDBRANCH   9  22
TORSDOF 6
ENDMDL
MODEL 2
REMARK VINA RESULT:      -6.4      2.539      7.516
REMARK  Name = 
REMARK  8 active torsions:
REMARK  status: ('A' for Active; 'I' for Inactive)
REMARK    1  A    between atoms: C_1  and  C_2
REMARK    2  A    between atoms: C_2  and  C_3
REMARK    3  A    between atoms: C_2  and  C_4
REMARK    4  A    between atoms: C_4  and  C_5
REMARK    5  A    between atoms: C_10  and  C_11
REMARK    6  A    between atoms: N_19  and  C_20
REMARK    7  A    between atoms: C_20  and  C_21
REMARK    8  A    between atoms: C_21  and  N_22
REMARK                            x       y       z     vdW  Elec       q    Type
REMARK                         _______ _______ _______ _____ _____    ______ ____
ROOT
ATOM      1  C   UNL     1       1.054   8.953  19.911  0.00  0.00    +0.000 A 
ATOM      2  C   UNL     1       1.169  10.147  19.217  0.00  0.00    +0.000 A 
ATOM      3  S   UNL     1       2.274  10.068  17.927  0.00  0.00    +0.000 S 
ATOM      4  C   UNL     1       2.592   8.427  18.230  0.00  0.00    +0.000 A 
ATOM      5  N   UNL     1       3.443   7.767  17.433  0.00  0.00    +0.000 NA
ATOM      6  C   UNL     1       3.569   6.479  17.755  0.00  0.00    +0.000 A 
ATOM      7  N   UNL     1       2.998   5.873  18.812  0.00  0.00    +0.000 NA
ATOM      8  C   UNL     1       2.195   6.573  19.645  0.00  0.00    +0.000 A 
ATOM      9  N   UNL     1       1.699   5.939  20.784  0.00  0.00    +0.000 N 
ATOM     10  C   UNL     1       1.913   7.925  19.333  0.00  0.00    +0.000 A 
ATOM     11  H   UNL     1       1.397   6.583  21.501  0.00  0.00    +0.000 HD
ENDROOT
BRANCH   6  12
ATOM     12  C   UNL     1       4.418   5.652  16.883  0.00  0.00    +0.000 A 
ATOM     13  C   UNL     1       4.517   4.265  17.060  0.00  0.00    +0.000 A 
ATOM     14  C   UNL     1       5.339   3.531  16.220  0.00  0.00    +0.000 A 
ATOM     15  N   UNL     1       6.073   4.074  15.227  0.00  0.00    +0.000 NA
ATOM     16  C   UNL     1       5.979   5.409  15.070  0.00  0.00    +0.000 A 
ATOM     17  C   UNL     1       5.176   6.224  15.851  0.00  0.00    +0.000 A 
ENDBRANCH   6  12
BRANCH   1  18
ATOM     18  C   UNL     1       0.107   8.793  21.075  0.00  0.00    +0.000 C 
BRANCH  18  20
ATOM     19  C   UNL     1      -0.922  11.002  21.832  0.00  0.00    +0.000 C 
ATOM     20  C   UNL     1       0.161   9.952  22.087  0.00  0.00    +0.000 C 
ATOM     21  C   UNL     1       0.029   9.411  23.513  0.00  0.00    +0.000 C 
ENDBRANCH  18  20
ENDBRANCH   1  18
BRANCH   9  22
ATOM     22  C   UNL     1       2.509   4.855  21.348  0.00  0.00    +0.000 C 
BRANCH  22  23
ATOM     23  C   UNL     1       1.769   3.499  21.372  0.00  0.00    +0.000 C 
BRANCH  23  24
ATOM     24  N   UNL     1       0.655   3.430  20.413  0.00  0.00    +0.000 NA
ATOM     25  H   UNL     1       0.300   2.474  20.417  0.00  0.00    +0.000 HD
ATOM     26  H   UNL     1       1.031   3.566  19.474  0.00  0.00    +0.000 HD
ENDBRANCH  23  24
ENDBRANCH  22  23
ENDBRANCH   9  22
TORSDOF 6
ENDMDL
MODEL 3
REMARK VINA RESULT:      -6.1      2.520      7.409
REMARK  Name = 
REMARK  8 active torsions:
REMARK  status: ('A' for Active; 'I' for Inactive)
REMARK    1  A    between atoms: C_1  and  C_2
REMARK    2  A    between atoms: C_2  and  C_3
REMARK    3  A    between atoms: C_2  and  C_4
REMARK    4  A    between atoms: C_4  and  C_5
REMARK    5  A    between atoms: C_10  and  C_11
REMARK    6  A    between atoms: N_19  and  C_20
REMARK    7  A    between atoms: C_20  and  C_21
REMARK    8  A    between atoms: C_21  and  N_22
REMARK                            x       y       z     vdW  Elec       q    Type
REMARK                         _______ _______ _______ _____ _____    ______ ____
ROOT
ATOM      1  C   UNL     1       0.790   8.719  20.110  0.00  0.00    +0.000 A 
ATOM      2  C   UNL     1       0.850   9.943  19.464  0.00  0.00    +0.000 A 
ATOM      3  S   UNL     1       1.975   9.974  18.190  0.00  0.00    +0.000 S 
ATOM      4  C   UNL     1       2.378   8.343  18.435  0.00  0.00    +0.000 A 
ATOM      5  N   UNL     1       3.275   7.760  17.627  0.00  0.00    +0.000 NA
ATOM      6  C   UNL     1       3.466   6.470  17.902  0.00  0.00    +0.000 A 
ATOM      7  N   UNL     1       2.915   5.793  18.926  0.00  0.00    +0.000 NA
ATOM      8  C   UNL     1       2.064   6.416  19.772  0.00  0.00    +0.000 A 
ATOM      9  N   UNL     1       1.588   5.713  20.879  0.00  0.00    +0.000 N 
ATOM     10  C   UNL     1       1.712   7.762  19.507  0.00  0.00    +0.000 A 
ATOM     11  H   UNL     1       1.241   6.311  21.614  0.00  0.00    +0.000 HD
ENDROOT
BRANCH   6  12
ATOM     12  C   UNL     1       4.371   5.724  17.013  0.00  0.00    +0.000 A 
ATOM     13  C   UNL     1       5.105   6.368  16.007  0.00  0.00    +0.000 A 
ATOM     14  C   UNL     1       5.935   5.620  15.189  0.00  0.00    +0.000 A 
ATOM     15  N   UNL     1       6.081   4.283  15.290  0.00  0.00    +0.000 NA
ATOM     16  C   UNL     1       5.365   3.669  16.253  0.00  0.00    +0.000 A 
ATOM     17  C   UNL     1       4.519   4.334  17.127  0.00  0.00    +0.000 A 
ENDBRANCH   6  12
BRANCH   1  18
ATOM     18  C   UNL     1      -0.162   8.463  21.252  0.00  0.00    +0.000 C 
BRANCH  18  20
ATOM     19  C   UNL     1       1.747   9.355  22.693  0.00  0.00    +0.000 C 
ATOM     20  C   UNL     1       0.234   9.165  22.564  0.00  0.00    +0.000 C 
ATOM     21  C   UNL     1      -0.467  10.521  22.666  0.00  0.00    +0.000 C 
ENDBRANCH  18  20
ENDBRANCH   1  18
BRANCH   9  22
ATOM     22  C   UNL     1       2.447   4.653  21.414  0.00  0.00    +0.000 C 
BRANCH  22  23
ATOM     23  C   UNL     1       1.857   3.239  21.214  0.00  0.00    +0.000 C 
BRANCH  23  24
ATOM     24  N   UNL     1       2.042   2.722  19.849  0.00  0.00    +0.000 NA
ATOM     25  H   UNL     1       1.405   1.935  19.725  0.00  0.00    +0.000 HD
ATOM     26  H   UNL     1       2.976   2.316  19.783  0.00  0.00    +0.000 HD
ENDBRANCH  23  24
ENDBRANCH  22  23
ENDBRANCH   9  22
TORSDOF 6
ENDMDL
MODEL 4
REMARK VINA RESULT:      -6.0      3.833      6.180
REMARK  Name = 
REMARK  8 active torsions:
REMARK  status: ('A' for Active; 'I' for Inactive)
REMARK    1  A    between atoms: C_1  and  C_2
REMARK    2  A    between atoms: C_2  and  C_3
REMARK    3  A    between atoms: C_2  and  C_4
REMARK    4  A    between atoms: C_4  and  C_5
REMARK    5  A    between atoms: C_10  and  C_11
REMARK    6  A    between atoms: N_19  and  C_20
REMARK    7  A    between atoms: C_20  and  C_21
REMARK    8  A    between atoms: C_21  and  N_22
REMARK                            x       y       z     vdW  Elec       q    Type
REMARK                         _______ _______ _______ _____ _____    ______ ____
ROOT
ATOM      1  C   UNL     1       2.368   6.315  19.623  0.00  0.00    +0.000 A 
ATOM      2  C   UNL     1       3.069   6.000  18.470  0.00  0.00    +0.000 A 
ATOM      3  S   UNL     1       3.198   7.305  17.387  0.00  0.00    +0.000 S 
ATOM      4  C   UNL     1       2.363   8.336  18.447  0.00  0.00    +0.000 A 
ATOM      5  N   UNL     1       2.176   9.618  18.102  0.00  0.00    +0.000 NA
ATOM      6  C   UNL     1       1.545  10.325  19.041  0.00  0.00    +0.000 A 
ATOM      7  N   UNL     1       1.047   9.838  20.191  0.00  0.00    +0.000 NA
ATOM      8  C   UNL     1       1.186   8.526  20.491  0.00  0.00    +0.000 A 
ATOM      9  N   UNL     1       0.573   8.036  21.644  0.00  0.00    +0.000 N 
ATOM     10  C   UNL     1       1.932   7.707  19.609  0.00  0.00    +0.000 A 
ATOM     11  H   UNL     1       0.441   7.034  21.631  0.00  0.00    +0.000 HD
ENDROOT
BRANCH   6  12
ATOM     12  C   UNL     1       1.370  11.764  18.788  0.00  0.00    +0.000 A 
ATOM     13  C   UNL     1       2.438  12.571  18.374  0.00  0.00    +0.000 A 
ATOM     14  C   UNL     1       2.225  13.923  18.160  0.00  0.00    +0.000 A 
ATOM     15  N   UNL     1       1.033  14.530  18.335  0.00  0.00    +0.000 NA
ATOM     16  C   UNL     1       0.013  13.749  18.743  0.00  0.00    +0.000 A 
ATOM     17  C   UNL     1       0.127  12.388  18.970  0.00  0.00    +0.000 A 
ENDBRANCH   6  12
BRANCH   1  18
ATOM     18  C   UNL     1       2.160   5.313  20.732  0.00  0.00    +0.000 C 
BRANCH  18  20
ATOM     19  C   UNL     1       2.546   2.872  21.370  0.00  0.00    +0.000 C 
ATOM     20  C   UNL     1       2.158   3.849  20.257  0.00  0.00    +0.000 C 
ATOM     21  C   UNL     1       0.781   3.478  19.702  0.00  0.00    +0.000 C 
ENDBRANCH  18  20
ENDBRANCH   1  18
BRANCH   9  22
ATOM     22  C   UNL     1      -0.636   8.727  22.100  0.00  0.00    +0.000 C 
BRANCH  22  23
ATOM     23  C   UNL     1      -0.370   9.695  23.275  0.00  0.00    +0.000 C 
BRANCH  23  24
ATOM     24  N   UNL     1      -0.315  11.106  22.862  0.00  0.00    +0.000 NA
ATOM     25  H   UNL     1      -0.993  11.621  23.422  0.00  0.00    +0.000 HD
ATOM     26  H   UNL     1      -0.660  11.173  21.904  0.00  0.00    +0.000 HD
ENDBRANCH  23  24
ENDBRANCH  22  23
ENDBRANCH   9  22
TORSDOF 6
ENDMDL
MODEL 5
REMARK VINA RESULT:      -6.0      2.539      4.167
REMARK  Name = 
REMARK  8 active torsions:
REMARK  status: ('A' for Active; 'I' for Inactive)
REMARK    1  A    between atoms: C_1  and  C_2
REMARK    2  A    between atoms: C_2  and  C_3
REMARK    3  A    between atoms: C_2  and  C_4
REMARK    4  A    between atoms: C_4  and  C_5
REMARK    5  A    between atoms: C_10  and  C_11
REMARK    6  A    between atoms: N_19  and  C_20
REMARK    7  A    between atoms: C_20  and  C_21
REMARK    8  A    between atoms: C_21  and  N_22
REMARK                            x       y       z     vdW  Elec       q    Type
REMARK                         _______ _______ _______ _____ _____    ______ ____
ROOT
ATOM      1  C   UNL     1       4.642   4.957  17.645  0.00  0.00    +0.000 A 
ATOM      2  C   UNL     1       5.231   5.561  16.545  0.00  0.00    +0.000 A 
ATOM      3  S   UNL     1       4.655   7.134  16.257  0.00  0.00    +0.000 S 
ATOM      4  C   UNL     1       3.641   7.070  17.618  0.00  0.00    +0.000 A 
ATOM      5  N   UNL     1       2.901   8.141  17.935  0.00  0.00    +0.000 NA
ATOM      6  C   UNL     1       2.185   7.972  19.048  0.00  0.00    +0.000 A 
ATOM      7  N   UNL     1       2.105   6.838  19.767  0.00  0.00    +0.000 NA
ATOM      8  C   UNL     1       2.808   5.745  19.393  0.00  0.00    +0.000 A 
ATOM      9  N   UNL     1       2.627   4.558  20.103  0.00  0.00    +0.000 N 
ATOM     10  C   UNL     1       3.681   5.850  18.283  0.00  0.00    +0.000 A 
ATOM     11  H   UNL     1       2.913   3.737  19.590  0.00  0.00    +0.000 HD
ENDROOT
BRANCH   6  12
ATOM     12  C   UNL     1       1.404   9.125  19.522  0.00  0.00    +0.000 A 
ATOM     13  C   UNL     1       0.866   9.163  20.816  0.00  0.00    +0.000 A 
ATOM     14  C   UNL     1       0.129  10.267  21.212  0.00  0.00    +0.000 A 
ATOM     15  N   UNL     1      -0.119  11.327  20.417  0.00  0.00    +0.000 NA
ATOM     16  C   UNL     1       0.394  11.279  19.171  0.00  0.00    +0.000 A 
ATOM     17  C   UNL     1       1.153  10.225  18.690  0.00  0.00    +0.000 A 
ENDBRANCH   6  12
BRANCH   1  18
ATOM     18  C   UNL     1       5.028   3.570  18.098  0.00  0.00    +0.000 C 
BRANCH  18  20
ATOM     19  C   UNL     1       3.695   1.477  18.696  0.00  0.00    +0.000 C 
ATOM     20  C   UNL     1       4.083   2.464  17.593  0.00  0.00    +0.000 C 
ATOM     21  C   UNL     1       2.822   3.085  16.989  0.00  0.00    +0.000 C 
ENDBRANCH  18  20
ENDBRANCH   1  18
BRANCH   9  22
ATOM     22  C   UNL     1       1.324   4.359  20.746  0.00  0.00    +0.000 C 
BRANCH  22  23
ATOM     23  C   UNL     1       1.224   3.018  21.505  0.00  0.00    +0.000 C 
BRANCH  23  24
ATOM     24  N   UNL     1       2.514   2.559  22.043  0.00  0.00    +0.000 NA
ATOM     25  H   UNL     1       2.793   3.209  22.778  0.00  0.00    +0.000 HD
ATOM     26  H   UNL     1       3.221   2.666  21.315  0.00  0.00    +0.000 HD
ENDBRANCH  23  24
ENDBRANCH  22  23
ENDBRANCH   9  22
TORSDOF 6
ENDMDL
MODEL 6
REMARK VINA RESULT:      -5.9      2.810      4.481
REMARK  Name = 
REMARK  8 active torsions:
REMARK  status: ('A' for Active; 'I' for Inactive)
REMARK    1  A    between atoms: C_1  and  C_2
REMARK    2  A    between atoms: C_2  and  C_3
REMARK    3  A    between atoms: C_2  and  C_4
REMARK    4  A    between atoms: C_4  and  C_5
REMARK    5  A    between atoms: C_10  and  C_11
REMARK    6  A    between atoms: N_19  and  C_20
REMARK    7  A    between atoms: C_20  and  C_21
REMARK    8  A    between atoms: C_21  and  N_22
REMARK                            x       y       z     vdW  Elec       q    Type
REMARK                         _______ _______ _______ _____ _____    ______ ____
ROOT
ATOM      1  C   UNL     1       4.360   5.196  17.830  0.00  0.00    +0.000 A 
ATOM      2  C   UNL     1       4.822   5.970  16.778  0.00  0.00    +0.000 A 
ATOM      3  S   UNL     1       4.136   7.525  16.740  0.00  0.00    +0.000 S 
ATOM      4  C   UNL     1       3.241   7.223  18.151  0.00  0.00    +0.000 A 
ATOM      5  N   UNL     1       2.468   8.195  18.657  0.00  0.00    +0.000 NA
ATOM      6  C   UNL     1       1.855   7.840  19.787  0.00  0.00    +0.000 A 
ATOM      7  N   UNL     1       1.899   6.622  20.357  0.00  0.00    +0.000 NA
ATOM      8  C   UNL     1       2.631   5.634  19.794  0.00  0.00    +0.000 A 
ATOM      9  N   UNL     1       2.575   4.358  20.355  0.00  0.00    +0.000 N 
ATOM     10  C   UNL     1       3.404   5.936  18.647  0.00  0.00    +0.000 A 
ATOM     11  H   UNL     1       2.865   3.628  19.720  0.00  0.00    +0.000 HD
ENDROOT
BRANCH   6  12
ATOM     12  C   UNL     1       1.051   8.870  20.463  0.00  0.00    +0.000 A 
ATOM     13  C   UNL     1       0.482   9.937  19.754  0.00  0.00    +0.000 A 
ATOM     14  C   UNL     1      -0.258  10.888  20.438  0.00  0.00    +0.000 A 
ATOM     15  N   UNL     1      -0.465  10.861  21.770  0.00  0.00    +0.000 NA
ATOM     16  C   UNL     1       0.093   9.836  22.446  0.00  0.00    +0.000 A 
ATOM     17  C   UNL     1       0.838   8.833  21.848  0.00  0.00    +0.000 A 
ENDBRANCH   6  12
BRANCH   1  18
ATOM     18  C   UNL     1       4.859   3.792  18.069  0.00  0.00    +0.000 C 
BRANCH  18  20
ATOM     19  C   UNL     1       3.658   1.581  18.499  0.00  0.00    +0.000 C 
ATOM     20  C   UNL     1       3.943   2.697  17.491  0.00  0.00    +0.000 C 
ATOM     21  C   UNL     1       2.626   3.312  17.015  0.00  0.00    +0.000 C 
ENDBRANCH  18  20
ENDBRANCH   1  18
BRANCH   9  22
ATOM     22  C   UNL     1       1.342   3.994  21.059  0.00  0.00    +0.000 C 
BRANCH  22  23
ATOM     23  C   UNL     1       1.392   2.576  21.671  0.00  0.00    +0.000 C 
BRANCH  23  24
ATOM     24  N   UNL     1       2.750   2.157  22.050  0.00  0.00    +0.000 NA
ATOM     25  H   UNL     1       3.392   2.905  21.787  0.00  0.00    +0.000 HD
ATOM     26  H   UNL     1       3.016   1.365  21.464  0.00  0.00    +0.000 HD
ENDBRANCH  23  24
ENDBRANCH  22  23
ENDBRANCH   9  22
TORSDOF 6
ENDMDL
MODEL 7
REMARK VINA RESULT:      -5.8      3.799      9.305
REMARK  Name = 
REMARK  8 active torsions:
REMARK  status: ('A' for Active; 'I' for Inactive)
REMARK    1  A    between atoms: C_1  and  C_2
REMARK    2  A    between atoms: C_2  and  C_3
REMARK    3  A    between atoms: C_2  and  C_4
REMARK    4  A    between atoms: C_4  and  C_5
REMARK    5  A    between atoms: C_10  and  C_11
REMARK    6  A    between atoms: N_19  and  C_20
REMARK    7  A    between atoms: C_20  and  C_21
REMARK    8  A    between atoms: C_21  and  N_22
REMARK                            x       y       z     vdW  Elec       q    Type
REMARK                         _______ _______ _______ _____ _____    ______ ____
ROOT
ATOM      1  C   UNL     1      -1.222  11.197  21.763  0.00  0.00    +0.000 A 
ATOM      2  C   UNL     1      -0.982  10.856  23.085  0.00  0.00    +0.000 A 
ATOM      3  S   UNL     1       0.109   9.562  23.255  0.00  0.00    +0.000 S 
ATOM      4  C   UNL     1       0.325   9.454  21.574  0.00  0.00    +0.000 A 
ATOM      5  N   UNL     1       1.180   8.546  21.080  0.00  0.00    +0.000 NA
ATOM      6  C   UNL     1       1.287   8.597  19.752  0.00  0.00    +0.000 A 
ATOM      7  N   UNL     1       0.572   9.392  18.935  0.00  0.00    +0.000 NA
ATOM      8  C   UNL     1      -0.335  10.254  19.447  0.00  0.00    +0.000 A 
ATOM      9  N   UNL     1      -1.127  10.991  18.568  0.00  0.00    +0.000 N 
ATOM     10  C   UNL     1      -0.453  10.353  20.855  0.00  0.00    +0.000 A 
ATOM     11  H   UNL     1      -1.971  11.349  18.993  0.00  0.00    +0.000 HD
ENDROOT
BRANCH   6  12
ATOM     12  C   UNL     1       2.266   7.695  19.126  0.00  0.00    +0.000 A 
ATOM     13  C   UNL     1       2.637   6.485  19.728  0.00  0.00    +0.000 A 
ATOM     14  C   UNL     1       3.572   5.675  19.104  0.00  0.00    +0.000 A 
ATOM     15  N   UNL     1       4.168   5.983  17.934  0.00  0.00    +0.000 NA
ATOM     16  C   UNL     1       3.812   7.152  17.365  0.00  0.00    +0.000 A 
ATOM     17  C   UNL     1       2.879   8.021  17.908  0.00  0.00    +0.000 A 
ENDBRANCH   6  12
BRANCH   1  18
ATOM     18  C   UNL     1      -2.136  12.336  21.385  0.00  0.00    +0.000 C 
BRANCH  18  20
ATOM     19  C   UNL     1      -2.545  14.350  22.900  0.00  0.00    +0.000 C 
ATOM     20  C   UNL     1      -2.940  12.909  22.566  0.00  0.00    +0.000 C 
ATOM     21  C   UNL     1      -4.439  12.843  22.262  0.00  0.00    +0.000 C 
ENDBRANCH  18  20
ENDBRANCH   1  18
BRANCH   9  22
ATOM     22  C   UNL     1      -1.401  10.393  17.258  0.00  0.00    +0.000 C 
BRANCH  22  23
ATOM     23  C   UNL     1      -2.867  10.576  16.805  0.00  0.00    +0.000 C 
BRANCH  23  24
ATOM     24  N   UNL     1      -3.014  11.520  15.687  0.00  0.00    +0.000 NA
ATOM     25  H   UNL     1      -3.808  12.126  15.893  0.00  0.00    +0.000 HD
ATOM     26  H   UNL     1      -3.292  10.995  14.857  0.00  0.00    +0.000 HD
ENDBRANCH  23  24
ENDBRANCH  22  23
ENDBRANCH   9  22
TORSDOF 6
ENDMDL
MODEL 8
REMARK VINA RESULT:      -5.8      2.566      4.384
REMARK  Name = 
REMARK  8 active torsions:
REMARK  status: ('A' for Active; 'I' for Inactive)
REMARK    1  A    between atoms: C_1  and  C_2
REMARK    2  A    between atoms: C_2  and  C_3
REMARK    3  A    between atoms: C_2  and  C_4
REMARK    4  A    between atoms: C_4  and  C_5
REMARK    5  A    between atoms: C_10  and  C_11
REMARK    6  A    between atoms: N_19  and  C_20
REMARK    7  A    between atoms: C_20  and  C_21
REMARK    8  A    between atoms: C_21  and  N_22
REMARK                            x       y       z     vdW  Elec       q    Type
REMARK                         _______ _______ _______ _____ _____    ______ ____
ROOT
ATOM      1  C   UNL     1       4.680   5.072  17.697  0.00  0.00    +0.000 A 
ATOM      2  C   UNL     1       5.262   5.624  16.567  0.00  0.00    +0.000 A 
ATOM      3  S   UNL     1       4.661   7.170  16.192  0.00  0.00    +0.000 S 
ATOM      4  C   UNL     1       3.644   7.163  17.552  0.00  0.00    +0.000 A 
ATOM      5  N   UNL     1       2.884   8.238  17.807  0.00  0.00    +0.000 NA
ATOM      6  C   UNL     1       2.168   8.117  18.926  0.00  0.00    +0.000 A 
ATOM      7  N   UNL     1       2.104   7.023  19.705  0.00  0.00    +0.000 NA
ATOM      8  C   UNL     1       2.827   5.923  19.394  0.00  0.00    +0.000 A 
ATOM      9  N   UNL     1       2.663   4.774  20.168  0.00  0.00    +0.000 N 
ATOM     10  C   UNL     1       3.702   5.983  18.282  0.00  0.00    +0.000 A 
ATOM     11  H   UNL     1       2.964   3.931  19.701  0.00  0.00    +0.000 HD
ENDROOT
BRANCH   6  12
ATOM     12  C   UNL     1       1.366   9.282  19.334  0.00  0.00    +0.000 A 
ATOM     13  C   UNL     1       1.314  10.445  18.554  0.00  0.00    +0.000 A 
ATOM     14  C   UNL     1       0.553  11.519  18.988  0.00  0.00    +0.000 A 
ATOM     15  N   UNL     1      -0.148  11.524  20.140  0.00  0.00    +0.000 NA
ATOM     16  C   UNL     1      -0.084  10.405  20.890  0.00  0.00    +0.000 A 
ATOM     17  C   UNL     1       0.638   9.278  20.533  0.00  0.00    +0.000 A 
ENDBRANCH   6  12
BRANCH   1  18
ATOM     18  C   UNL     1       5.086   3.719  18.225  0.00  0.00    +0.000 C 
BRANCH  18  20
ATOM     19  C   UNL     1       3.771   1.635  18.891  0.00  0.00    +0.000 C 
ATOM     20  C   UNL     1       4.184   2.566  17.749  0.00  0.00    +0.000 C 
ATOM     21  C   UNL     1       2.936   3.125  17.063  0.00  0.00    +0.000 C 
ENDBRANCH  18  20
ENDBRANCH   1  18
BRANCH   9  22
ATOM     22  C   UNL     1       1.361   4.589  20.816  0.00  0.00    +0.000 C 
BRANCH  22  23
ATOM     23  C   UNL     1       0.901   3.115  20.837  0.00  0.00    +0.000 C 
BRANCH  23  24
ATOM     24  N   UNL     1       0.222   2.703  19.599  0.00  0.00    +0.000 NA
ATOM     25  H   UNL     1       0.540   3.318  18.850  0.00  0.00    +0.000 HD
ATOM     26  H   UNL     1      -0.774   2.902  19.697  0.00  0.00    +0.000 HD
ENDBRANCH  23  24
ENDBRANCH  22  23
ENDBRANCH   9  22
TORSDOF 6
ENDMDL
MODEL 9
REMARK VINA RESULT:      -5.8      3.896      9.445
REMARK  Name = 
REMARK  8 active torsions:
REMARK  status: ('A' for Active; 'I' for Inactive)
REMARK    1  A    between atoms: C_1  and  C_2
REMARK    2  A    between atoms: C_2  and  C_3
REMARK    3  A    between atoms: C_2  and  C_4
REMARK    4  A    between atoms: C_4  and  C_5
REMARK    5  A    between atoms: C_10  and  C_11
REMARK    6  A    between atoms: N_19  and  C_20
REMARK    7  A    between atoms: C_20  and  C_21
REMARK    8  A    between atoms: C_21  and  N_22
REMARK                            x       y       z     vdW  Elec       q    Type
REMARK                         _______ _______ _______ _____ _____    ______ ____
ROOT
ATOM      1  C   UNL     1      -1.349  11.514  21.825  0.00  0.00    +0.000 A 
ATOM      2  C   UNL     1      -1.166  11.105  23.136  0.00  0.00    +0.000 A 
ATOM      3  S   UNL     1      -0.141   9.756  23.280  0.00  0.00    +0.000 S 
ATOM      4  C   UNL     1       0.123   9.711  21.603  0.00  0.00    +0.000 A 
ATOM      5  N   UNL     1       0.950   8.787  21.095  0.00  0.00    +0.000 NA
ATOM      6  C   UNL     1       1.102   8.891  19.774  0.00  0.00    +0.000 A 
ATOM      7  N   UNL     1       0.449   9.752  18.973  0.00  0.00    +0.000 NA
ATOM      8  C   UNL     1      -0.433  10.633  19.496  0.00  0.00    +0.000 A 
ATOM      9  N   UNL     1      -1.164  11.444  18.628  0.00  0.00    +0.000 N 
ATOM     10  C   UNL     1      -0.591  10.676  20.903  0.00  0.00    +0.000 A 
ATOM     11  H   UNL     1      -2.003  11.821  19.043  0.00  0.00    +0.000 HD
ENDROOT
BRANCH   6  12
ATOM     12  C   UNL     1       2.058   7.972  19.136  0.00  0.00    +0.000 A 
ATOM     13  C   UNL     1       2.671   8.285  17.915  0.00  0.00    +0.000 A 
ATOM     14  C   UNL     1       3.556   7.381  17.350  0.00  0.00    +0.000 A 
ATOM     15  N   UNL     1       3.868   6.191  17.903  0.00  0.00    +0.000 NA
ATOM     16  C   UNL     1       3.267   5.894  19.072  0.00  0.00    +0.000 A 
ATOM     17  C   UNL     1       2.379   6.738  19.719  0.00  0.00    +0.000 A 
ENDBRANCH   6  12
BRANCH   1  18
ATOM     18  C   UNL     1      -2.198  12.710  21.472  0.00  0.00    +0.000 C 
BRANCH  18  20
ATOM     19  C   UNL     1      -4.102  13.577  22.935  0.00  0.00    +0.000 C 
ATOM     20  C   UNL     1      -3.678  12.564  21.868  0.00  0.00    +0.000 C 
ATOM     21  C   UNL     1      -4.570  12.713  20.634  0.00  0.00    +0.000 C 
ENDBRANCH  18  20
ENDBRANCH   1  18
BRANCH   9  22
ATOM     22  C   UNL     1      -1.423  10.917  17.285  0.00  0.00    +0.000 C 
BRANCH  22  23
ATOM     23  C   UNL     1      -2.906  11.029  16.868  0.00  0.00    +0.000 C 
BRANCH  23  24
ATOM     24  N   UNL     1      -3.084  11.458  15.472  0.00  0.00    +0.000 NA
ATOM     25  H   UNL     1      -3.691  10.779  15.013  0.00  0.00    +0.000 HD
ATOM     26  H   UNL     1      -2.187  11.375  14.994  0.00  0.00    +0.000 HD
ENDBRANCH  23  24
ENDBRANCH  22  23
ENDBRANCH   9  22
TORSDOF 6
ENDMDL
