MODEL 1
REMARK VINA RESULT:      -6.9      0.000      0.000
REMARK  Name = 
REMARK  11 active torsions:
REMARK  status: ('A' for Active; 'I' for Inactive)
REMARK    1  A    between atoms: C_1  and  C_2
REMARK    2  A    between atoms: C_2  and  C_3
REMARK    3  A    between atoms: C_3  and  C_4
REMARK    4  A    between atoms: C_3  and  N_5
REMARK    5  A    between atoms: N_5  and  C_6
REMARK    6  A    between atoms: N_5  and  C_18
REMARK    7  A    between atoms: C_6  and  C_7
REMARK    8  A    between atoms: N_11  and  C_12
REMARK    9  A    between atoms: C_12  and  C_13
REMARK   10  A    between atoms: C_13  and  O_15
REMARK   11  A    between atoms: C_18  and  C_19
REMARK                            x       y       z     vdW  Elec       q    Type
REMARK                         _______ _______ _______ _____ _____    ______ ____
ROOT
ATOM      1  C   UNL     1       2.319   7.581  18.953  0.00  0.00    +0.000 A 
ATOM      2  C   UNL     1       2.396   8.216  17.731  0.00  0.00    +0.000 A 
ATOM      3  N   UNL     1       1.970   9.476  17.513  0.00  0.00    +0.000 NA
ATOM      4  C   UNL     1       1.431  10.118  18.553  0.00  0.00    +0.000 A 
ATOM      5  N   UNL     1       1.277  11.484  18.363  0.00  0.00    +0.000 N 
ATOM      6  N   UNL     1       1.139   9.533  19.719  0.00  0.00    +0.000 NA
ATOM      7  C   UNL     1       1.568   8.262  19.885  0.00  0.00    +0.000 A 
ATOM      8  H   UNL     1       1.159  11.575  17.353  0.00  0.00    +0.000 HD
ENDROOT
BRANCH   1   9
ATOM      9  C   UNL     1       3.089   6.325  19.264  0.00  0.00    +0.000 C 
BRANCH   9  10
ATOM     10  N   UNL     1       2.863   5.166  18.357  0.00  0.00    +0.000 NA
BRANCH  10  11
ATOM     11  C   UNL     1       2.496   3.863  18.980  0.00  0.00    +0.000 C 
ATOM     12  C   UNL     1       2.452   2.744  17.924  0.00  0.00    +0.000 C 
BRANCH  11  14
ATOM     13  C   UNL     1       1.294   3.024  21.131  0.00  0.00    +0.000 C 
ATOM     14  C   UNL     1       1.244   3.894  19.886  0.00  0.00    +0.000 C 
ENDBRANCH  11  14
ENDBRANCH  10  11
BRANCH  10  15
ATOM     15  C   UNL     1       3.900   5.083  17.313  0.00  0.00    +0.000 C 
BRANCH  15  16
ATOM     16  C   UNL     1       5.252   5.575  17.750  0.00  0.00    +0.000 A 
ATOM     17  C   UNL     1       5.924   6.699  17.152  0.00  0.00    +0.000 A 
ATOM     18  C   UNL     1       7.184   6.904  17.666  0.00  0.00    +0.000 A 
ATOM     19  S   UNL     1       7.566   5.772  18.886  0.00  0.00    +0.000 S 
ATOM     20  C   UNL     1       6.052   4.994  18.718  0.00  0.00    +0.000 A 
ENDBRANCH  15  16
ENDBRANCH  10  15
ENDBRANCH   9  10
ENDBRANCH   1   9
BRANCH   5  21
ATOM     21  C   UNL     1       0.206  12.082  19.167  0.00  0.00    +0.000 C 
BRANCH  21  22
ATOM     22  C   UNL     1      -0.445  13.199  18.358  0.00  0.00    +0.000 C 
ATOM     23  O   UNL     1      -0.320  14.392  18.584  0.00  0.00    +0.000 OA
BRANCH  22  24
ATOM     24  O   UNL     1      -1.173  12.716  17.314  0.00  0.00    +0.000 OA
ATOM     25  H   UNL     1      -1.314  11.751  17.462  0.00  0.00    +0.000 HD
ENDBRANCH  22  24
ENDBRANCH  21  22
ENDBRANCH   5  21
TORSDOF 9
ENDMDL
MODEL 2
REMARK VINA RESULT:      -6.9      3.155      4.728
REMARK  Name = 
REMARK  11 active torsions:
REMARK  status: ('A' for Active; 'I' for Inactive)
REMARK    1  A    between atoms: C_1  and  C_2
REMARK    2  A    between atoms: C_2  and  C_3
REMARK    3  A    between atoms: C_3  and  C_4
REMARK    4  A    between atoms: C_3  and  N_5
REMARK    5  A    between atoms: N_5  and  C_6
REMARK    6  A    between atoms: N_5  and  C_18
REMARK    7  A    between atoms: C_6  and  C_7
REMARK    8  A    between atoms: N_11  and  C_12
REMARK    9  A    between atoms: C_12  and  C_13
REMARK   10  A    between atoms: C_13  and  O_15
REMARK   11  A    between atoms: C_18  and  C_19
REMARK                            x       y       z     vdW  Elec       q    Type
REMARK                         _______ _______ _______ _____ _____    ______ ____
ROOT
ATOM      1  C   UNL     1       3.281   7.421  18.010  0.00  0.00    +0.000 A 
ATOM      2  C   UNL     1       2.509   8.482  17.586  0.00  0.00    +0.000 A 
ATOM      3  N   UNL     1       1.617   9.121  18.369  0.00  0.00    +0.000 NA
ATOM      4  C   UNL     1       1.482   8.670  19.619  0.00  0.00    +0.000 A 
ATOM      5  N   UNL     1       0.782   9.524  20.461  0.00  0.00    +0.000 N 
ATOM      6  N   UNL     1       2.038   7.540  20.068  0.00  0.00    +0.000 NA
ATOM      7  C   UNL     1       2.910   6.922  19.240  0.00  0.00    +0.000 A 
ATOM      8  H   UNL     1       0.153  10.023  19.830  0.00  0.00    +0.000 HD
ENDROOT
BRANCH   1   9
ATOM      9  C   UNL     1       4.490   6.942  17.251  0.00  0.00    +0.000 C 
BRANCH   9  10
ATOM     10  N   UNL     1       4.884   5.521  17.458  0.00  0.00    +0.000 NA
BRANCH  10  11
ATOM     11  C   UNL     1       6.336   5.193  17.413  0.00  0.00    +0.000 C 
ATOM     12  C   UNL     1       7.189   6.472  17.478  0.00  0.00    +0.000 C 
BRANCH  11  14
ATOM     13  C   UNL     1       7.069   4.881  14.934  0.00  0.00    +0.000 C 
ATOM     14  C   UNL     1       6.762   4.235  16.275  0.00  0.00    +0.000 C 
ENDBRANCH  11  14
ENDBRANCH  10  11
BRANCH  10  15
ATOM     15  C   UNL     1       4.017   4.601  16.699  0.00  0.00    +0.000 C 
BRANCH  15  16
ATOM     16  C   UNL     1       3.164   3.712  17.560  0.00  0.00    +0.000 A 
ATOM     17  C   UNL     1       3.651   2.524  18.209  0.00  0.00    +0.000 A 
ATOM     18  C   UNL     1       2.662   1.832  18.873  0.00  0.00    +0.000 A 
ATOM     19  S   UNL     1       1.148   2.611  18.749  0.00  0.00    +0.000 S 
ATOM     20  C   UNL     1       1.808   3.867  17.792  0.00  0.00    +0.000 A 
ENDBRANCH  15  16
ENDBRANCH  10  15
ENDBRANCH   9  10
ENDBRANCH   1   9
BRANCH   5  21
ATOM     21  C   UNL     1       0.124   8.849  21.583  0.00  0.00    +0.000 C 
BRANCH  21  22
ATOM     22  C   UNL     1       0.682   9.412  22.887  0.00  0.00    +0.000 C 
ATOM     23  O   UNL     1       0.011   9.887  23.789  0.00  0.00    +0.000 OA
BRANCH  22  24
ATOM     24  O   UNL     1       2.037   9.298  22.953  0.00  0.00    +0.000 OA
ATOM     25  H   UNL     1       2.369   9.984  23.579  0.00  0.00    +0.000 HD
ENDBRANCH  22  24
ENDBRANCH  21  22
ENDBRANCH   5  21
TORSDOF 9
ENDMDL
MODEL 3
REMARK VINA RESULT:      -6.9      1.328      1.549
REMARK  Name = 
REMARK  11 active torsions:
REMARK  status: ('A' for Active; 'I' for Inactive)
REMARK    1  A    between atoms: C_1  and  C_2
REMARK    2  A    between atoms: C_2  and  C_3
REMARK    3  A    between atoms: C_3  and  C_4
REMARK    4  A    between atoms: C_3  and  N_5
REMARK    5  A    between atoms: N_5  and  C_6
REMARK    6  A    between atoms: N_5  and  C_18
REMARK    7  A    between atoms: C_6  and  C_7
REMARK    8  A    between atoms: N_11  and  C_12
REMARK    9  A    between atoms: C_12  and  C_13
REMARK   10  A    between atoms: C_13  and  O_15
REMARK   11  A    between atoms: C_18  and  C_19
REMARK                            x       y       z     vdW  Elec       q    Type
REMARK                         _______ _______ _______ _____ _____    ______ ____
ROOT
ATOM      1  C   UNL     1       2.099   7.641  19.423  0.00  0.00    +0.000 A 
ATOM      2  C   UNL     1       2.221   8.114  18.134  0.00  0.00    +0.000 A 
ATOM      3  N   UNL     1       1.845   9.349  17.748  0.00  0.00    +0.000 NA
ATOM      4  C   UNL     1       1.311  10.135  18.687  0.00  0.00    +0.000 A 
ATOM      5  N   UNL     1       1.209  11.471  18.323  0.00  0.00    +0.000 N 
ATOM      6  N   UNL     1       0.976   9.713  19.911  0.00  0.00    +0.000 NA
ATOM      7  C   UNL     1       1.356   8.459  20.245  0.00  0.00    +0.000 A 
ATOM      8  H   UNL     1       1.113  11.437  17.307  0.00  0.00    +0.000 HD
ENDROOT
BRANCH   1   9
ATOM      9  C   UNL     1       2.817   6.409  19.908  0.00  0.00    +0.000 C 
BRANCH   9  10
ATOM     10  N   UNL     1       3.359   5.501  18.859  0.00  0.00    +0.000 NA
BRANCH  10  11
ATOM     11  C   UNL     1       2.751   4.147  18.736  0.00  0.00    +0.000 C 
ATOM     12  C   UNL     1       1.632   4.143  17.679  0.00  0.00    +0.000 C 
BRANCH  11  14
ATOM     13  C   UNL     1       0.835   3.326  20.296  0.00  0.00    +0.000 C 
ATOM     14  C   UNL     1       2.329   3.489  20.071  0.00  0.00    +0.000 C 
ENDBRANCH  11  14
ENDBRANCH  10  11
BRANCH  10  15
ATOM     15  C   UNL     1       4.833   5.523  18.831  0.00  0.00    +0.000 C 
BRANCH  15  16
ATOM     16  C   UNL     1       5.423   5.351  17.459  0.00  0.00    +0.000 A 
ATOM     17  C   UNL     1       4.975   6.078  16.301  0.00  0.00    +0.000 A 
ATOM     18  C   UNL     1       5.611   5.686  15.144  0.00  0.00    +0.000 A 
ATOM     19  S   UNL     1       6.767   4.465  15.436  0.00  0.00    +0.000 S 
ATOM     20  C   UNL     1       6.408   4.445  17.108  0.00  0.00    +0.000 A 
ENDBRANCH  15  16
ENDBRANCH  10  15
ENDBRANCH   9  10
ENDBRANCH   1   9
BRANCH   5  21
ATOM     21  C   UNL     1       0.147  12.201  19.020  0.00  0.00    +0.000 C 
BRANCH  21  22
ATOM     22  C   UNL     1      -1.164  11.988  18.271  0.00  0.00    +0.000 C 
ATOM     23  O   UNL     1      -2.098  11.311  18.670  0.00  0.00    +0.000 OA
BRANCH  22  24
ATOM     24  O   UNL     1      -1.198  12.675  17.095  0.00  0.00    +0.000 OA
ATOM     25  H   UNL     1      -0.324  13.117  16.977  0.00  0.00    +0.000 HD
ENDBRANCH  22  24
ENDBRANCH  21  22
ENDBRANCH   5  21
TORSDOF 9
ENDMDL
MODEL 4
REMARK VINA RESULT:      -6.9      2.690      4.532
REMARK  Name = 
REMARK  11 active torsions:
REMARK  status: ('A' for Active; 'I' for Inactive)
REMARK    1  A    between atoms: C_1  and  C_2
REMARK    2  A    between atoms: C_2  and  C_3
REMARK    3  A    between atoms: C_3  and  C_4
REMARK    4  A    between atoms: C_3  and  N_5
REMARK    5  A    between atoms: N_5  and  C_6
REMARK    6  A    between atoms: N_5  and  C_18
REMARK    7  A    between atoms: C_6  and  C_7
REMARK    8  A    between atoms: N_11  and  C_12
REMARK    9  A    between atoms: C_12  and  C_13
REMARK   10  A    between atoms: C_13  and  O_15
REMARK   11  A    between atoms: C_18  and  C_19
REMARK                            x       y       z     vdW  Elec       q    Type
REMARK                         _______ _______ _______ _____ _____    ______ ____
ROOT
ATOM      1  C   UNL     1       3.058   7.500  18.033  0.00  0.00    +0.000 A 
ATOM      2  C   UNL     1       2.268   8.553  17.623  0.00  0.00    +0.000 A 
ATOM      3  N   UNL     1       1.401   9.200  18.428  0.00  0.00    +0.000 NA
ATOM      4  C   UNL     1       1.312   8.764  19.688  0.00  0.00    +0.000 A 
ATOM      5  N   UNL     1       0.638   9.627  20.543  0.00  0.00    +0.000 N 
ATOM      6  N   UNL     1       1.886   7.642  20.131  0.00  0.00    +0.000 NA
ATOM      7  C   UNL     1       2.731   7.015  19.281  0.00  0.00    +0.000 A 
ATOM      8  H   UNL     1      -0.013  10.116  19.928  0.00  0.00    +0.000 HD
ENDROOT
BRANCH   1   9
ATOM      9  C   UNL     1       4.241   7.014  17.238  0.00  0.00    +0.000 C 
BRANCH   9  10
ATOM     10  N   UNL     1       4.915   5.783  17.736  0.00  0.00    +0.000 NA
BRANCH  10  11
ATOM     11  C   UNL     1       6.396   5.821  17.889  0.00  0.00    +0.000 C 
ATOM     12  C   UNL     1       6.806   5.500  19.337  0.00  0.00    +0.000 C 
BRANCH  11  14
ATOM     13  C   UNL     1       8.139   7.727  18.217  0.00  0.00    +0.000 C 
ATOM     14  C   UNL     1       7.086   7.086  17.328  0.00  0.00    +0.000 C 
ENDBRANCH  11  14
ENDBRANCH  10  11
BRANCH  10  15
ATOM     15  C   UNL     1       4.391   4.573  17.078  0.00  0.00    +0.000 C 
BRANCH  15  16
ATOM     16  C   UNL     1       3.446   3.772  17.929  0.00  0.00    +0.000 A 
ATOM     17  C   UNL     1       2.150   3.332  17.486  0.00  0.00    +0.000 A 
ATOM     18  C   UNL     1       1.437   2.687  18.472  0.00  0.00    +0.000 A 
ATOM     19  S   UNL     1       2.322   2.578  19.928  0.00  0.00    +0.000 S 
ATOM     20  C   UNL     1       3.654   3.408  19.249  0.00  0.00    +0.000 A 
ENDBRANCH  15  16
ENDBRANCH  10  15
ENDBRANCH   9  10
ENDBRANCH   1   9
BRANCH   5  21
ATOM     21  C   UNL     1       0.022   8.964  21.695  0.00  0.00    +0.000 C 
BRANCH  21  22
ATOM     22  C   UNL     1       0.044   9.925  22.880  0.00  0.00    +0.000 C 
ATOM     23  O   UNL     1       0.275   9.607  24.036  0.00  0.00    +0.000 OA
BRANCH  22  24
ATOM     24  O   UNL     1      -0.195  11.210  22.499  0.00  0.00    +0.000 OA
ATOM     25  H   UNL     1       0.587  11.753  22.756  0.00  0.00    +0.000 HD
ENDBRANCH  22  24
ENDBRANCH  21  22
ENDBRANCH   5  21
TORSDOF 9
ENDMDL
MODEL 5
REMARK VINA RESULT:      -6.9      1.532      1.857
REMARK  Name = 
REMARK  11 active torsions:
REMARK  status: ('A' for Active; 'I' for Inactive)
REMARK    1  A    between atoms: C_1  and  C_2
REMARK    2  A    between atoms: C_2  and  C_3
REMARK    3  A    between atoms: C_3  and  C_4
REMARK    4  A    between atoms: C_3  and  N_5
REMARK    5  A    between atoms: N_5  and  C_6
REMARK    6  A    between atoms: N_5  and  C_18
REMARK    7  A    between atoms: C_6  and  C_7
REMARK    8  A    between atoms: N_11  and  C_12
REMARK    9  A    between atoms: C_12  and  C_13
REMARK   10  A    between atoms: C_13  and  O_15
REMARK   11  A    between atoms: C_18  and  C_19
REMARK                            x       y       z     vdW  Elec       q    Type
REMARK                         _______ _______ _______ _____ _____    ______ ____
ROOT
ATOM      1  C   UNL     1       2.358   7.044  19.511  0.00  0.00    +0.000 A 
ATOM      2  C   UNL     1       2.364   7.409  18.181  0.00  0.00    +0.000 A 
ATOM      3  N   UNL     1       1.902   8.591  17.725  0.00  0.00    +0.000 NA
ATOM      4  C   UNL     1       1.401   9.432  18.634  0.00  0.00    +0.000 A 
ATOM      5  N   UNL     1       1.210  10.727  18.170  0.00  0.00    +0.000 N 
ATOM      6  N   UNL     1       1.177   9.102  19.910  0.00  0.00    +0.000 NA
ATOM      7  C   UNL     1       1.639   7.899  20.317  0.00  0.00    +0.000 A 
ATOM      8  H   UNL     1       1.043  10.602  17.171  0.00  0.00    +0.000 HD
ENDROOT
BRANCH   1   9
ATOM      9  C   UNL     1       3.167   5.889  20.039  0.00  0.00    +0.000 C 
BRANCH   9  10
ATOM     10  N   UNL     1       3.577   4.857  19.046  0.00  0.00    +0.000 NA
BRANCH  10  11
ATOM     11  C   UNL     1       2.860   3.552  19.071  0.00  0.00    +0.000 C 
ATOM     12  C   UNL     1       1.556   3.628  18.257  0.00  0.00    +0.000 C 
BRANCH  11  14
ATOM     13  C   UNL     1       1.244   2.916  21.011  0.00  0.00    +0.000 C 
ATOM     14  C   UNL     1       2.666   2.932  20.475  0.00  0.00    +0.000 C 
ENDBRANCH  11  14
ENDBRANCH  10  11
BRANCH  10  15
ATOM     15  C   UNL     1       5.044   4.756  18.942  0.00  0.00    +0.000 C 
BRANCH  15  16
ATOM     16  C   UNL     1       5.561   4.772  17.531  0.00  0.00    +0.000 A 
ATOM     17  C   UNL     1       6.938   4.538  17.183  0.00  0.00    +0.000 A 
ATOM     18  C   UNL     1       7.183   4.688  15.837  0.00  0.00    +0.000 A 
ATOM     19  S   UNL     1       5.765   5.083  14.972  0.00  0.00    +0.000 S 
ATOM     20  C   UNL     1       4.822   5.072  16.399  0.00  0.00    +0.000 A 
ENDBRANCH  15  16
ENDBRANCH  10  15
ENDBRANCH   9  10
ENDBRANCH   1   9
BRANCH   5  21
ATOM     21  C   UNL     1       0.168  11.469  18.884  0.00  0.00    +0.000 C 
BRANCH  21  22
ATOM     22  C   UNL     1      -1.146  11.316  18.125  0.00  0.00    +0.000 C 
ATOM     23  O   UNL     1      -1.910  10.370  18.229  0.00  0.00    +0.000 OA
BRANCH  22  24
ATOM     24  O   UNL     1      -1.401  12.388  17.325  0.00  0.00    +0.000 OA
ATOM     25  H   UNL     1      -0.895  12.268  16.487  0.00  0.00    +0.000 HD
ENDBRANCH  22  24
ENDBRANCH  21  22
ENDBRANCH   5  21
TORSDOF 9
ENDMDL
MODEL 6
REMARK VINA RESULT:      -6.9      1.453      1.832
REMARK  Name = 
REMARK  11 active torsions:
REMARK  status: ('A' for Active; 'I' for Inactive)
REMARK    1  A    between atoms: C_1  and  C_2
REMARK    2  A    between atoms: C_2  and  C_3
REMARK    3  A    between atoms: C_3  and  C_4
REMARK    4  A    between atoms: C_3  and  N_5
REMARK    5  A    between atoms: N_5  and  C_6
REMARK    6  A    between atoms: N_5  and  C_18
REMARK    7  A    between atoms: C_6  and  C_7
REMARK    8  A    between atoms: N_11  and  C_12
REMARK    9  A    between atoms: C_12  and  C_13
REMARK   10  A    between atoms: C_13  and  O_15
REMARK   11  A    between atoms: C_18  and  C_19
REMARK                            x       y       z     vdW  Elec       q    Type
REMARK                         _______ _______ _______ _____ _____    ______ ____
ROOT
ATOM      1  C   UNL     1       2.413   7.633  19.049  0.00  0.00    +0.000 A 
ATOM      2  C   UNL     1       2.338   8.230  17.809  0.00  0.00    +0.000 A 
ATOM      3  N   UNL     1       1.711   9.400  17.576  0.00  0.00    +0.000 NA
ATOM      4  C   UNL     1       1.123   9.986  18.623  0.00  0.00    +0.000 A 
ATOM      5  N   UNL     1       0.749  11.305  18.403  0.00  0.00    +0.000 N 
ATOM      6  N   UNL     1       0.975   9.403  19.817  0.00  0.00    +0.000 NA
ATOM      7  C   UNL     1       1.604   8.220  19.997  0.00  0.00    +0.000 A 
ATOM      8  H   UNL     1       0.576  11.342  17.397  0.00  0.00    +0.000 HD
ENDROOT
BRANCH   1   9
ATOM      9  C   UNL     1       3.383   6.523  19.358  0.00  0.00    +0.000 C 
BRANCH   9  10
ATOM     10  N   UNL     1       3.062   5.184  18.791  0.00  0.00    +0.000 NA
BRANCH  10  11
ATOM     11  C   UNL     1       1.714   4.617  19.077  0.00  0.00    +0.000 C 
ATOM     12  C   UNL     1       1.554   4.315  20.577  0.00  0.00    +0.000 C 
BRANCH  11  14
ATOM     13  C   UNL     1       0.745   2.209  18.878  0.00  0.00    +0.000 C 
ATOM     14  C   UNL     1       1.288   3.439  18.169  0.00  0.00    +0.000 C 
ENDBRANCH  11  14
ENDBRANCH  10  11
BRANCH  10  15
ATOM     15  C   UNL     1       4.180   4.239  18.962  0.00  0.00    +0.000 C 
BRANCH  15  16
ATOM     16  C   UNL     1       5.175   4.254  17.835  0.00  0.00    +0.000 A 
ATOM     17  C   UNL     1       6.554   4.633  17.992  0.00  0.00    +0.000 A 
ATOM     18  C   UNL     1       7.244   4.648  16.801  0.00  0.00    +0.000 A 
ATOM     19  S   UNL     1       6.257   4.184  15.488  0.00  0.00    +0.000 S 
ATOM     20  C   UNL     1       4.899   3.978  16.507  0.00  0.00    +0.000 A 
ENDBRANCH  15  16
ENDBRANCH  10  15
ENDBRANCH   9  10
ENDBRANCH   1   9
BRANCH   5  21
ATOM     21  C   UNL     1      -0.367  11.756  19.239  0.00  0.00    +0.000 C 
BRANCH  21  22
ATOM     22  C   UNL     1      -1.581  11.994  18.346  0.00  0.00    +0.000 C 
ATOM     23  O   UNL     1      -2.738  11.766  18.661  0.00  0.00    +0.000 OA
BRANCH  22  24
ATOM     24  O   UNL     1      -1.232  12.530  17.144  0.00  0.00    +0.000 OA
ATOM     25  H   UNL     1      -1.553  13.463  17.123  0.00  0.00    +0.000 HD
ENDBRANCH  22  24
ENDBRANCH  21  22
ENDBRANCH   5  21
TORSDOF 9
ENDMDL
MODEL 7
REMARK VINA RESULT:      -6.7      1.512      1.841
REMARK  Name = 
REMARK  11 active torsions:
REMARK  status: ('A' for Active; 'I' for Inactive)
REMARK    1  A    between atoms: C_1  and  C_2
REMARK    2  A    between atoms: C_2  and  C_3
REMARK    3  A    between atoms: C_3  and  C_4
REMARK    4  A    between atoms: C_3  and  N_5
REMARK    5  A    between atoms: N_5  and  C_6
REMARK    6  A    between atoms: N_5  and  C_18
REMARK    7  A    between atoms: C_6  and  C_7
REMARK    8  A    between atoms: N_11  and  C_12
REMARK    9  A    between atoms: C_12  and  C_13
REMARK   10  A    between atoms: C_13  and  O_15
REMARK   11  A    between atoms: C_18  and  C_19
REMARK                            x       y       z     vdW  Elec       q    Type
REMARK                         _______ _______ _______ _____ _____    ______ ____
ROOT
ATOM      1  C   UNL     1       2.524   7.052  19.313  0.00  0.00    +0.000 A 
ATOM      2  C   UNL     1       2.639   7.513  18.018  0.00  0.00    +0.000 A 
ATOM      3  N   UNL     1       2.214   8.726  17.612  0.00  0.00    +0.000 NA
ATOM      4  C   UNL     1       1.637   9.500  18.535  0.00  0.00    +0.000 A 
ATOM      5  N   UNL     1       1.482  10.826  18.151  0.00  0.00    +0.000 N 
ATOM      6  N   UNL     1       1.308   9.080  19.760  0.00  0.00    +0.000 NA
ATOM      7  C   UNL     1       1.737   7.849  20.116  0.00  0.00    +0.000 A 
ATOM      8  H   UNL     1       1.399  10.774  17.135  0.00  0.00    +0.000 HD
ENDROOT
BRANCH   1   9
ATOM      9  C   UNL     1       3.289   5.859  19.822  0.00  0.00    +0.000 C 
BRANCH   9  10
ATOM     10  N   UNL     1       3.280   4.647  18.957  0.00  0.00    +0.000 NA
BRANCH  10  11
ATOM     11  C   UNL     1       2.178   3.664  19.155  0.00  0.00    +0.000 C 
ATOM     12  C   UNL     1       1.260   3.614  17.921  0.00  0.00    +0.000 C 
BRANCH  11  14
ATOM     13  C   UNL     1       1.817   2.864  21.607  0.00  0.00    +0.000 C 
ATOM     14  C   UNL     1       1.402   3.803  20.486  0.00  0.00    +0.000 C 
ENDBRANCH  11  14
ENDBRANCH  10  11
BRANCH  10  15
ATOM     15  C   UNL     1       4.624   4.055  18.839  0.00  0.00    +0.000 C 
BRANCH  15  16
ATOM     16  C   UNL     1       5.295   4.314  17.518  0.00  0.00    +0.000 A 
ATOM     17  C   UNL     1       4.633   4.179  16.247  0.00  0.00    +0.000 A 
ATOM     18  C   UNL     1       5.477   4.387  15.180  0.00  0.00    +0.000 A 
ATOM     19  S   UNL     1       7.061   4.773  15.687  0.00  0.00    +0.000 S 
ATOM     20  C   UNL     1       6.626   4.645  17.336  0.00  0.00    +0.000 A 
ENDBRANCH  15  16
ENDBRANCH  10  15
ENDBRANCH   9  10
ENDBRANCH   1   9
BRANCH   5  21
ATOM     21  C   UNL     1       0.382  11.519  18.828  0.00  0.00    +0.000 C 
BRANCH  21  22
ATOM     22  C   UNL     1       0.970  12.573  19.760  0.00  0.00    +0.000 C 
ATOM     23  O   UNL     1       1.533  12.339  20.817  0.00  0.00    +0.000 OA
BRANCH  22  24
ATOM     24  O   UNL     1       0.825  13.832  19.262  0.00  0.00    +0.000 OA
ATOM     25  H   UNL     1       1.720  14.167  19.018  0.00  0.00    +0.000 HD
ENDBRANCH  22  24
ENDBRANCH  21  22
ENDBRANCH   5  21
TORSDOF 9
ENDMDL
MODEL 8
REMARK VINA RESULT:      -6.7      4.711      7.672
REMARK  Name = 
REMARK  11 active torsions:
REMARK  status: ('A' for Active; 'I' for Inactive)
REMARK    1  A    between atoms: C_1  and  C_2
REMARK    2  A    between atoms: C_2  and  C_3
REMARK    3  A    between atoms: C_3  and  C_4
REMARK    4  A    between atoms: C_3  and  N_5
REMARK    5  A    between atoms: N_5  and  C_6
REMARK    6  A    between atoms: N_5  and  C_18
REMARK    7  A    between atoms: C_6  and  C_7
REMARK    8  A    between atoms: N_11  and  C_12
REMARK    9  A    between atoms: C_12  and  C_13
REMARK   10  A    between atoms: C_13  and  O_15
REMARK   11  A    between atoms: C_18  and  C_19
REMARK                            x       y       z     vdW  Elec       q    Type
REMARK                         _______ _______ _______ _____ _____    ______ ____
ROOT
ATOM      1  C   UNL     1       4.184   5.453  18.009  0.00  0.00    +0.000 A 
ATOM      2  C   UNL     1       4.037   4.105  17.758  0.00  0.00    +0.000 A 
ATOM      3  N   UNL     1       4.594   3.472  16.707  0.00  0.00    +0.000 NA
ATOM      4  C   UNL     1       5.312   4.221  15.866  0.00  0.00    +0.000 A 
ATOM      5  N   UNL     1       6.093   3.492  14.978  0.00  0.00    +0.000 N 
ATOM      6  N   UNL     1       5.359   5.556  15.911  0.00  0.00    +0.000 NA
ATOM      7  C   UNL     1       4.768   6.149  16.973  0.00  0.00    +0.000 A 
ATOM      8  H   UNL     1       5.577   2.619  14.864  0.00  0.00    +0.000 HD
ENDROOT
BRANCH   1   9
ATOM      9  C   UNL     1       3.848   6.073  19.339  0.00  0.00    +0.000 C 
BRANCH   9  10
ATOM     10  N   UNL     1       2.455   6.573  19.506  0.00  0.00    +0.000 NA
BRANCH  10  11
ATOM     11  C   UNL     1       2.227   8.039  19.377  0.00  0.00    +0.000 C 
ATOM     12  C   UNL     1       1.241   8.536  20.449  0.00  0.00    +0.000 C 
BRANCH  11  14
ATOM     13  C   UNL     1       1.808  10.037  17.761  0.00  0.00    +0.000 C 
ATOM     14  C   UNL     1       1.877   8.531  17.953  0.00  0.00    +0.000 C 
ENDBRANCH  11  14
ENDBRANCH  10  11
BRANCH  10  15
ATOM     15  C   UNL     1       1.785   5.940  20.656  0.00  0.00    +0.000 C 
BRANCH  15  16
ATOM     16  C   UNL     1       1.640   4.448  20.537  0.00  0.00    +0.000 A 
ATOM     17  C   UNL     1       2.141   3.518  21.514  0.00  0.00    +0.000 A 
ATOM     18  C   UNL     1       1.962   2.204  21.143  0.00  0.00    +0.000 A 
ATOM     19  S   UNL     1       1.167   2.071  19.637  0.00  0.00    +0.000 S 
ATOM     20  C   UNL     1       1.078   3.771  19.469  0.00  0.00    +0.000 A 
ENDBRANCH  15  16
ENDBRANCH  10  15
ENDBRANCH   9  10
ENDBRANCH   1   9
BRANCH   5  21
ATOM     21  C   UNL     1       6.394   4.199  13.730  0.00  0.00    +0.000 C 
BRANCH  21  22
ATOM     22  C   UNL     1       5.838   3.388  12.563  0.00  0.00    +0.000 C 
ATOM     23  O   UNL     1       4.709   3.493  12.112  0.00  0.00    +0.000 OA
BRANCH  22  24
ATOM     24  O   UNL     1       6.766   2.537  12.045  0.00  0.00    +0.000 OA
ATOM     25  H   UNL     1       7.614   3.031  11.954  0.00  0.00    +0.000 HD
ENDBRANCH  22  24
ENDBRANCH  21  22
ENDBRANCH   5  21
TORSDOF 9
ENDMDL
MODEL 9
REMARK VINA RESULT:      -6.7      4.842      7.162
REMARK  Name = 
REMARK  11 active torsions:
REMARK  status: ('A' for Active; 'I' for Inactive)
REMARK    1  A    between atoms: C_1  and  C_2
REMARK    2  A    between atoms: C_2  and  C_3
REMARK    3  A    between atoms: C_3  and  C_4
REMARK    4  A    between atoms: C_3  and  N_5
REMARK    5  A    between atoms: N_5  and  C_6
REMARK    6  A    between atoms: N_5  and  C_18
REMARK    7  A    between atoms: C_6  and  C_7
REMARK    8  A    between atoms: N_11  and  C_12
REMARK    9  A    between atoms: C_12  and  C_13
REMARK   10  A    between atoms: C_13  and  O_15
REMARK   11  A    between atoms: C_18  and  C_19
REMARK                            x       y       z     vdW  Elec       q    Type
REMARK                         _______ _______ _______ _____ _____    ______ ____
ROOT
ATOM      1  C   UNL     1       5.135   4.378  18.509  0.00  0.00    +0.000 A 
ATOM      2  C   UNL     1       6.327   5.072  18.511  0.00  0.00    +0.000 A 
ATOM      3  N   UNL     1       7.044   5.336  17.400  0.00  0.00    +0.000 NA
ATOM      4  C   UNL     1       6.555   4.874  16.246  0.00  0.00    +0.000 A 
ATOM      5  N   UNL     1       7.159   5.409  15.115  0.00  0.00    +0.000 N 
ATOM      6  N   UNL     1       5.517   4.036  16.158  0.00  0.00    +0.000 NA
ATOM      7  C   UNL     1       4.842   3.784  17.301  0.00  0.00    +0.000 A 
ATOM      8  H   UNL     1       8.104   5.634  15.431  0.00  0.00    +0.000 HD
ENDROOT
BRANCH   1   9
ATOM      9  C   UNL     1       4.193   4.381  19.683  0.00  0.00    +0.000 C 
BRANCH   9  10
ATOM     10  N   UNL     1       3.039   5.320  19.606  0.00  0.00    +0.000 NA
BRANCH  10  11
ATOM     11  C   UNL     1       1.675   4.731  19.508  0.00  0.00    +0.000 C 
ATOM     12  C   UNL     1       1.281   4.037  20.824  0.00  0.00    +0.000 C 
BRANCH  11  14
ATOM     13  C   UNL     1       1.376   2.353  18.490  0.00  0.00    +0.000 C 
ATOM     14  C   UNL     1       1.422   3.854  18.259  0.00  0.00    +0.000 C 
ENDBRANCH  11  14
ENDBRANCH  10  11
BRANCH  10  15
ATOM     15  C   UNL     1       3.304   6.430  18.673  0.00  0.00    +0.000 C 
BRANCH  15  16
ATOM     16  C   UNL     1       2.382   7.606  18.842  0.00  0.00    +0.000 A 
ATOM     17  C   UNL     1       1.952   8.444  17.755  0.00  0.00    +0.000 A 
ATOM     18  C   UNL     1       1.180   9.506  18.171  0.00  0.00    +0.000 A 
ATOM     19  S   UNL     1       0.939   9.494  19.861  0.00  0.00    +0.000 S 
ATOM     20  C   UNL     1       1.883   8.079  20.043  0.00  0.00    +0.000 A 
ENDBRANCH  15  16
ENDBRANCH  10  15
ENDBRANCH   9  10
ENDBRANCH   1   9
BRANCH   5  21
ATOM     21  C   UNL     1       7.091   4.543  13.935  0.00  0.00    +0.000 C 
BRANCH  21  22
ATOM     22  C   UNL     1       7.842   5.217  12.791  0.00  0.00    +0.000 C 
ATOM     23  O   UNL     1       7.557   5.116  11.609  0.00  0.00    +0.000 OA
BRANCH  22  24
ATOM     24  O   UNL     1       8.871   5.989  13.241  0.00  0.00    +0.000 OA
ATOM     25  H   UNL     1       9.695   5.449  13.203  0.00  0.00    +0.000 HD
ENDBRANCH  22  24
ENDBRANCH  21  22
ENDBRANCH   5  21
TORSDOF 9
ENDMDL
