MODEL 1
REMARK VINA RESULT:      -8.0      0.000      0.000
REMARK  Name = 
REMARK  7 active torsions:
REMARK  status: ('A' for Active; 'I' for Inactive)
REMARK    1  A    between atoms: C_1  and  N_2
REMARK    2  A    between atoms: N_5  and  C_6
REMARK    3  A    between atoms: C_6  and  C_7
REMARK    4  A    between atoms: C_7  and  C_8
REMARK    5  A    between atoms: C_8  and  N_9
REMARK    6  A    between atoms: C_13  and  C_14
REMARK    7  A    between atoms: C_17  and  C_18
REMARK                            x       y       z     vdW  Elec       q    Type
REMARK                         _______ _______ _______ _____ _____    ______ ____
ROOT
ATOM      1  N   UNL     1       3.984   5.984  17.971  0.00  0.00    +0.000 N 
ATOM      2  C   UNL     1       3.472   6.000  19.334  0.00  0.00    +0.000 C 
ATOM      3  C   UNL     1       2.671   7.262  19.352  0.00  0.00    +0.000 A 
ATOM      4  C   UNL     1       1.890   7.816  20.354  0.00  0.00    +0.000 A 
ATOM      5  C   UNL     1       1.219   9.031  20.098  0.00  0.00    +0.000 A 
ATOM      6  C   UNL     1       1.411   9.685  18.854  0.00  0.00    +0.000 A 
ATOM      7  C   UNL     1       2.197   9.124  17.852  0.00  0.00    +0.000 A 
ATOM      8  C   UNL     1       2.781   7.909  18.125  0.00  0.00    +0.000 A 
ATOM      9  C   UNL     1       3.590   7.082  17.232  0.00  0.00    +0.000 C 
ATOM     10  O   UNL     1       3.850   7.366  16.080  0.00  0.00    +0.000 OA
ENDROOT
BRANCH   5  11
ATOM     11  C   UNL     1       0.285   9.629  21.064  0.00  0.00    +0.000 A 
ATOM     12  C   UNL     1       0.135   9.343  22.409  0.00  0.00    +0.000 A 
ATOM     13  C   UNL     1      -0.798  10.202  23.055  0.00  0.00    +0.000 A 
ATOM     14  C   UNL     1      -1.357  11.120  22.190  0.00  0.00    +0.000 A 
ATOM     15  S   UNL     1      -0.727  10.936  20.607  0.00  0.00    +0.000 S 
BRANCH  14  16
ATOM     16  C   UNL     1      -2.300  12.142  22.454  0.00  0.00    +0.000 C 
ATOM     17  C   UNL     1      -1.935  13.409  22.666  0.00  0.00    +0.000 C 
ATOM     18  N   UNL     1      -2.807  14.419  22.979  0.00  0.00    +0.000 N 
ATOM     19  C   UNL     1      -2.108  15.592  23.185  0.00  0.00    +0.000 C 
ATOM     20  S   UNL     1      -2.767  17.044  23.604  0.00  0.00    +0.000 S 
ATOM     21  N   UNL     1      -0.778  15.341  22.988  0.00  0.00    +0.000 N 
ATOM     22  C   UNL     1      -0.563  14.029  22.652  0.00  0.00    +0.000 C 
ATOM     23  O   UNL     1       0.504  13.511  22.396  0.00  0.00    +0.000 OA
ATOM     24  H   UNL     1      -3.809  14.333  23.082  0.00  0.00    +0.000 HD
ATOM     25  H   UNL     1      -0.038  16.019  23.063  0.00  0.00    +0.000 HD
ENDBRANCH  14  16
ENDBRANCH   5  11
BRANCH   1  26
ATOM     26  C   UNL     1       4.914   4.981  17.494  0.00  0.00    +0.000 C 
BRANCH  26  27
ATOM     27  C   UNL     1       4.237   3.638  17.206  0.00  0.00    +0.000 C 
BRANCH  27  28
ATOM     28  C   UNL     1       2.705   3.703  17.247  0.00  0.00    +0.000 C 
BRANCH  28  33
ATOM     29  C   UNL     1       2.104   3.189  22.001  0.00  0.00    +0.000 C 
ATOM     30  N   UNL     1       1.890   2.566  20.701  0.00  0.00    +0.000 NA
ATOM     31  C   UNL     1       3.169   2.314  20.014  0.00  0.00    +0.000 C 
ATOM     32  C   UNL     1       2.947   1.678  18.623  0.00  0.00    +0.000 C 
ATOM     33  N   UNL     1       2.073   2.460  17.720  0.00  0.00    +0.000 NA
ATOM     34  C   UNL     1       0.814   2.752  18.448  0.00  0.00    +0.000 C 
ATOM     35  C   UNL     1       1.008   3.384  19.849  0.00  0.00    +0.000 C 
ENDBRANCH  28  33
ENDBRANCH  27  28
ENDBRANCH  26  27
ENDBRANCH   1  26
TORSDOF 6
ENDMDL
MODEL 2
REMARK VINA RESULT:      -8.0      1.132      1.301
REMARK  Name = 
REMARK  7 active torsions:
REMARK  status: ('A' for Active; 'I' for Inactive)
REMARK    1  A    between atoms: C_1  and  N_2
REMARK    2  A    between atoms: N_5  and  C_6
REMARK    3  A    between atoms: C_6  and  C_7
REMARK    4  A    between atoms: C_7  and  C_8
REMARK    5  A    between atoms: C_8  and  N_9
REMARK    6  A    between atoms: C_13  and  C_14
REMARK    7  A    between atoms: C_17  and  C_18
REMARK                            x       y       z     vdW  Elec       q    Type
REMARK                         _______ _______ _______ _____ _____    ______ ____
ROOT
ATOM      1  N   UNL     1       4.096   5.697  18.105  0.00  0.00    +0.000 N 
ATOM      2  C   UNL     1       3.544   5.780  19.450  0.00  0.00    +0.000 C 
ATOM      3  C   UNL     1       2.797   7.074  19.402  0.00  0.00    +0.000 A 
ATOM      4  C   UNL     1       2.009   7.693  20.359  0.00  0.00    +0.000 A 
ATOM      5  C   UNL     1       1.399   8.926  20.042  0.00  0.00    +0.000 A 
ATOM      6  C   UNL     1       1.656   9.529  18.785  0.00  0.00    +0.000 A 
ATOM      7  C   UNL     1       2.448   8.903  17.827  0.00  0.00    +0.000 A 
ATOM      8  C   UNL     1       2.972   7.674  18.158  0.00  0.00    +0.000 A 
ATOM      9  C   UNL     1       3.772   6.785  17.318  0.00  0.00    +0.000 C 
ATOM     10  O   UNL     1       4.079   7.019  16.167  0.00  0.00    +0.000 OA
ENDROOT
BRANCH   5  11
ATOM     11  C   UNL     1       0.462   9.594  20.959  0.00  0.00    +0.000 A 
ATOM     12  C   UNL     1      -0.363   9.027  21.913  0.00  0.00    +0.000 A 
ATOM     13  C   UNL     1      -1.054   9.998  22.692  0.00  0.00    +0.000 A 
ATOM     14  C   UNL     1      -0.757  11.289  22.309  0.00  0.00    +0.000 A 
ATOM     15  S   UNL     1       0.370  11.305  21.020  0.00  0.00    +0.000 S 
BRANCH  14  16
ATOM     16  C   UNL     1      -1.225  12.513  22.847  0.00  0.00    +0.000 C 
ATOM     17  C   UNL     1      -2.091  13.292  22.193  0.00  0.00    +0.000 C 
ATOM     18  N   UNL     1      -2.527  14.509  22.650  0.00  0.00    +0.000 N 
ATOM     19  C   UNL     1      -3.371  15.081  21.718  0.00  0.00    +0.000 C 
ATOM     20  S   UNL     1      -4.100  16.553  21.858  0.00  0.00    +0.000 S 
ATOM     21  N   UNL     1      -3.492  14.221  20.662  0.00  0.00    +0.000 N 
ATOM     22  C   UNL     1      -2.753  13.083  20.858  0.00  0.00    +0.000 C 
ATOM     23  O   UNL     1      -2.676  12.131  20.111  0.00  0.00    +0.000 OA
ATOM     24  H   UNL     1      -2.258  14.953  23.517  0.00  0.00    +0.000 HD
ATOM     25  H   UNL     1      -4.054  14.379  19.842  0.00  0.00    +0.000 HD
ENDBRANCH  14  16
ENDBRANCH   5  11
BRANCH   1  26
ATOM     26  C   UNL     1       4.997   4.641  17.691  0.00  0.00    +0.000 C 
BRANCH  26  27
ATOM     27  C   UNL     1       4.280   3.514  16.942  0.00  0.00    +0.000 C 
BRANCH  27  28
ATOM     28  C   UNL     1       2.772   3.459  17.216  0.00  0.00    +0.000 C 
BRANCH  28  33
ATOM     29  C   UNL     1       2.102   3.229  21.984  0.00  0.00    +0.000 C 
ATOM     30  N   UNL     1       2.027   2.482  20.735  0.00  0.00    +0.000 NA
ATOM     31  C   UNL     1       3.350   2.376  20.096  0.00  0.00    +0.000 C 
ATOM     32  C   UNL     1       3.272   1.608  18.758  0.00  0.00    +0.000 C 
ATOM     33  N   UNL     1       2.320   2.174  17.777  0.00  0.00    +0.000 NA
ATOM     34  C   UNL     1       1.009   2.326  18.453  0.00  0.00    +0.000 C 
ATOM     35  C   UNL     1       1.059   3.087  19.802  0.00  0.00    +0.000 C 
ENDBRANCH  28  33
ENDBRANCH  27  28
ENDBRANCH  26  27
ENDBRANCH   1  26
TORSDOF 6
ENDMDL
MODEL 3
REMARK VINA RESULT:      -7.9      1.045      1.216
REMARK  Name = 
REMARK  7 active torsions:
REMARK  status: ('A' for Active; 'I' for Inactive)
REMARK    1  A    between atoms: C_1  and  N_2
REMARK    2  A    between atoms: N_5  and  C_6
REMARK    3  A    between atoms: C_6  and  C_7
REMARK    4  A    between atoms: C_7  and  C_8
REMARK    5  A    between atoms: C_8  and  N_9
REMARK    6  A    between atoms: C_13  and  C_14
REMARK    7  A    between atoms: C_17  and  C_18
REMARK                            x       y       z     vdW  Elec       q    Type
REMARK                         _______ _______ _______ _____ _____    ______ ____
ROOT
ATOM      1  N   UNL     1       3.944   5.807  18.288  0.00  0.00    +0.000 N 
ATOM      2  C   UNL     1       3.131   6.094  19.461  0.00  0.00    +0.000 C 
ATOM      3  C   UNL     1       2.550   7.429  19.121  0.00  0.00    +0.000 A 
ATOM      4  C   UNL     1       1.646   8.219  19.813  0.00  0.00    +0.000 A 
ATOM      5  C   UNL     1       1.250   9.450  19.248  0.00  0.00    +0.000 A 
ATOM      6  C   UNL     1       1.830   9.877  18.027  0.00  0.00    +0.000 A 
ATOM      7  C   UNL     1       2.737   9.080  17.335  0.00  0.00    +0.000 A 
ATOM      8  C   UNL     1       3.047   7.861  17.894  0.00  0.00    +0.000 A 
ATOM      9  C   UNL     1       3.910   6.817  17.345  0.00  0.00    +0.000 C 
ATOM     10  O   UNL     1       4.477   6.887  16.273  0.00  0.00    +0.000 OA
ENDROOT
BRANCH   5  11
ATOM     11  C   UNL     1       0.214  10.296  19.863  0.00  0.00    +0.000 A 
ATOM     12  C   UNL     1      -0.923  10.826  19.282  0.00  0.00    +0.000 A 
ATOM     13  C   UNL     1      -1.754  11.507  20.216  0.00  0.00    +0.000 A 
ATOM     14  C   UNL     1      -1.229  11.499  21.492  0.00  0.00    +0.000 A 
ATOM     15  S   UNL     1       0.257  10.648  21.541  0.00  0.00    +0.000 S 
BRANCH  14  16
ATOM     16  C   UNL     1      -1.762  12.048  22.683  0.00  0.00    +0.000 C 
ATOM     17  C   UNL     1      -1.438  13.273  23.108  0.00  0.00    +0.000 C 
ATOM     18  N   UNL     1      -1.886  13.823  24.281  0.00  0.00    +0.000 N 
ATOM     19  C   UNL     1      -1.327  15.074  24.451  0.00  0.00    +0.000 C 
ATOM     20  S   UNL     1      -1.579  16.073  25.739  0.00  0.00    +0.000 S 
ATOM     21  N   UNL     1      -0.527  15.339  23.375  0.00  0.00    +0.000 N 
ATOM     22  C   UNL     1      -0.534  14.300  22.481  0.00  0.00    +0.000 C 
ATOM     23  O   UNL     1       0.058  14.248  21.423  0.00  0.00    +0.000 OA
ATOM     24  H   UNL     1      -2.503  13.384  24.950  0.00  0.00    +0.000 HD
ATOM     25  H   UNL     1      -0.002  16.186  23.231  0.00  0.00    +0.000 HD
ENDBRANCH  14  16
ENDBRANCH   5  11
BRANCH   1  26
ATOM     26  C   UNL     1       4.797   4.641  18.190  0.00  0.00    +0.000 C 
BRANCH  26  27
ATOM     27  C   UNL     1       4.245   3.586  17.228  0.00  0.00    +0.000 C 
BRANCH  27  28
ATOM     28  C   UNL     1       2.718   3.451  17.276  0.00  0.00    +0.000 C 
BRANCH  28  33
ATOM     29  C   UNL     1       2.032   3.215  22.042  0.00  0.00    +0.000 C 
ATOM     30  N   UNL     1       1.955   2.471  20.791  0.00  0.00    +0.000 NA
ATOM     31  C   UNL     1       3.280   2.357  20.156  0.00  0.00    +0.000 C 
ATOM     32  C   UNL     1       3.200   1.593  18.816  0.00  0.00    +0.000 C 
ATOM     33  N   UNL     1       2.254   2.168  17.833  0.00  0.00    +0.000 NA
ATOM     34  C   UNL     1       0.942   2.328  18.505  0.00  0.00    +0.000 C 
ATOM     35  C   UNL     1       0.995   3.086  19.856  0.00  0.00    +0.000 C 
ENDBRANCH  28  33
ENDBRANCH  27  28
ENDBRANCH  26  27
ENDBRANCH   1  26
TORSDOF 6
ENDMDL
MODEL 4
REMARK VINA RESULT:      -7.9      1.509      2.087
REMARK  Name = 
REMARK  7 active torsions:
REMARK  status: ('A' for Active; 'I' for Inactive)
REMARK    1  A    between atoms: C_1  and  N_2
REMARK    2  A    between atoms: N_5  and  C_6
REMARK    3  A    between atoms: C_6  and  C_7
REMARK    4  A    between atoms: C_7  and  C_8
REMARK    5  A    between atoms: C_8  and  N_9
REMARK    6  A    between atoms: C_13  and  C_14
REMARK    7  A    between atoms: C_17  and  C_18
REMARK                            x       y       z     vdW  Elec       q    Type
REMARK                         _______ _______ _______ _____ _____    ______ ____
ROOT
ATOM      1  N   UNL     1       3.943   6.195  17.964  0.00  0.00    +0.000 N 
ATOM      2  C   UNL     1       3.331   7.307  17.251  0.00  0.00    +0.000 C 
ATOM      3  C   UNL     1       2.465   7.917  18.304  0.00  0.00    +0.000 A 
ATOM      4  C   UNL     1       1.661   9.045  18.265  0.00  0.00    +0.000 A 
ATOM      5  C   UNL     1       0.947   9.410  19.427  0.00  0.00    +0.000 A 
ATOM      6  C   UNL     1       1.018   8.585  20.578  0.00  0.00    +0.000 A 
ATOM      7  C   UNL     1       1.827   7.452  20.612  0.00  0.00    +0.000 A 
ATOM      8  C   UNL     1       2.551   7.170  19.477  0.00  0.00    +0.000 A 
ATOM      9  C   UNL     1       3.516   6.092  19.274  0.00  0.00    +0.000 C 
ATOM     10  O   UNL     1       3.827   5.280  20.122  0.00  0.00    +0.000 OA
ENDROOT
BRANCH   5  11
ATOM     11  C   UNL     1       0.160  10.651  19.505  0.00  0.00    +0.000 A 
ATOM     12  C   UNL     1      -1.013  10.971  18.847  0.00  0.00    +0.000 A 
ATOM     13  C   UNL     1      -1.550  12.225  19.254  0.00  0.00    +0.000 A 
ATOM     14  C   UNL     1      -0.769  12.849  20.204  0.00  0.00    +0.000 A 
ATOM     15  S   UNL     1       0.596  11.894  20.603  0.00  0.00    +0.000 S 
BRANCH  14  16
ATOM     16  C   UNL     1      -0.976  14.086  20.862  0.00  0.00    +0.000 C 
ATOM     17  C   UNL     1      -1.642  14.175  22.016  0.00  0.00    +0.000 C 
ATOM     18  N   UNL     1      -1.913  15.355  22.658  0.00  0.00    +0.000 N 
ATOM     19  C   UNL     1      -2.661  15.107  23.793  0.00  0.00    +0.000 C 
ATOM     20  S   UNL     1      -3.221  16.248  24.843  0.00  0.00    +0.000 S 
ATOM     21  N   UNL     1      -2.860  13.758  23.891  0.00  0.00    +0.000 N 
ATOM     22  C   UNL     1      -2.264  13.089  22.853  0.00  0.00    +0.000 C 
ATOM     23  O   UNL     1      -2.247  11.889  22.678  0.00  0.00    +0.000 OA
ATOM     24  H   UNL     1      -1.645  16.279  22.349  0.00  0.00    +0.000 HD
ATOM     25  H   UNL     1      -3.365  13.294  24.628  0.00  0.00    +0.000 HD
ENDBRANCH  14  16
ENDBRANCH   5  11
BRANCH   1  26
ATOM     26  C   UNL     1       4.808   5.229  17.319  0.00  0.00    +0.000 C 
BRANCH  26  27
ATOM     27  C   UNL     1       4.039   4.027  16.764  0.00  0.00    +0.000 C 
BRANCH  27  28
ATOM     28  C   UNL     1       2.596   3.934  17.275  0.00  0.00    +0.000 C 
BRANCH  28  33
ATOM     29  C   UNL     1       2.141   2.818  21.942  0.00  0.00    +0.000 C 
ATOM     30  N   UNL     1       2.012   2.314  20.581  0.00  0.00    +0.000 NA
ATOM     31  C   UNL     1       3.306   2.344  19.877  0.00  0.00    +0.000 C 
ATOM     32  C   UNL     1       3.171   1.836  18.424  0.00  0.00    +0.000 C 
ATOM     33  N   UNL     1       2.173   2.563  17.607  0.00  0.00    +0.000 NA
ATOM     34  C   UNL     1       0.893   2.572  18.356  0.00  0.00    +0.000 C 
ATOM     35  C   UNL     1       1.002   3.071  19.819  0.00  0.00    +0.000 C 
ENDBRANCH  28  33
ENDBRANCH  27  28
ENDBRANCH  26  27
ENDBRANCH   1  26
TORSDOF 6
ENDMDL
MODEL 5
REMARK VINA RESULT:      -7.9      2.719      4.187
REMARK  Name = 
REMARK  7 active torsions:
REMARK  status: ('A' for Active; 'I' for Inactive)
REMARK    1  A    between atoms: C_1  and  N_2
REMARK    2  A    between atoms: N_5  and  C_6
REMARK    3  A    between atoms: C_6  and  C_7
REMARK    4  A    between atoms: C_7  and  C_8
REMARK    5  A    between atoms: C_8  and  N_9
REMARK    6  A    between atoms: C_13  and  C_14
REMARK    7  A    between atoms: C_17  and  C_18
REMARK                            x       y       z     vdW  Elec       q    Type
REMARK                         _______ _______ _______ _____ _____    ______ ____
ROOT
ATOM      1  N   UNL     1       2.325   6.877  19.141  0.00  0.00    +0.000 N 
ATOM      2  C   UNL     1       1.676   7.092  20.426  0.00  0.00    +0.000 C 
ATOM      3  C   UNL     1       1.164   8.489  20.289  0.00  0.00    +0.000 A 
ATOM      4  C   UNL     1       0.408   9.259  21.159  0.00  0.00    +0.000 A 
ATOM      5  C   UNL     1       0.044  10.566  20.768  0.00  0.00    +0.000 A 
ATOM      6  C   UNL     1       0.511  11.080  19.531  0.00  0.00    +0.000 A 
ATOM      7  C   UNL     1       1.270  10.302  18.661  0.00  0.00    +0.000 A 
ATOM      8  C   UNL     1       1.548   9.014  19.058  0.00  0.00    +0.000 A 
ATOM      9  C   UNL     1       2.261   7.980  18.311  0.00  0.00    +0.000 C 
ATOM     10  O   UNL     1       2.705   8.125  17.190  0.00  0.00    +0.000 OA
ENDROOT
BRANCH   5  11
ATOM     11  C   UNL     1      -0.847  11.407  21.582  0.00  0.00    +0.000 A 
ATOM     12  C   UNL     1      -1.192  11.262  22.913  0.00  0.00    +0.000 A 
ATOM     13  C   UNL     1      -1.995  12.334  23.395  0.00  0.00    +0.000 A 
ATOM     14  C   UNL     1      -2.262  13.272  22.420  0.00  0.00    +0.000 A 
ATOM     15  S   UNL     1      -1.518  12.847  20.936  0.00  0.00    +0.000 S 
BRANCH  14  16
ATOM     16  C   UNL     1      -3.002  14.476  22.513  0.00  0.00    +0.000 C 
ATOM     17  C   UNL     1      -4.322  14.517  22.312  0.00  0.00    +0.000 C 
ATOM     18  N   UNL     1      -5.068  15.666  22.338  0.00  0.00    +0.000 N 
ATOM     19  C   UNL     1      -6.385  15.373  22.041  0.00  0.00    +0.000 C 
ATOM     20  S   UNL     1      -7.615  16.466  21.943  0.00  0.00    +0.000 S 
ATOM     21  N   UNL     1      -6.491  14.025  21.838  0.00  0.00    +0.000 N 
ATOM     22  C   UNL     1      -5.280  13.401  21.993  0.00  0.00    +0.000 C 
ATOM     23  O   UNL     1      -5.059  12.212  21.897  0.00  0.00    +0.000 OA
ATOM     24  H   UNL     1      -4.723  16.600  22.512  0.00  0.00    +0.000 HD
ATOM     25  H   UNL     1      -7.340  13.532  21.614  0.00  0.00    +0.000 HD
ENDBRANCH  14  16
ENDBRANCH   5  11
BRANCH   1  26
ATOM     26  C   UNL     1       3.070   5.675  18.829  0.00  0.00    +0.000 C 
BRANCH  26  27
ATOM     27  C   UNL     1       4.383   5.576  19.609  0.00  0.00    +0.000 C 
BRANCH  27  28
ATOM     28  C   UNL     1       5.463   4.757  18.891  0.00  0.00    +0.000 C 
BRANCH  28  33
ATOM     29  C   UNL     1       6.366   4.842  14.157  0.00  0.00    +0.000 C 
ATOM     30  N   UNL     1       6.793   5.340  15.458  0.00  0.00    +0.000 NA
ATOM     31  C   UNL     1       7.206   4.236  16.342  0.00  0.00    +0.000 C 
ATOM     32  C   UNL     1       7.634   4.756  17.733  0.00  0.00    +0.000 C 
ATOM     33  N   UNL     1       6.608   5.562  18.433  0.00  0.00    +0.000 NA
ATOM     34  C   UNL     1       6.164   6.633  17.508  0.00  0.00    +0.000 C 
ATOM     35  C   UNL     1       5.736   6.140  16.103  0.00  0.00    +0.000 C 
ENDBRANCH  28  33
ENDBRANCH  27  28
ENDBRANCH  26  27
ENDBRANCH   1  26
TORSDOF 6
ENDMDL
MODEL 6
REMARK VINA RESULT:      -7.9      2.551      3.123
REMARK  Name = 
REMARK  7 active torsions:
REMARK  status: ('A' for Active; 'I' for Inactive)
REMARK    1  A    between atoms: C_1  and  N_2
REMARK    2  A    between atoms: N_5  and  C_6
REMARK    3  A    between atoms: C_6  and  C_7
REMARK    4  A    between atoms: C_7  and  C_8
REMARK    5  A    between atoms: C_8  and  N_9
REMARK    6  A    between atoms: C_13  and  C_14
REMARK    7  A    between atoms: C_17  and  C_18
REMARK                            x       y       z     vdW  Elec       q    Type
REMARK                         _______ _______ _______ _____ _____    ______ ____
ROOT
ATOM      1  N   UNL     1       3.979   6.224  17.839  0.00  0.00    +0.000 N 
ATOM      2  C   UNL     1       3.362   7.333  17.125  0.00  0.00    +0.000 C 
ATOM      3  C   UNL     1       2.514   7.956  18.186  0.00  0.00    +0.000 A 
ATOM      4  C   UNL     1       1.716   9.088  18.149  0.00  0.00    +0.000 A 
ATOM      5  C   UNL     1       1.021   9.467  19.318  0.00  0.00    +0.000 A 
ATOM      6  C   UNL     1       1.104   8.651  20.474  0.00  0.00    +0.000 A 
ATOM      7  C   UNL     1       1.907   7.514  20.506  0.00  0.00    +0.000 A 
ATOM      8  C   UNL     1       2.614   7.219  19.363  0.00  0.00    +0.000 A 
ATOM      9  C   UNL     1       3.570   6.134  19.155  0.00  0.00    +0.000 C 
ATOM     10  O   UNL     1       3.889   5.327  20.006  0.00  0.00    +0.000 OA
ENDROOT
BRANCH   5  11
ATOM     11  C   UNL     1       0.242  10.712  19.396  0.00  0.00    +0.000 A 
ATOM     12  C   UNL     1       0.251  11.792  18.532  0.00  0.00    +0.000 A 
ATOM     13  C   UNL     1      -0.720  12.776  18.868  0.00  0.00    +0.000 A 
ATOM     14  C   UNL     1      -1.444  12.440  19.993  0.00  0.00    +0.000 A 
ATOM     15  S   UNL     1      -0.946  10.924  20.615  0.00  0.00    +0.000 S 
BRANCH  14  16
ATOM     16  C   UNL     1      -2.498  13.145  20.624  0.00  0.00    +0.000 C 
ATOM     17  C   UNL     1      -3.772  13.009  20.243  0.00  0.00    +0.000 C 
ATOM     18  N   UNL     1      -4.816  13.711  20.788  0.00  0.00    +0.000 N 
ATOM     19  C   UNL     1      -5.989  13.379  20.139  0.00  0.00    +0.000 C 
ATOM     20  S   UNL     1      -7.478  14.008  20.463  0.00  0.00    +0.000 S 
ATOM     21  N   UNL     1      -5.702  12.446  19.182  0.00  0.00    +0.000 N 
ATOM     22  C   UNL     1      -4.366  12.138  19.169  0.00  0.00    +0.000 C 
ATOM     23  O   UNL     1      -3.814  11.333  18.450  0.00  0.00    +0.000 OA
ATOM     24  H   UNL     1      -4.754  14.397  21.528  0.00  0.00    +0.000 HD
ATOM     25  H   UNL     1      -6.372  12.018  18.563  0.00  0.00    +0.000 HD
ENDBRANCH  14  16
ENDBRANCH   5  11
BRANCH   1  26
ATOM     26  C   UNL     1       4.829   5.248  17.189  0.00  0.00    +0.000 C 
BRANCH  26  27
ATOM     27  C   UNL     1       4.198   3.854  17.142  0.00  0.00    +0.000 C 
BRANCH  27  28
ATOM     28  C   UNL     1       2.669   3.869  17.262  0.00  0.00    +0.000 C 
BRANCH  28  33
ATOM     29  C   UNL     1       2.090   2.978  21.963  0.00  0.00    +0.000 C 
ATOM     30  N   UNL     1       1.904   2.444  20.620  0.00  0.00    +0.000 NA
ATOM     31  C   UNL     1       3.193   2.301  19.920  0.00  0.00    +0.000 C 
ATOM     32  C   UNL     1       3.000   1.760  18.486  0.00  0.00    +0.000 C 
ATOM     33  N   UNL     1       2.092   2.568  17.640  0.00  0.00    +0.000 NA
ATOM     34  C   UNL     1       0.821   2.750  18.383  0.00  0.00    +0.000 C 
ATOM     35  C   UNL     1       0.986   3.284  19.828  0.00  0.00    +0.000 C 
ENDBRANCH  28  33
ENDBRANCH  27  28
ENDBRANCH  26  27
ENDBRANCH   1  26
TORSDOF 6
ENDMDL
MODEL 7
REMARK VINA RESULT:      -7.8      2.987      4.318
REMARK  Name = 
REMARK  7 active torsions:
REMARK  status: ('A' for Active; 'I' for Inactive)
REMARK    1  A    between atoms: C_1  and  N_2
REMARK    2  A    between atoms: N_5  and  C_6
REMARK    3  A    between atoms: C_6  and  C_7
REMARK    4  A    between atoms: C_7  and  C_8
REMARK    5  A    between atoms: C_8  and  N_9
REMARK    6  A    between atoms: C_13  and  C_14
REMARK    7  A    between atoms: C_17  and  C_18
REMARK                            x       y       z     vdW  Elec       q    Type
REMARK                         _______ _______ _______ _____ _____    ______ ____
ROOT
ATOM      1  N   UNL     1       2.767   4.719  19.568  0.00  0.00    +0.000 N 
ATOM      2  C   UNL     1       2.446   5.623  20.663  0.00  0.00    +0.000 C 
ATOM      3  C   UNL     1       2.087   6.879  19.938  0.00  0.00    +0.000 A 
ATOM      4  C   UNL     1       1.637   8.098  20.420  0.00  0.00    +0.000 A 
ATOM      5  C   UNL     1       1.355   9.130  19.499  0.00  0.00    +0.000 A 
ATOM      6  C   UNL     1       1.598   8.918  18.118  0.00  0.00    +0.000 A 
ATOM      7  C   UNL     1       2.049   7.691  17.639  0.00  0.00    +0.000 A 
ATOM      8  C   UNL     1       2.252   6.697  18.567  0.00  0.00    +0.000 A 
ATOM      9  C   UNL     1       2.655   5.313  18.325  0.00  0.00    +0.000 C 
ATOM     10  O   UNL     1       2.857   4.838  17.225  0.00  0.00    +0.000 OA
ENDROOT
BRANCH   5  11
ATOM     11  C   UNL     1       0.771  10.414  19.917  0.00  0.00    +0.000 A 
ATOM     12  C   UNL     1       0.817  11.019  21.159  0.00  0.00    +0.000 A 
ATOM     13  C   UNL     1       0.231  12.316  21.163  0.00  0.00    +0.000 A 
ATOM     14  C   UNL     1      -0.266  12.674  19.928  0.00  0.00    +0.000 A 
ATOM     15  S   UNL     1       0.001  11.435  18.774  0.00  0.00    +0.000 S 
BRANCH  14  16
ATOM     16  C   UNL     1      -0.898  13.877  19.530  0.00  0.00    +0.000 C 
ATOM     17  C   UNL     1      -0.206  14.930  19.085  0.00  0.00    +0.000 C 
ATOM     18  N   UNL     1      -0.770  16.131  18.742  0.00  0.00    +0.000 N 
ATOM     19  C   UNL     1       0.219  17.022  18.373  0.00  0.00    +0.000 C 
ATOM     20  S   UNL     1      -0.020  18.586  17.910  0.00  0.00    +0.000 S 
ATOM     21  N   UNL     1       1.426  16.386  18.464  0.00  0.00    +0.000 N 
ATOM     22  C   UNL     1       1.277  15.089  18.882  0.00  0.00    +0.000 C 
ATOM     23  O   UNL     1       2.158  14.271  19.036  0.00  0.00    +0.000 OA
ATOM     24  H   UNL     1      -1.754  16.362  18.779  0.00  0.00    +0.000 HD
ATOM     25  H   UNL     1       2.320  16.795  18.246  0.00  0.00    +0.000 HD
ENDBRANCH  14  16
ENDBRANCH   5  11
BRANCH   1  26
ATOM     26  C   UNL     1       3.277   3.380  19.779  0.00  0.00    +0.000 C 
BRANCH  26  27
ATOM     27  C   UNL     1       4.752   3.243  19.395  0.00  0.00    +0.000 C 
BRANCH  27  28
ATOM     28  C   UNL     1       5.422   4.578  19.048  0.00  0.00    +0.000 C 
BRANCH  28  33
ATOM     29  C   UNL     1       7.635   8.638  17.684  0.00  0.00    +0.000 C 
ATOM     30  N   UNL     1       7.509   7.208  17.429  0.00  0.00    +0.000 NA
ATOM     31  C   UNL     1       6.136   6.858  17.024  0.00  0.00    +0.000 C 
ATOM     32  C   UNL     1       5.989   5.340  16.778  0.00  0.00    +0.000 C 
ATOM     33  N   UNL     1       6.373   4.489  17.927  0.00  0.00    +0.000 NA
ATOM     34  C   UNL     1       7.734   4.893  18.356  0.00  0.00    +0.000 C 
ATOM     35  C   UNL     1       7.911   6.413  18.603  0.00  0.00    +0.000 C 
ENDBRANCH  28  33
ENDBRANCH  27  28
ENDBRANCH  26  27
ENDBRANCH   1  26
TORSDOF 6
ENDMDL
MODEL 8
REMARK VINA RESULT:      -7.8      2.177      3.791
REMARK  Name = 
REMARK  7 active torsions:
REMARK  status: ('A' for Active; 'I' for Inactive)
REMARK    1  A    between atoms: C_1  and  N_2
REMARK    2  A    between atoms: N_5  and  C_6
REMARK    3  A    between atoms: C_6  and  C_7
REMARK    4  A    between atoms: C_7  and  C_8
REMARK    5  A    between atoms: C_8  and  N_9
REMARK    6  A    between atoms: C_13  and  C_14
REMARK    7  A    between atoms: C_17  and  C_18
REMARK                            x       y       z     vdW  Elec       q    Type
REMARK                         _______ _______ _______ _____ _____    ______ ____
ROOT
ATOM      1  N   UNL     1       2.779   5.245  19.084  0.00  0.00    +0.000 N 
ATOM      2  C   UNL     1       2.209   5.573  20.383  0.00  0.00    +0.000 C 
ATOM      3  C   UNL     1       1.807   7.000  20.197  0.00  0.00    +0.000 A 
ATOM      4  C   UNL     1       1.157   7.870  21.058  0.00  0.00    +0.000 A 
ATOM      5  C   UNL     1       0.883   9.183  20.617  0.00  0.00    +0.000 A 
ATOM      6  C   UNL     1       1.333   9.597  19.338  0.00  0.00    +0.000 A 
ATOM      7  C   UNL     1       1.985   8.719  18.477  0.00  0.00    +0.000 A 
ATOM      8  C   UNL     1       2.175   7.432  18.926  0.00  0.00    +0.000 A 
ATOM      9  C   UNL     1       2.766   6.308  18.203  0.00  0.00    +0.000 C 
ATOM     10  O   UNL     1       3.168   6.363  17.058  0.00  0.00    +0.000 OA
ENDROOT
BRANCH   5  11
ATOM     11  C   UNL     1       0.102  10.133  21.424  0.00  0.00    +0.000 A 
ATOM     12  C   UNL     1      -0.723   9.874  22.503  0.00  0.00    +0.000 A 
ATOM     13  C   UNL     1      -1.230  11.059  23.107  0.00  0.00    +0.000 A 
ATOM     14  C   UNL     1      -0.796  12.203  22.470  0.00  0.00    +0.000 A 
ATOM     15  S   UNL     1       0.237  11.822  21.158  0.00  0.00    +0.000 S 
BRANCH  14  16
ATOM     16  C   UNL     1      -1.065  13.558  22.780  0.00  0.00    +0.000 C 
ATOM     17  C   UNL     1      -1.989  14.267  22.125  0.00  0.00    +0.000 C 
ATOM     18  N   UNL     1      -2.244  15.594  22.354  0.00  0.00    +0.000 N 
ATOM     19  C   UNL     1      -3.214  16.040  21.478  0.00  0.00    +0.000 C 
ATOM     20  S   UNL     1      -3.802  17.578  21.396  0.00  0.00    +0.000 S 
ATOM     21  N   UNL     1      -3.599  14.990  20.691  0.00  0.00    +0.000 N 
ATOM     22  C   UNL     1      -2.914  13.847  21.015  0.00  0.00    +0.000 C 
ATOM     23  O   UNL     1      -3.049  12.753  20.510  0.00  0.00    +0.000 OA
ATOM     24  H   UNL     1      -1.780  16.184  23.032  0.00  0.00    +0.000 HD
ATOM     25  H   UNL     1      -4.300  15.026  19.969  0.00  0.00    +0.000 HD
ENDBRANCH  14  16
ENDBRANCH   5  11
BRANCH   1  26
ATOM     26  C   UNL     1       3.408   3.971  18.803  0.00  0.00    +0.000 C 
BRANCH  26  27
ATOM     27  C   UNL     1       4.715   3.775  19.575  0.00  0.00    +0.000 C 
BRANCH  27  28
ATOM     28  C   UNL     1       5.700   4.940  19.419  0.00  0.00    +0.000 C 
BRANCH  28  33
ATOM     29  C   UNL     1       7.930   8.838  17.666  0.00  0.00    +0.000 C 
ATOM     30  N   UNL     1       7.829   7.386  17.581  0.00  0.00    +0.000 NA
ATOM     31  C   UNL     1       6.479   6.969  17.165  0.00  0.00    +0.000 C 
ATOM     32  C   UNL     1       6.358   5.430  17.099  0.00  0.00    +0.000 C 
ATOM     33  N   UNL     1       6.700   4.731  18.358  0.00  0.00    +0.000 NA
ATOM     34  C   UNL     1       8.037   5.204  18.792  0.00  0.00    +0.000 C 
ATOM     35  C   UNL     1       8.187   6.745  18.860  0.00  0.00    +0.000 C 
ENDBRANCH  28  33
ENDBRANCH  27  28
ENDBRANCH  26  27
ENDBRANCH   1  26
TORSDOF 6
ENDMDL
MODEL 9
REMARK VINA RESULT:      -7.8      3.907     10.449
REMARK  Name = 
REMARK  7 active torsions:
REMARK  status: ('A' for Active; 'I' for Inactive)
REMARK    1  A    between atoms: C_1  and  N_2
REMARK    2  A    between atoms: N_5  and  C_6
REMARK    3  A    between atoms: C_6  and  C_7
REMARK    4  A    between atoms: C_7  and  C_8
REMARK    5  A    between atoms: C_8  and  N_9
REMARK    6  A    between atoms: C_13  and  C_14
REMARK    7  A    between atoms: C_17  and  C_18
REMARK                            x       y       z     vdW  Elec       q    Type
REMARK                         _______ _______ _______ _____ _____    ______ ____
ROOT
ATOM      1  N   UNL     1      -1.329  11.898  20.883  0.00  0.00    +0.000 N 
ATOM      2  C   UNL     1      -0.793  11.263  19.688  0.00  0.00    +0.000 C 
ATOM      3  C   UNL     1       0.050  10.172  20.263  0.00  0.00    +0.000 A 
ATOM      4  C   UNL     1       0.785   9.178  19.636  0.00  0.00    +0.000 A 
ATOM      5  C   UNL     1       1.491   8.251  20.433  0.00  0.00    +0.000 A 
ATOM      6  C   UNL     1       1.485   8.396  21.844  0.00  0.00    +0.000 A 
ATOM      7  C   UNL     1       0.744   9.396  22.468  0.00  0.00    +0.000 A 
ATOM      8  C   UNL     1       0.023  10.238  21.654  0.00  0.00    +0.000 A 
ATOM      9  C   UNL     1      -0.879  11.316  22.053  0.00  0.00    +0.000 C 
ATOM     10  O   UNL     1      -1.131  11.611  23.204  0.00  0.00    +0.000 OA
ENDROOT
BRANCH   5  11
ATOM     11  C   UNL     1       2.205   7.103  19.852  0.00  0.00    +0.000 A 
ATOM     12  C   UNL     1       2.649   5.955  20.482  0.00  0.00    +0.000 A 
ATOM     13  C   UNL     1       3.204   5.008  19.576  0.00  0.00    +0.000 A 
ATOM     14  C   UNL     1       3.189   5.456  18.271  0.00  0.00    +0.000 A 
ATOM     15  S   UNL     1       2.484   7.013  18.162  0.00  0.00    +0.000 S 
BRANCH  14  16
ATOM     16  C   UNL     1       3.630   4.802  17.094  0.00  0.00    +0.000 C 
ATOM     17  C   UNL     1       4.810   5.076  16.530  0.00  0.00    +0.000 C 
ATOM     18  N   UNL     1       5.253   4.509  15.363  0.00  0.00    +0.000 N 
ATOM     19  C   UNL     1       6.482   5.041  15.025  0.00  0.00    +0.000 C 
ATOM     20  S   UNL     1       7.361   4.655  13.684  0.00  0.00    +0.000 S 
ATOM     21  N   UNL     1       6.840   5.944  15.987  0.00  0.00    +0.000 N 
ATOM     22  C   UNL     1       5.886   6.034  16.967  0.00  0.00    +0.000 C 
ATOM     23  O   UNL     1       5.928   6.730  17.959  0.00  0.00    +0.000 OA
ATOM     24  H   UNL     1       4.758   3.830  14.802  0.00  0.00    +0.000 HD
ATOM     25  H   UNL     1       7.694   6.477  15.999  0.00  0.00    +0.000 HD
ENDBRANCH  14  16
ENDBRANCH   5  11
BRANCH   1  26
ATOM     26  C   UNL     1      -2.144  13.094  20.839  0.00  0.00    +0.000 C 
BRANCH  26  27
ATOM     27  C   UNL     1      -3.643  12.787  20.830  0.00  0.00    +0.000 C 
BRANCH  27  28
ATOM     28  C   UNL     1      -4.174  12.362  19.455  0.00  0.00    +0.000 C 
BRANCH  28  33
ATOM     29  C   UNL     1      -7.915   9.666  20.856  0.00  0.00    +0.000 C 
ATOM     30  N   UNL     1      -7.523  10.908  20.202  0.00  0.00    +0.000 NA
ATOM     31  C   UNL     1      -6.747  10.643  18.978  0.00  0.00    +0.000 C 
ATOM     32  C   UNL     1      -6.306  11.957  18.295  0.00  0.00    +0.000 C 
ATOM     33  N   UNL     1      -5.525  12.870  19.160  0.00  0.00    +0.000 NA
ATOM     34  C   UNL     1      -6.294  13.079  20.410  0.00  0.00    +0.000 C 
ATOM     35  C   UNL     1      -6.756  11.778  21.113  0.00  0.00    +0.000 C 
ENDBRANCH  28  33
ENDBRANCH  27  28
ENDBRANCH  26  27
ENDBRANCH   1  26
TORSDOF 6
ENDMDL
