MODEL 1
REMARK VINA RESULT:      -7.6      0.000      0.000
REMARK  Name = 
REMARK  4 active torsions:
REMARK  status: ('A' for Active; 'I' for Inactive)
REMARK    1  A    between atoms: C_2  and  C_4
REMARK    2  A    between atoms: C_7  and  C_8
REMARK    3  A    between atoms: C_8  and  N_9
REMARK    4  A    between atoms: C_12  and  N_13
REMARK                            x       y       z     vdW  Elec       q    Type
REMARK                         _______ _______ _______ _____ _____    ______ ____
ROOT
ATOM      1  C   UNL     1       7.286   5.687  16.575  0.00  0.00    +0.000 C 
ENDROOT
BRANCH   1   5
ATOM      2  C   UNL     1       5.972   3.549  13.021  0.00  0.00    +0.000 A 
ATOM      3  C   UNL     1       6.930   4.564  12.909  0.00  0.00    +0.000 A 
ATOM      4  C   UNL     1       7.359   5.268  14.047  0.00  0.00    +0.000 A 
ATOM      5  C   UNL     1       6.823   4.988  15.310  0.00  0.00    +0.000 A 
ATOM      6  C   UNL     1       5.883   3.950  15.417  0.00  0.00    +0.000 A 
ATOM      7  C   UNL     1       5.459   3.243  14.287  0.00  0.00    +0.000 A 
BRANCH   2   9
ATOM      8  N   UNL     1       6.120   1.645  11.473  0.00  0.00    +0.000 N 
ATOM      9  C   UNL     1       5.446   2.767  11.865  0.00  0.00    +0.000 C 
ATOM     10  O   UNL     1       4.428   3.102  11.269  0.00  0.00    +0.000 OA
ATOM     11  H   UNL     1       5.704   1.105  10.721  0.00  0.00    +0.000 HD
ATOM     12  H   UNL     1       6.882   1.225  11.984  0.00  0.00    +0.000 HD
ENDBRANCH   2   9
ENDBRANCH   1   5
BRANCH   1  13
ATOM     13  N   UNL     1       6.245   6.265  17.468  0.00  0.00    +0.000 NA
ATOM     14  C   UNL     1       4.996   6.507  16.729  0.00  0.00    +0.000 C 
ATOM     15  C   UNL     1       3.787   6.804  17.619  0.00  0.00    +0.000 C 
ATOM     16  C   UNL     1       3.521   5.760  18.717  0.00  0.00    +0.000 C 
ATOM     17  C   UNL     1       4.841   5.561  19.484  0.00  0.00    +0.000 C 
ATOM     18  C   UNL     1       6.072   5.336  18.605  0.00  0.00    +0.000 C 
BRANCH  16  19
ATOM     19  N   UNL     1       2.799   4.505  18.351  0.00  0.00    +0.000 NA
ATOM     20  C   UNL     1       3.708   3.340  18.329  0.00  0.00    +0.000 C 
ATOM     21  C   UNL     1       3.023   2.019  17.952  0.00  0.00    +0.000 C 
ATOM     22  C   UNL     1       1.796   1.768  18.815  0.00  0.00    +0.000 C 
ATOM     23  C   UNL     1       0.858   2.952  18.676  0.00  0.00    +0.000 C 
ATOM     24  C   UNL     1       1.570   4.235  19.097  0.00  0.00    +0.000 C 
ENDBRANCH  16  19
ENDBRANCH   1  13
TORSDOF 4
ENDMDL
MODEL 2
REMARK VINA RESULT:      -7.5      4.808      6.334
REMARK  Name = 
REMARK  4 active torsions:
REMARK  status: ('A' for Active; 'I' for Inactive)
REMARK    1  A    between atoms: C_2  and  C_4
REMARK    2  A    between atoms: C_7  and  C_8
REMARK    3  A    between atoms: C_8  and  N_9
REMARK    4  A    between atoms: C_12  and  N_13
REMARK                            x       y       z     vdW  Elec       q    Type
REMARK                         _______ _______ _______ _____ _____    ______ ____
ROOT
ATOM      1  C   UNL     1       2.196   6.650  18.576  0.00  0.00    +0.000 C 
ENDROOT
BRANCH   1   5
ATOM      2  C   UNL     1       5.634   5.099  16.407  0.00  0.00    +0.000 A 
ATOM      3  C   UNL     1       4.638   4.221  16.853  0.00  0.00    +0.000 A 
ATOM      4  C   UNL     1       3.524   4.706  17.560  0.00  0.00    +0.000 A 
ATOM      5  C   UNL     1       3.400   6.070  17.856  0.00  0.00    +0.000 A 
ATOM      6  C   UNL     1       4.390   6.946  17.381  0.00  0.00    +0.000 A 
ATOM      7  C   UNL     1       5.495   6.466  16.671  0.00  0.00    +0.000 A 
BRANCH   2   9
ATOM      8  N   UNL     1       6.779   4.506  14.314  0.00  0.00    +0.000 N 
ATOM      9  C   UNL     1       6.856   4.668  15.669  0.00  0.00    +0.000 C 
ATOM     10  O   UNL     1       7.919   4.464  16.244  0.00  0.00    +0.000 OA
ATOM     11  H   UNL     1       7.642   4.268  13.836  0.00  0.00    +0.000 HD
ATOM     12  H   UNL     1       5.990   4.779  13.747  0.00  0.00    +0.000 HD
ENDBRANCH   2   9
ENDBRANCH   1   5
BRANCH   1  13
ATOM     13  N   UNL     1       2.241   8.088  18.954  0.00  0.00    +0.000 NA
ATOM     14  C   UNL     1       1.859   8.940  17.818  0.00  0.00    +0.000 C 
ATOM     15  C   UNL     1       1.578  10.398  18.192  0.00  0.00    +0.000 C 
ATOM     16  C   UNL     1       0.553  10.588  19.324  0.00  0.00    +0.000 C 
ATOM     17  C   UNL     1       1.008   9.706  20.501  0.00  0.00    +0.000 C 
ATOM     18  C   UNL     1       1.363   8.265  20.129  0.00  0.00    +0.000 C 
BRANCH  16  19
ATOM     19  N   UNL     1      -0.901  10.512  18.992  0.00  0.00    +0.000 NA
ATOM     20  C   UNL     1      -1.591  11.788  19.272  0.00  0.00    +0.000 C 
ATOM     21  C   UNL     1      -3.092  11.771  18.955  0.00  0.00    +0.000 C 
ATOM     22  C   UNL     1      -3.353  11.281  17.539  0.00  0.00    +0.000 C 
ATOM     23  C   UNL     1      -2.724   9.909  17.380  0.00  0.00    +0.000 C 
ATOM     24  C   UNL     1      -1.227   9.984  17.667  0.00  0.00    +0.000 C 
ENDBRANCH  16  19
ENDBRANCH   1  13
TORSDOF 4
ENDMDL
MODEL 3
REMARK VINA RESULT:      -7.5      4.706      6.244
REMARK  Name = 
REMARK  4 active torsions:
REMARK  status: ('A' for Active; 'I' for Inactive)
REMARK    1  A    between atoms: C_2  and  C_4
REMARK    2  A    between atoms: C_7  and  C_8
REMARK    3  A    between atoms: C_8  and  N_9
REMARK    4  A    between atoms: C_12  and  N_13
REMARK                            x       y       z     vdW  Elec       q    Type
REMARK                         _______ _______ _______ _____ _____    ______ ____
ROOT
ATOM      1  C   UNL     1       2.265   6.755  18.808  0.00  0.00    +0.000 C 
ENDROOT
BRANCH   1   5
ATOM      2  C   UNL     1       5.378   5.243  16.171  0.00  0.00    +0.000 A 
ATOM      3  C   UNL     1       5.316   6.612  16.463  0.00  0.00    +0.000 A 
ATOM      4  C   UNL     1       4.312   7.116  17.308  0.00  0.00    +0.000 A 
ATOM      5  C   UNL     1       3.340   6.268  17.854  0.00  0.00    +0.000 A 
ATOM      6  C   UNL     1       3.427   4.894  17.578  0.00  0.00    +0.000 A 
ATOM      7  C   UNL     1       4.428   4.389  16.743  0.00  0.00    +0.000 A 
BRANCH   2   9
ATOM      8  N   UNL     1       7.588   5.271  15.095  0.00  0.00    +0.000 N 
ATOM      9  C   UNL     1       6.395   4.628  15.270  0.00  0.00    +0.000 C 
ATOM     10  O   UNL     1       6.189   3.566  14.694  0.00  0.00    +0.000 OA
ATOM     11  H   UNL     1       8.278   4.797  14.523  0.00  0.00    +0.000 HD
ATOM     12  H   UNL     1       7.892   6.072  15.629  0.00  0.00    +0.000 HD
ENDBRANCH   2   9
ENDBRANCH   1   5
BRANCH   1  13
ATOM     13  N   UNL     1       2.236   8.207  19.136  0.00  0.00    +0.000 NA
ATOM     14  C   UNL     1       1.889   9.005  17.951  0.00  0.00    +0.000 C 
ATOM     15  C   UNL     1       1.534  10.463  18.257  0.00  0.00    +0.000 C 
ATOM     16  C   UNL     1       0.440  10.650  19.322  0.00  0.00    +0.000 C 
ATOM     17  C   UNL     1       0.857   9.826  20.553  0.00  0.00    +0.000 C 
ATOM     18  C   UNL     1       1.286   8.388  20.254  0.00  0.00    +0.000 C 
BRANCH  16  19
ATOM     19  N   UNL     1      -0.989  10.508  18.912  0.00  0.00    +0.000 NA
ATOM     20  C   UNL     1      -1.757  11.742  19.176  0.00  0.00    +0.000 C 
ATOM     21  C   UNL     1      -3.238  11.655  18.779  0.00  0.00    +0.000 C 
ATOM     22  C   UNL     1      -3.397  11.181  17.343  0.00  0.00    +0.000 C 
ATOM     23  C   UNL     1      -2.692   9.847  17.194  0.00  0.00    +0.000 C 
ATOM     24  C   UNL     1      -1.217   9.991  17.563  0.00  0.00    +0.000 C 
ENDBRANCH  16  19
ENDBRANCH   1  13
TORSDOF 4
ENDMDL
MODEL 4
REMARK VINA RESULT:      -7.4      0.383      1.076
REMARK  Name = 
REMARK  4 active torsions:
REMARK  status: ('A' for Active; 'I' for Inactive)
REMARK    1  A    between atoms: C_2  and  C_4
REMARK    2  A    between atoms: C_7  and  C_8
REMARK    3  A    between atoms: C_8  and  N_9
REMARK    4  A    between atoms: C_12  and  N_13
REMARK                            x       y       z     vdW  Elec       q    Type
REMARK                         _______ _______ _______ _____ _____    ______ ____
ROOT
ATOM      1  C   UNL     1       7.303   5.860  16.141  0.00  0.00    +0.000 C 
ENDROOT
BRANCH   1   5
ATOM      2  C   UNL     1       5.716   3.436  12.895  0.00  0.00    +0.000 A 
ATOM      3  C   UNL     1       5.056   3.464  14.130  0.00  0.00    +0.000 A 
ATOM      4  C   UNL     1       5.560   4.237  15.190  0.00  0.00    +0.000 A 
ATOM      5  C   UNL     1       6.743   4.974  15.043  0.00  0.00    +0.000 A 
ATOM      6  C   UNL     1       7.382   4.961  13.792  0.00  0.00    +0.000 A 
ATOM      7  C   UNL     1       6.879   4.198  12.734  0.00  0.00    +0.000 A 
BRANCH   2   9
ATOM      8  N   UNL     1       6.032   1.574  11.321  0.00  0.00    +0.000 N 
ATOM      9  C   UNL     1       5.262   2.629  11.726  0.00  0.00    +0.000 C 
ATOM     10  O   UNL     1       4.221   2.882  11.130  0.00  0.00    +0.000 OA
ATOM     11  H   UNL     1       5.666   1.011  10.561  0.00  0.00    +0.000 HD
ATOM     12  H   UNL     1       6.826   1.214  11.830  0.00  0.00    +0.000 HD
ENDBRANCH   2   9
ENDBRANCH   1   5
BRANCH   1  13
ATOM     13  N   UNL     1       6.367   6.329  17.198  0.00  0.00    +0.000 NA
ATOM     14  C   UNL     1       5.022   6.552  16.645  0.00  0.00    +0.000 C 
ATOM     15  C   UNL     1       3.931   6.734  17.703  0.00  0.00    +0.000 C 
ATOM     16  C   UNL     1       3.858   5.613  18.755  0.00  0.00    +0.000 C 
ATOM     17  C   UNL     1       5.275   5.436  19.329  0.00  0.00    +0.000 C 
ATOM     18  C   UNL     1       6.387   5.327  18.283  0.00  0.00    +0.000 C 
BRANCH  16  19
ATOM     19  N   UNL     1       3.147   4.347  18.404  0.00  0.00    +0.000 NA
ATOM     20  C   UNL     1       3.912   3.157  18.829  0.00  0.00    +0.000 C 
ATOM     21  C   UNL     1       3.233   1.823  18.490  0.00  0.00    +0.000 C 
ATOM     22  C   UNL     1       1.800   1.789  18.995  0.00  0.00    +0.000 C 
ATOM     23  C   UNL     1       1.052   2.970  18.406  0.00  0.00    +0.000 C 
ATOM     24  C   UNL     1       1.741   4.274  18.801  0.00  0.00    +0.000 C 
ENDBRANCH  16  19
ENDBRANCH   1  13
TORSDOF 4
ENDMDL
MODEL 5
REMARK VINA RESULT:      -7.4      4.988      6.698
REMARK  Name = 
REMARK  4 active torsions:
REMARK  status: ('A' for Active; 'I' for Inactive)
REMARK    1  A    between atoms: C_2  and  C_4
REMARK    2  A    between atoms: C_7  and  C_8
REMARK    3  A    between atoms: C_8  and  N_9
REMARK    4  A    between atoms: C_12  and  N_13
REMARK                            x       y       z     vdW  Elec       q    Type
REMARK                         _______ _______ _______ _____ _____    ______ ____
ROOT
ATOM      1  C   UNL     1       2.203   6.972  19.165  0.00  0.00    +0.000 C 
ENDROOT
BRANCH   1   5
ATOM      2  C   UNL     1       5.897   5.602  17.320  0.00  0.00    +0.000 A 
ATOM      3  C   UNL     1       5.091   6.536  16.656  0.00  0.00    +0.000 A 
ATOM      4  C   UNL     1       3.892   6.983  17.236  0.00  0.00    +0.000 A 
ATOM      5  C   UNL     1       3.465   6.488  18.475  0.00  0.00    +0.000 A 
ATOM      6  C   UNL     1       4.294   5.573  19.146  0.00  0.00    +0.000 A 
ATOM      7  C   UNL     1       5.491   5.132  18.573  0.00  0.00    +0.000 A 
BRANCH   2   9
ATOM      8  N   UNL     1       7.493   5.339  15.469  0.00  0.00    +0.000 N 
ATOM      9  C   UNL     1       7.172   5.060  16.768  0.00  0.00    +0.000 C 
ATOM     10  O   UNL     1       7.934   4.382  17.448  0.00  0.00    +0.000 OA
ATOM     11  H   UNL     1       8.394   5.004  15.143  0.00  0.00    +0.000 HD
ATOM     12  H   UNL     1       6.998   5.994  14.883  0.00  0.00    +0.000 HD
ENDBRANCH   2   9
ENDBRANCH   1   5
BRANCH   1  13
ATOM     13  N   UNL     1       2.091   8.425  19.466  0.00  0.00    +0.000 NA
ATOM     14  C   UNL     1       1.802   9.192  18.245  0.00  0.00    +0.000 C 
ATOM     15  C   UNL     1       1.367  10.637  18.499  0.00  0.00    +0.000 C 
ATOM     16  C   UNL     1       0.190  10.795  19.478  0.00  0.00    +0.000 C 
ATOM     17  C   UNL     1       0.548  10.006  20.750  0.00  0.00    +0.000 C 
ATOM     18  C   UNL     1       1.055   8.583  20.507  0.00  0.00    +0.000 C 
BRANCH  16  19
ATOM     19  N   UNL     1      -1.198  10.588  18.966  0.00  0.00    +0.000 NA
ATOM     20  C   UNL     1      -2.041  11.782  19.179  0.00  0.00    +0.000 C 
ATOM     21  C   UNL     1      -3.483  11.628  18.678  0.00  0.00    +0.000 C 
ATOM     22  C   UNL     1      -3.518  11.157  17.233  0.00  0.00    +0.000 C 
ATOM     23  C   UNL     1      -2.741   9.858  17.129  0.00  0.00    +0.000 C 
ATOM     24  C   UNL     1      -1.305  10.070  17.602  0.00  0.00    +0.000 C 
ENDBRANCH  16  19
ENDBRANCH   1  13
TORSDOF 4
ENDMDL
MODEL 6
REMARK VINA RESULT:      -7.3      4.078      7.845
REMARK  Name = 
REMARK  4 active torsions:
REMARK  status: ('A' for Active; 'I' for Inactive)
REMARK    1  A    between atoms: C_2  and  C_4
REMARK    2  A    between atoms: C_7  and  C_8
REMARK    3  A    between atoms: C_8  and  N_9
REMARK    4  A    between atoms: C_12  and  N_13
REMARK                            x       y       z     vdW  Elec       q    Type
REMARK                         _______ _______ _______ _____ _____    ______ ____
ROOT
ATOM      1  C   UNL     1       2.915   5.990  17.876  0.00  0.00    +0.000 C 
ENDROOT
BRANCH   1   5
ATOM      2  C   UNL     1       1.170   9.390  19.956  0.00  0.00    +0.000 A 
ATOM      3  C   UNL     1       1.365   9.446  18.570  0.00  0.00    +0.000 A 
ATOM      4  C   UNL     1       1.933   8.358  17.885  0.00  0.00    +0.000 A 
ATOM      5  C   UNL     1       2.339   7.208  18.575  0.00  0.00    +0.000 A 
ATOM      6  C   UNL     1       2.115   7.151  19.960  0.00  0.00    +0.000 A 
ATOM      7  C   UNL     1       1.543   8.229  20.642  0.00  0.00    +0.000 A 
BRANCH   2   9
ATOM      8  N   UNL     1      -0.110  11.482  20.118  0.00  0.00    +0.000 N 
ATOM      9  C   UNL     1       0.595  10.504  20.762  0.00  0.00    +0.000 C 
ATOM     10  O   UNL     1       0.732  10.559  21.979  0.00  0.00    +0.000 OA
ATOM     11  H   UNL     1      -0.537  12.193  20.702  0.00  0.00    +0.000 HD
ATOM     12  H   UNL     1      -0.385  11.447  19.147  0.00  0.00    +0.000 HD
ENDBRANCH   2   9
ENDBRANCH   1   5
BRANCH   1  13
ATOM     13  N   UNL     1       4.394   5.825  17.877  0.00  0.00    +0.000 NA
ATOM     14  C   UNL     1       4.771   4.474  17.434  0.00  0.00    +0.000 C 
ATOM     15  C   UNL     1       6.258   4.312  17.108  0.00  0.00    +0.000 C 
ATOM     16  C   UNL     1       6.815   5.338  16.106  0.00  0.00    +0.000 C 
ATOM     17  C   UNL     1       6.427   6.735  16.623  0.00  0.00    +0.000 C 
ATOM     18  C   UNL     1       4.958   6.891  17.024  0.00  0.00    +0.000 C 
BRANCH  16  19
ATOM     19  N   UNL     1       6.587   5.110  14.648  0.00  0.00    +0.000 NA
ATOM     20  C   UNL     1       7.798   5.405  13.855  0.00  0.00    +0.000 C 
ATOM     21  C   UNL     1       7.624   5.195  12.344  0.00  0.00    +0.000 C 
ATOM     22  C   UNL     1       7.067   3.812  12.040  0.00  0.00    +0.000 C 
ATOM     23  C   UNL     1       5.759   3.644  12.790  0.00  0.00    +0.000 C 
ATOM     24  C   UNL     1       5.989   3.824  14.289  0.00  0.00    +0.000 C 
ENDBRANCH  16  19
ENDBRANCH   1  13
TORSDOF 4
ENDMDL
MODEL 7
REMARK VINA RESULT:      -7.3      4.818      6.674
REMARK  Name = 
REMARK  4 active torsions:
REMARK  status: ('A' for Active; 'I' for Inactive)
REMARK    1  A    between atoms: C_2  and  C_4
REMARK    2  A    between atoms: C_7  and  C_8
REMARK    3  A    between atoms: C_8  and  N_9
REMARK    4  A    between atoms: C_12  and  N_13
REMARK                            x       y       z     vdW  Elec       q    Type
REMARK                         _______ _______ _______ _____ _____    ______ ____
ROOT
ATOM      1  C   UNL     1       2.151   6.820  19.361  0.00  0.00    +0.000 C 
ENDROOT
BRANCH   1   5
ATOM      2  C   UNL     1       5.631   5.010  17.479  0.00  0.00    +0.000 A 
ATOM      3  C   UNL     1       5.190   4.542  18.724  0.00  0.00    +0.000 A 
ATOM      4  C   UNL     1       4.072   5.121  19.347  0.00  0.00    +0.000 A 
ATOM      5  C   UNL     1       3.391   6.191  18.752  0.00  0.00    +0.000 A 
ATOM      6  C   UNL     1       3.824   6.634  17.492  0.00  0.00    +0.000 A 
ATOM      7  C   UNL     1       4.933   6.056  16.866  0.00  0.00    +0.000 A 
BRANCH   2   9
ATOM      8  N   UNL     1       7.994   4.330  17.444  0.00  0.00    +0.000 N 
ATOM      9  C   UNL     1       6.819   4.468  16.758  0.00  0.00    +0.000 C 
ATOM     10  O   UNL     1       6.765   4.140  15.578  0.00  0.00    +0.000 OA
ATOM     11  H   UNL     1       8.765   3.905  16.941  0.00  0.00    +0.000 HD
ATOM     12  H   UNL     1       8.093   4.447  18.441  0.00  0.00    +0.000 HD
ENDBRANCH   2   9
ENDBRANCH   1   5
BRANCH   1  13
ATOM     13  N   UNL     1       2.129   8.300  19.514  0.00  0.00    +0.000 NA
ATOM     14  C   UNL     1       1.809   8.953  18.236  0.00  0.00    +0.000 C 
ATOM     15  C   UNL     1       1.462  10.439  18.359  0.00  0.00    +0.000 C 
ATOM     16  C   UNL     1       0.351  10.760  19.374  0.00  0.00    +0.000 C 
ATOM     17  C   UNL     1       0.740  10.086  20.703  0.00  0.00    +0.000 C 
ATOM     18  C   UNL     1       1.162   8.620  20.584  0.00  0.00    +0.000 C 
BRANCH  16  19
ATOM     19  N   UNL     1      -1.072  10.578  18.959  0.00  0.00    +0.000 NA
ATOM     20  C   UNL     1      -1.869  11.800  19.196  0.00  0.00    +0.000 C 
ATOM     21  C   UNL     1      -3.344  11.673  18.792  0.00  0.00    +0.000 C 
ATOM     22  C   UNL     1      -3.485  11.169  17.364  0.00  0.00    +0.000 C 
ATOM     23  C   UNL     1      -2.749   9.848  17.244  0.00  0.00    +0.000 C 
ATOM     24  C   UNL     1      -1.281  10.032  17.618  0.00  0.00    +0.000 C 
ENDBRANCH  16  19
ENDBRANCH   1  13
TORSDOF 4
ENDMDL
MODEL 8
REMARK VINA RESULT:      -7.1      5.006      6.695
REMARK  Name = 
REMARK  4 active torsions:
REMARK  status: ('A' for Active; 'I' for Inactive)
REMARK    1  A    between atoms: C_2  and  C_4
REMARK    2  A    between atoms: C_7  and  C_8
REMARK    3  A    between atoms: C_8  and  N_9
REMARK    4  A    between atoms: C_12  and  N_13
REMARK                            x       y       z     vdW  Elec       q    Type
REMARK                         _______ _______ _______ _____ _____    ______ ____
ROOT
ATOM      1  C   UNL     1       2.120   7.251  18.768  0.00  0.00    +0.000 C 
ENDROOT
BRANCH   1   5
ATOM      2  C   UNL     1       5.988   5.474  17.869  0.00  0.00    +0.000 A 
ATOM      3  C   UNL     1       5.446   6.436  17.007  0.00  0.00    +0.000 A 
ATOM      4  C   UNL     1       4.195   7.015  17.281  0.00  0.00    +0.000 A 
ATOM      5  C   UNL     1       3.454   6.625  18.403  0.00  0.00    +0.000 A 
ATOM      6  C   UNL     1       4.017   5.679  19.276  0.00  0.00    +0.000 A 
ATOM      7  C   UNL     1       5.265   5.107  19.009  0.00  0.00    +0.000 A 
BRANCH   2   9
ATOM      8  N   UNL     1       7.678   4.519  16.360  0.00  0.00    +0.000 N 
ATOM      9  C   UNL     1       7.297   4.796  17.643  0.00  0.00    +0.000 C 
ATOM     10  O   UNL     1       8.035   4.490  18.574  0.00  0.00    +0.000 OA
ATOM     11  H   UNL     1       8.599   4.110  16.239  0.00  0.00    +0.000 HD
ATOM     12  H   UNL     1       7.201   4.852  15.535  0.00  0.00    +0.000 HD
ENDBRANCH   2   9
ENDBRANCH   1   5
BRANCH   1  13
ATOM     13  N   UNL     1       2.109   8.693  19.136  0.00  0.00    +0.000 NA
ATOM     14  C   UNL     1       2.067   9.540  17.934  0.00  0.00    +0.000 C 
ATOM     15  C   UNL     1       1.744  11.010  18.213  0.00  0.00    +0.000 C 
ATOM     16  C   UNL     1       0.464  11.245  19.033  0.00  0.00    +0.000 C 
ATOM     17  C   UNL     1       0.564  10.367  20.294  0.00  0.00    +0.000 C 
ATOM     18  C   UNL     1       0.959   8.911  20.037  0.00  0.00    +0.000 C 
BRANCH  16  19
ATOM     19  N   UNL     1      -0.853  11.207  18.330  0.00  0.00    +0.000 NA
ATOM     20  C   UNL     1      -1.050   9.933  17.609  0.00  0.00    +0.000 C 
ATOM     21  C   UNL     1      -2.386   9.836  16.861  0.00  0.00    +0.000 C 
ATOM     22  C   UNL     1      -3.557  10.159  17.777  0.00  0.00    +0.000 C 
ATOM     23  C   UNL     1      -3.339  11.537  18.371  0.00  0.00    +0.000 C 
ATOM     24  C   UNL     1      -2.018  11.574  19.136  0.00  0.00    +0.000 C 
ENDBRANCH  16  19
ENDBRANCH   1  13
TORSDOF 4
ENDMDL
MODEL 9
REMARK VINA RESULT:      -7.1      5.008      8.428
REMARK  Name = 
REMARK  4 active torsions:
REMARK  status: ('A' for Active; 'I' for Inactive)
REMARK    1  A    between atoms: C_2  and  C_4
REMARK    2  A    between atoms: C_7  and  C_8
REMARK    3  A    between atoms: C_8  and  N_9
REMARK    4  A    between atoms: C_12  and  N_13
REMARK                            x       y       z     vdW  Elec       q    Type
REMARK                         _______ _______ _______ _____ _____    ______ ____
ROOT
ATOM      1  C   UNL     1       2.382   7.701  18.645  0.00  0.00    +0.000 C 
ENDROOT
BRANCH   1   5
ATOM      2  C   UNL     1      -0.025  10.146  21.321  0.00  0.00    +0.000 A 
ATOM      3  C   UNL     1       0.228  10.584  20.015  0.00  0.00    +0.000 A 
ATOM      4  C   UNL     1       1.008   9.809  19.141  0.00  0.00    +0.000 A 
ATOM      5  C   UNL     1       1.571   8.597  19.564  0.00  0.00    +0.000 A 
ATOM      6  C   UNL     1       1.290   8.153  20.866  0.00  0.00    +0.000 A 
ATOM      7  C   UNL     1       0.507   8.919  21.735  0.00  0.00    +0.000 A 
BRANCH   2   9
ATOM      8  N   UNL     1      -1.643  11.913  21.871  0.00  0.00    +0.000 N 
ATOM      9  C   UNL     1      -0.824  10.914  22.319  0.00  0.00    +0.000 C 
ATOM     10  O   UNL     1      -0.768  10.668  23.519  0.00  0.00    +0.000 OA
ATOM     11  H   UNL     1      -2.215  12.376  22.569  0.00  0.00    +0.000 HD
ATOM     12  H   UNL     1      -1.851  12.093  20.900  0.00  0.00    +0.000 HD
ENDBRANCH   2   9
ENDBRANCH   1   5
BRANCH   1  13
ATOM     13  N   UNL     1       2.395   6.241  18.935  0.00  0.00    +0.000 NA
ATOM     14  C   UNL     1       2.230   5.461  17.699  0.00  0.00    +0.000 C 
ATOM     15  C   UNL     1       2.537   3.970  17.852  0.00  0.00    +0.000 C 
ATOM     16  C   UNL     1       3.915   3.654  18.461  0.00  0.00    +0.000 C 
ATOM     17  C   UNL     1       4.032   4.464  19.765  0.00  0.00    +0.000 C 
ATOM     18  C   UNL     1       3.656   5.942  19.644  0.00  0.00    +0.000 C 
BRANCH  16  19
ATOM     19  N   UNL     1       5.115   3.693  17.574  0.00  0.00    +0.000 NA
ATOM     20  C   UNL     1       4.744   3.939  16.165  0.00  0.00    +0.000 C 
ATOM     21  C   UNL     1       5.938   3.985  15.202  0.00  0.00    +0.000 C 
ATOM     22  C   UNL     1       7.002   4.957  15.688  0.00  0.00    +0.000 C 
ATOM     23  C   UNL     1       7.420   4.553  17.089  0.00  0.00    +0.000 C 
ATOM     24  C   UNL     1       6.209   4.558  18.018  0.00  0.00    +0.000 C 
ENDBRANCH  16  19
ENDBRANCH   1  13
TORSDOF 4
ENDMDL
