MODEL 1
REMARK VINA RESULT:      -7.4      0.000      0.000
REMARK  Name = 
REMARK  11 active torsions:
REMARK  status: ('A' for Active; 'I' for Inactive)
REMARK    1  A    between atoms: C_1  and  O_2
REMARK    2  A    between atoms: O_2  and  C_3
REMARK    3  A    between atoms: C_3  and  C_4
REMARK    4  A    between atoms: C_4  and  C_5
REMARK    5  A    between atoms: C_4  and  N_6
REMARK    6  A    between atoms: C_10  and  C_11
REMARK    7  A    between atoms: C_15  and  N_16
REMARK    8  A    between atoms: C_17  and  C_19
REMARK    9  A    between atoms: N_21  and  C_22
REMARK   10  A    between atoms: C_24  and  O_25
REMARK   11  A    between atoms: O_25  and  C_26
REMARK                            x       y       z     vdW  Elec       q    Type
REMARK                         _______ _______ _______ _____ _____    ______ ____
ROOT
ATOM      1  C   UNL     1       4.317   5.082  19.460  0.00  0.00    +0.000 A 
ATOM      2  C   UNL     1       3.688   3.890  19.793  0.00  0.00    +0.000 A 
ATOM      3  C   UNL     1       2.353   3.932  20.165  0.00  0.00    +0.000 A 
ATOM      4  C   UNL     1       1.706   5.168  20.236  0.00  0.00    +0.000 A 
ATOM      5  C   UNL     1       2.425   6.323  19.954  0.00  0.00    +0.000 A 
ATOM      6  N   UNL     1       3.700   6.278  19.546  0.00  0.00    +0.000 NA
ENDROOT
BRANCH   1  11
ATOM      7  N   UNL     1       6.078   4.930  17.625  0.00  0.00    +0.000 N 
ATOM      8  C   UNL     1       7.442   4.821  17.668  0.00  0.00    +0.000 A 
ATOM      9  N   UNL     1       7.869   4.969  18.891  0.00  0.00    +0.000 NA
ATOM     10  N   UNL     1       6.773   5.130  19.692  0.00  0.00    +0.000 NA
ATOM     11  C   UNL     1       5.685   5.083  18.940  0.00  0.00    +0.000 A 
BRANCH   7  12
ATOM     12  C   UNL     1       5.247   4.841  16.424  0.00  0.00    +0.000 C 
ATOM     13  C   UNL     1       4.401   3.563  16.407  0.00  0.00    +0.000 C 
BRANCH  12  14
ATOM     14  C   UNL     1       6.073   4.983  15.131  0.00  0.00    +0.000 C 
BRANCH  14  16
ATOM     15  C   UNL     1       6.184   3.752  13.133  0.00  0.00    +0.000 C 
ATOM     16  O   UNL     1       6.349   3.710  14.546  0.00  0.00    +0.000 OA
ENDBRANCH  14  16
ENDBRANCH  12  14
ENDBRANCH   7  12
ENDBRANCH   1  11
BRANCH   5  17
ATOM     17  N   UNL     1       1.782   7.559  20.112  0.00  0.00    +0.000 N 
ATOM     18  C   UNL     1       1.617   8.503  19.109  0.00  0.00    +0.000 C 
ATOM     19  O   UNL     1       1.970   8.392  17.942  0.00  0.00    +0.000 OA
ATOM     20  H   UNL     1       1.538   7.828  21.052  0.00  0.00    +0.000 HD
BRANCH  18  21
ATOM     21  C   UNL     1       1.003   9.734  19.587  0.00  0.00    +0.000 A 
ATOM     22  C   UNL     1       0.858  10.937  18.909  0.00  0.00    +0.000 A 
ATOM     23  N   UNL     1       0.158  11.762  19.741  0.00  0.00    +0.000 N 
ATOM     24  C   UNL     1      -0.374  13.067  19.432  0.00  0.00    +0.000 C 
ATOM     25  N   UNL     1      -0.123  11.215  20.930  0.00  0.00    +0.000 NA
ATOM     26  C   UNL     1       0.386   9.985  20.835  0.00  0.00    +0.000 A 
BRANCH  26  27
ATOM     27  O   UNL     1       0.240   9.120  21.863  0.00  0.00    +0.000 OA
ATOM     28  C   UNL     1      -0.306   9.720  23.035  0.00  0.00    +0.000 C 
ENDBRANCH  26  27
ENDBRANCH  18  21
ENDBRANCH   5  17
TORSDOF 7
ENDMDL
MODEL 2
REMARK VINA RESULT:      -7.3      0.990      1.890
REMARK  Name = 
REMARK  11 active torsions:
REMARK  status: ('A' for Active; 'I' for Inactive)
REMARK    1  A    between atoms: C_1  and  O_2
REMARK    2  A    between atoms: O_2  and  C_3
REMARK    3  A    between atoms: C_3  and  C_4
REMARK    4  A    between atoms: C_4  and  C_5
REMARK    5  A    between atoms: C_4  and  N_6
REMARK    6  A    between atoms: C_10  and  C_11
REMARK    7  A    between atoms: C_15  and  N_16
REMARK    8  A    between atoms: C_17  and  C_19
REMARK    9  A    between atoms: N_21  and  C_22
REMARK   10  A    between atoms: C_24  and  O_25
REMARK   11  A    between atoms: O_25  and  C_26
REMARK                            x       y       z     vdW  Elec       q    Type
REMARK                         _______ _______ _______ _____ _____    ______ ____
ROOT
ATOM      1  C   UNL     1       4.296   5.355  19.517  0.00  0.00    +0.000 A 
ATOM      2  C   UNL     1       3.700   4.290  20.177  0.00  0.00    +0.000 A 
ATOM      3  C   UNL     1       2.375   4.415  20.566  0.00  0.00    +0.000 A 
ATOM      4  C   UNL     1       1.706   5.617  20.324  0.00  0.00    +0.000 A 
ATOM      5  C   UNL     1       2.395   6.661  19.718  0.00  0.00    +0.000 A 
ATOM      6  N   UNL     1       3.658   6.523  19.297  0.00  0.00    +0.000 NA
ENDROOT
BRANCH   1  11
ATOM      7  N   UNL     1       6.002   5.001  17.658  0.00  0.00    +0.000 N 
ATOM      8  C   UNL     1       7.354   4.789  17.680  0.00  0.00    +0.000 A 
ATOM      9  N   UNL     1       7.817   4.948  18.889  0.00  0.00    +0.000 NA
ATOM     10  N   UNL     1       6.753   5.222  19.702  0.00  0.00    +0.000 NA
ATOM     11  C   UNL     1       5.649   5.232  18.973  0.00  0.00    +0.000 A 
BRANCH   7  12
ATOM     12  C   UNL     1       5.141   4.932  16.476  0.00  0.00    +0.000 C 
ATOM     13  C   UNL     1       4.256   3.681  16.483  0.00  0.00    +0.000 C 
BRANCH  12  14
ATOM     14  C   UNL     1       5.942   5.044  15.164  0.00  0.00    +0.000 C 
BRANCH  14  16
ATOM     15  C   UNL     1       6.327   3.760  13.235  0.00  0.00    +0.000 C 
ATOM     16  O   UNL     1       5.341   4.279  14.120  0.00  0.00    +0.000 OA
ENDBRANCH  14  16
ENDBRANCH  12  14
ENDBRANCH   7  12
ENDBRANCH   1  11
BRANCH   5  17
ATOM     17  N   UNL     1       1.732   7.887  19.559  0.00  0.00    +0.000 N 
ATOM     18  C   UNL     1       1.313   8.705  20.599  0.00  0.00    +0.000 C 
ATOM     19  O   UNL     1       1.484   8.505  21.793  0.00  0.00    +0.000 OA
ATOM     20  H   UNL     1       1.429   8.123  18.627  0.00  0.00    +0.000 HD
BRANCH  18  21
ATOM     21  C   UNL     1       0.561   9.864  20.138  0.00  0.00    +0.000 A 
ATOM     22  C   UNL     1      -0.635  10.362  20.637  0.00  0.00    +0.000 A 
ATOM     23  N   UNL     1      -0.901  11.498  19.929  0.00  0.00    +0.000 N 
ATOM     24  C   UNL     1      -1.951  12.455  20.177  0.00  0.00    +0.000 C 
ATOM     25  N   UNL     1      -0.003  11.757  18.971  0.00  0.00    +0.000 NA
ATOM     26  C   UNL     1       0.884  10.769  19.100  0.00  0.00    +0.000 A 
BRANCH  26  27
ATOM     27  O   UNL     1       1.976  10.743  18.303  0.00  0.00    +0.000 OA
ATOM     28  C   UNL     1       2.481  12.039  17.991  0.00  0.00    +0.000 C 
ENDBRANCH  26  27
ENDBRANCH  18  21
ENDBRANCH   5  17
TORSDOF 7
ENDMDL
MODEL 3
REMARK VINA RESULT:      -7.2      1.346      1.513
REMARK  Name = 
REMARK  11 active torsions:
REMARK  status: ('A' for Active; 'I' for Inactive)
REMARK    1  A    between atoms: C_1  and  O_2
REMARK    2  A    between atoms: O_2  and  C_3
REMARK    3  A    between atoms: C_3  and  C_4
REMARK    4  A    between atoms: C_4  and  C_5
REMARK    5  A    between atoms: C_4  and  N_6
REMARK    6  A    between atoms: C_10  and  C_11
REMARK    7  A    between atoms: C_15  and  N_16
REMARK    8  A    between atoms: C_17  and  C_19
REMARK    9  A    between atoms: N_21  and  C_22
REMARK   10  A    between atoms: C_24  and  O_25
REMARK   11  A    between atoms: O_25  and  C_26
REMARK                            x       y       z     vdW  Elec       q    Type
REMARK                         _______ _______ _______ _____ _____    ______ ____
ROOT
ATOM      1  C   UNL     1       4.242   5.504  19.428  0.00  0.00    +0.000 A 
ATOM      2  C   UNL     1       3.528   4.441  19.964  0.00  0.00    +0.000 A 
ATOM      3  C   UNL     1       2.194   4.641  20.284  0.00  0.00    +0.000 A 
ATOM      4  C   UNL     1       1.633   5.908  20.103  0.00  0.00    +0.000 A 
ATOM      5  C   UNL     1       2.435   6.938  19.626  0.00  0.00    +0.000 A 
ATOM      6  N   UNL     1       3.709   6.733  19.269  0.00  0.00    +0.000 NA
ENDROOT
BRANCH   1  11
ATOM      7  N   UNL     1       6.019   5.004  17.672  0.00  0.00    +0.000 N 
ATOM      8  C   UNL     1       7.362   4.759  17.767  0.00  0.00    +0.000 A 
ATOM      9  N   UNL     1       7.775   4.972  18.986  0.00  0.00    +0.000 NA
ATOM     10  N   UNL     1       6.684   5.318  19.734  0.00  0.00    +0.000 NA
ATOM     11  C   UNL     1       5.614   5.316  18.954  0.00  0.00    +0.000 A 
BRANCH   7  12
ATOM     12  C   UNL     1       5.211   4.893  16.457  0.00  0.00    +0.000 C 
ATOM     13  C   UNL     1       4.312   3.652  16.478  0.00  0.00    +0.000 C 
BRANCH  12  14
ATOM     14  C   UNL     1       6.070   4.941  15.178  0.00  0.00    +0.000 C 
BRANCH  14  16
ATOM     15  C   UNL     1       6.183   3.726  13.170  0.00  0.00    +0.000 C 
ATOM     16  O   UNL     1       6.203   3.647  14.591  0.00  0.00    +0.000 OA
ENDBRANCH  14  16
ENDBRANCH  12  14
ENDBRANCH   7  12
ENDBRANCH   1  11
BRANCH   5  17
ATOM     17  N   UNL     1       1.877   8.221  19.530  0.00  0.00    +0.000 N 
ATOM     18  C   UNL     1       1.845   8.989  18.375  0.00  0.00    +0.000 C 
ATOM     19  O   UNL     1       2.258   8.658  17.272  0.00  0.00    +0.000 OA
ATOM     20  H   UNL     1       1.597   8.662  20.392  0.00  0.00    +0.000 HD
BRANCH  18  21
ATOM     21  C   UNL     1       1.296  10.320  18.596  0.00  0.00    +0.000 A 
ATOM     22  C   UNL     1       1.959  11.538  18.540  0.00  0.00    +0.000 A 
ATOM     23  N   UNL     1       1.011  12.498  18.745  0.00  0.00    +0.000 N 
ATOM     24  C   UNL     1       1.176  13.926  18.628  0.00  0.00    +0.000 C 
ATOM     25  N   UNL     1      -0.211  12.006  18.983  0.00  0.00    +0.000 NA
ATOM     26  C   UNL     1      -0.038  10.686  18.889  0.00  0.00    +0.000 A 
BRANCH  26  27
ATOM     27  O   UNL     1      -1.100   9.862  19.031  0.00  0.00    +0.000 OA
ATOM     28  C   UNL     1      -2.074  10.010  18.001  0.00  0.00    +0.000 C 
ENDBRANCH  26  27
ENDBRANCH  18  21
ENDBRANCH   5  17
TORSDOF 7
ENDMDL
MODEL 4
REMARK VINA RESULT:      -7.2      1.170      1.773
REMARK  Name = 
REMARK  11 active torsions:
REMARK  status: ('A' for Active; 'I' for Inactive)
REMARK    1  A    between atoms: C_1  and  O_2
REMARK    2  A    between atoms: O_2  and  C_3
REMARK    3  A    between atoms: C_3  and  C_4
REMARK    4  A    between atoms: C_4  and  C_5
REMARK    5  A    between atoms: C_4  and  N_6
REMARK    6  A    between atoms: C_10  and  C_11
REMARK    7  A    between atoms: C_15  and  N_16
REMARK    8  A    between atoms: C_17  and  C_19
REMARK    9  A    between atoms: N_21  and  C_22
REMARK   10  A    between atoms: C_24  and  O_25
REMARK   11  A    between atoms: O_25  and  C_26
REMARK                            x       y       z     vdW  Elec       q    Type
REMARK                         _______ _______ _______ _____ _____    ______ ____
ROOT
ATOM      1  C   UNL     1       4.326   5.233  19.458  0.00  0.00    +0.000 A 
ATOM      2  C   UNL     1       3.707   4.060  19.871  0.00  0.00    +0.000 A 
ATOM      3  C   UNL     1       2.370   4.114  20.233  0.00  0.00    +0.000 A 
ATOM      4  C   UNL     1       1.710   5.346  20.215  0.00  0.00    +0.000 A 
ATOM      5  C   UNL     1       2.420   6.485  19.856  0.00  0.00    +0.000 A 
ATOM      6  N   UNL     1       3.696   6.426  19.458  0.00  0.00    +0.000 NA
ENDROOT
BRANCH   1  11
ATOM      7  N   UNL     1       6.095   5.025  17.637  0.00  0.00    +0.000 N 
ATOM      8  C   UNL     1       7.458   4.908  17.688  0.00  0.00    +0.000 A 
ATOM      9  N   UNL     1       7.880   5.081  18.910  0.00  0.00    +0.000 NA
ATOM     10  N   UNL     1       6.782   5.268  19.701  0.00  0.00    +0.000 NA
ATOM     11  C   UNL     1       5.696   5.212  18.945  0.00  0.00    +0.000 A 
BRANCH   7  12
ATOM     12  C   UNL     1       5.269   4.915  16.433  0.00  0.00    +0.000 C 
ATOM     13  C   UNL     1       4.418   3.640  16.438  0.00  0.00    +0.000 C 
BRANCH  12  14
ATOM     14  C   UNL     1       6.102   5.027  15.142  0.00  0.00    +0.000 C 
BRANCH  14  16
ATOM     15  C   UNL     1       6.125   3.749  13.171  0.00  0.00    +0.000 C 
ATOM     16  O   UNL     1       6.359   3.743  14.574  0.00  0.00    +0.000 OA
ENDBRANCH  14  16
ENDBRANCH  12  14
ENDBRANCH   7  12
ENDBRANCH   1  11
BRANCH   5  17
ATOM     17  N   UNL     1       1.763   7.723  19.925  0.00  0.00    +0.000 N 
ATOM     18  C   UNL     1       1.553   8.572  18.848  0.00  0.00    +0.000 C 
ATOM     19  O   UNL     1       1.870   8.361  17.685  0.00  0.00    +0.000 OA
ATOM     20  H   UNL     1       1.545   8.072  20.845  0.00  0.00    +0.000 HD
BRANCH  18  21
ATOM     21  C   UNL     1       0.936   9.834  19.235  0.00  0.00    +0.000 A 
ATOM     22  C   UNL     1      -0.183  10.029  20.033  0.00  0.00    +0.000 A 
ATOM     23  N   UNL     1      -0.325  11.379  20.167  0.00  0.00    +0.000 N 
ATOM     24  C   UNL     1      -1.250  12.079  21.026  0.00  0.00    +0.000 C 
ATOM     25  N   UNL     1       0.579  12.087  19.479  0.00  0.00    +0.000 NA
ATOM     26  C   UNL     1       1.345  11.150  18.918  0.00  0.00    +0.000 A 
BRANCH  26  27
ATOM     27  O   UNL     1       2.411  11.516  18.172  0.00  0.00    +0.000 OA
ATOM     28  C   UNL     1       2.621  12.926  18.137  0.00  0.00    +0.000 C 
ENDBRANCH  26  27
ENDBRANCH  18  21
ENDBRANCH   5  17
TORSDOF 7
ENDMDL
MODEL 5
REMARK VINA RESULT:      -7.2      1.052      1.757
REMARK  Name = 
REMARK  11 active torsions:
REMARK  status: ('A' for Active; 'I' for Inactive)
REMARK    1  A    between atoms: C_1  and  O_2
REMARK    2  A    between atoms: O_2  and  C_3
REMARK    3  A    between atoms: C_3  and  C_4
REMARK    4  A    between atoms: C_4  and  C_5
REMARK    5  A    between atoms: C_4  and  N_6
REMARK    6  A    between atoms: C_10  and  C_11
REMARK    7  A    between atoms: C_15  and  N_16
REMARK    8  A    between atoms: C_17  and  C_19
REMARK    9  A    between atoms: N_21  and  C_22
REMARK   10  A    between atoms: C_24  and  O_25
REMARK   11  A    between atoms: O_25  and  C_26
REMARK                            x       y       z     vdW  Elec       q    Type
REMARK                         _______ _______ _______ _____ _____    ______ ____
ROOT
ATOM      1  C   UNL     1       4.369   4.761  19.575  0.00  0.00    +0.000 A 
ATOM      2  C   UNL     1       3.867   3.483  19.779  0.00  0.00    +0.000 A 
ATOM      3  C   UNL     1       2.547   3.352  20.184  0.00  0.00    +0.000 A 
ATOM      4  C   UNL     1       1.790   4.502  20.416  0.00  0.00    +0.000 A 
ATOM      5  C   UNL     1       2.388   5.746  20.256  0.00  0.00    +0.000 A 
ATOM      6  N   UNL     1       3.646   5.873  19.817  0.00  0.00    +0.000 NA
ENDROOT
BRANCH   1  11
ATOM      7  N   UNL     1       6.085   4.918  17.699  0.00  0.00    +0.000 N 
ATOM      8  C   UNL     1       7.453   4.974  17.707  0.00  0.00    +0.000 A 
ATOM      9  N   UNL     1       7.893   5.110  18.928  0.00  0.00    +0.000 NA
ATOM     10  N   UNL     1       6.808   5.095  19.759  0.00  0.00    +0.000 NA
ATOM     11  C   UNL     1       5.712   4.955  19.028  0.00  0.00    +0.000 A 
BRANCH   7  12
ATOM     12  C   UNL     1       5.238   4.791  16.512  0.00  0.00    +0.000 C 
ATOM     13  C   UNL     1       4.510   3.444  16.470  0.00  0.00    +0.000 C 
BRANCH  12  14
ATOM     14  C   UNL     1       6.019   5.048  15.209  0.00  0.00    +0.000 C 
BRANCH  14  16
ATOM     15  C   UNL     1       6.185   3.796  13.228  0.00  0.00    +0.000 C 
ATOM     16  O   UNL     1       6.468   3.826  14.622  0.00  0.00    +0.000 OA
ENDBRANCH  14  16
ENDBRANCH  12  14
ENDBRANCH   7  12
ENDBRANCH   1  11
BRANCH   5  17
ATOM     17  N   UNL     1       1.637   6.888  20.574  0.00  0.00    +0.000 N 
ATOM     18  C   UNL     1       1.623   8.061  19.834  0.00  0.00    +0.000 C 
ATOM     19  O   UNL     1       2.225   8.267  18.789  0.00  0.00    +0.000 OA
ATOM     20  H   UNL     1       1.178   6.895  21.472  0.00  0.00    +0.000 HD
BRANCH  18  21
ATOM     21  C   UNL     1       0.833   9.114  20.459  0.00  0.00    +0.000 A 
ATOM     22  C   UNL     1       0.232   9.103  21.710  0.00  0.00    +0.000 A 
ATOM     23  N   UNL     1      -0.329  10.336  21.875  0.00  0.00    +0.000 N 
ATOM     24  C   UNL     1      -0.935  10.867  23.071  0.00  0.00    +0.000 C 
ATOM     25  N   UNL     1      -0.188  11.138  20.812  0.00  0.00    +0.000 NA
ATOM     26  C   UNL     1       0.518  10.398  19.956  0.00  0.00    +0.000 A 
BRANCH  26  27
ATOM     27  O   UNL     1       0.890  10.923  18.766  0.00  0.00    +0.000 OA
ATOM     28  C   UNL     1       1.728  12.069  18.890  0.00  0.00    +0.000 C 
ENDBRANCH  26  27
ENDBRANCH  18  21
ENDBRANCH   5  17
TORSDOF 7
ENDMDL
MODEL 6
REMARK VINA RESULT:      -7.1      1.008      1.788
REMARK  Name = 
REMARK  11 active torsions:
REMARK  status: ('A' for Active; 'I' for Inactive)
REMARK    1  A    between atoms: C_1  and  O_2
REMARK    2  A    between atoms: O_2  and  C_3
REMARK    3  A    between atoms: C_3  and  C_4
REMARK    4  A    between atoms: C_4  and  C_5
REMARK    5  A    between atoms: C_4  and  N_6
REMARK    6  A    between atoms: C_10  and  C_11
REMARK    7  A    between atoms: C_15  and  N_16
REMARK    8  A    between atoms: C_17  and  C_19
REMARK    9  A    between atoms: N_21  and  C_22
REMARK   10  A    between atoms: C_24  and  O_25
REMARK   11  A    between atoms: O_25  and  C_26
REMARK                            x       y       z     vdW  Elec       q    Type
REMARK                         _______ _______ _______ _____ _____    ______ ____
ROOT
ATOM      1  C   UNL     1       4.215   5.495  19.437  0.00  0.00    +0.000 A 
ATOM      2  C   UNL     1       3.499   4.425  19.955  0.00  0.00    +0.000 A 
ATOM      3  C   UNL     1       2.164   4.619  20.276  0.00  0.00    +0.000 A 
ATOM      4  C   UNL     1       1.604   5.888  20.111  0.00  0.00    +0.000 A 
ATOM      5  C   UNL     1       2.407   6.925  19.651  0.00  0.00    +0.000 A 
ATOM      6  N   UNL     1       3.682   6.726  19.294  0.00  0.00    +0.000 NA
ENDROOT
BRANCH   1  11
ATOM      7  N   UNL     1       5.996   5.009  17.681  0.00  0.00    +0.000 N 
ATOM      8  C   UNL     1       7.340   4.769  17.777  0.00  0.00    +0.000 A 
ATOM      9  N   UNL     1       7.750   4.978  18.998  0.00  0.00    +0.000 NA
ATOM     10  N   UNL     1       6.657   5.317  19.745  0.00  0.00    +0.000 NA
ATOM     11  C   UNL     1       5.588   5.314  18.964  0.00  0.00    +0.000 A 
BRANCH   7  12
ATOM     12  C   UNL     1       5.190   4.901  16.464  0.00  0.00    +0.000 C 
ATOM     13  C   UNL     1       4.327   3.634  16.460  0.00  0.00    +0.000 C 
BRANCH  12  14
ATOM     14  C   UNL     1       6.046   5.000  15.187  0.00  0.00    +0.000 C 
BRANCH  14  16
ATOM     15  C   UNL     1       6.169   3.783  13.181  0.00  0.00    +0.000 C 
ATOM     16  O   UNL     1       6.256   3.717  14.600  0.00  0.00    +0.000 OA
ENDBRANCH  14  16
ENDBRANCH  12  14
ENDBRANCH   7  12
ENDBRANCH   1  11
BRANCH   5  17
ATOM     17  N   UNL     1       1.848   8.209  19.571  0.00  0.00    +0.000 N 
ATOM     18  C   UNL     1       1.196   8.858  20.610  0.00  0.00    +0.000 C 
ATOM     19  O   UNL     1       1.041   8.433  21.747  0.00  0.00    +0.000 OA
ATOM     20  H   UNL     1       1.809   8.633  18.658  0.00  0.00    +0.000 HD
BRANCH  18  21
ATOM     21  C   UNL     1       0.630  10.139  20.209  0.00  0.00    +0.000 A 
ATOM     22  C   UNL     1       0.585  11.319  20.938  0.00  0.00    +0.000 A 
ATOM     23  N   UNL     1       0.027  12.255  20.116  0.00  0.00    +0.000 N 
ATOM     24  C   UNL     1      -0.095  13.671  20.360  0.00  0.00    +0.000 C 
ATOM     25  N   UNL     1      -0.346  11.770  18.925  0.00  0.00    +0.000 NA
ATOM     26  C   UNL     1       0.022  10.489  18.981  0.00  0.00    +0.000 A 
BRANCH  26  27
ATOM     27  O   UNL     1      -0.165   9.692  17.905  0.00  0.00    +0.000 OA
ATOM     28  C   UNL     1      -1.455   9.833  17.314  0.00  0.00    +0.000 C 
ENDBRANCH  26  27
ENDBRANCH  18  21
ENDBRANCH   5  17
TORSDOF 7
ENDMDL
MODEL 7
REMARK VINA RESULT:      -7.0      1.290      1.656
REMARK  Name = 
REMARK  11 active torsions:
REMARK  status: ('A' for Active; 'I' for Inactive)
REMARK    1  A    between atoms: C_1  and  O_2
REMARK    2  A    between atoms: O_2  and  C_3
REMARK    3  A    between atoms: C_3  and  C_4
REMARK    4  A    between atoms: C_4  and  C_5
REMARK    5  A    between atoms: C_4  and  N_6
REMARK    6  A    between atoms: C_10  and  C_11
REMARK    7  A    between atoms: C_15  and  N_16
REMARK    8  A    between atoms: C_17  and  C_19
REMARK    9  A    between atoms: N_21  and  C_22
REMARK   10  A    between atoms: C_24  and  O_25
REMARK   11  A    between atoms: O_25  and  C_26
REMARK                            x       y       z     vdW  Elec       q    Type
REMARK                         _______ _______ _______ _____ _____    ______ ____
ROOT
ATOM      1  C   UNL     1       4.139   5.493  19.571  0.00  0.00    +0.000 A 
ATOM      2  C   UNL     1       3.552   4.450  20.274  0.00  0.00    +0.000 A 
ATOM      3  C   UNL     1       2.238   4.595  20.693  0.00  0.00    +0.000 A 
ATOM      4  C   UNL     1       1.572   5.796  20.436  0.00  0.00    +0.000 A 
ATOM      5  C   UNL     1       2.253   6.819  19.786  0.00  0.00    +0.000 A 
ATOM      6  N   UNL     1       3.504   6.660  19.338  0.00  0.00    +0.000 NA
ENDROOT
BRANCH   1  11
ATOM      7  N   UNL     1       5.795   5.096  17.677  0.00  0.00    +0.000 N 
ATOM      8  C   UNL     1       7.145   4.866  17.669  0.00  0.00    +0.000 A 
ATOM      9  N   UNL     1       7.638   5.031  18.865  0.00  0.00    +0.000 NA
ATOM     10  N   UNL     1       6.598   5.328  19.701  0.00  0.00    +0.000 NA
ATOM     11  C   UNL     1       5.477   5.345  18.997  0.00  0.00    +0.000 A 
BRANCH   7  12
ATOM     12  C   UNL     1       4.906   5.027  16.516  0.00  0.00    +0.000 C 
ATOM     13  C   UNL     1       4.062   3.749  16.517  0.00  0.00    +0.000 C 
BRANCH  12  14
ATOM     14  C   UNL     1       5.669   5.195  15.187  0.00  0.00    +0.000 C 
BRANCH  14  16
ATOM     15  C   UNL     1       6.426   3.915  13.369  0.00  0.00    +0.000 C 
ATOM     16  O   UNL     1       5.349   4.150  14.268  0.00  0.00    +0.000 OA
ENDBRANCH  14  16
ENDBRANCH  12  14
ENDBRANCH   7  12
ENDBRANCH   1  11
BRANCH   5  17
ATOM     17  N   UNL     1       1.595   8.045  19.612  0.00  0.00    +0.000 N 
ATOM     18  C   UNL     1       1.210   8.893  20.640  0.00  0.00    +0.000 C 
ATOM     19  O   UNL     1       1.412   8.724  21.834  0.00  0.00    +0.000 OA
ATOM     20  H   UNL     1       1.268   8.258  18.682  0.00  0.00    +0.000 HD
BRANCH  18  21
ATOM     21  C   UNL     1       0.454  10.046  20.168  0.00  0.00    +0.000 A 
ATOM     22  C   UNL     1      -0.689  10.055  19.381  0.00  0.00    +0.000 A 
ATOM     23  N   UNL     1      -1.066  11.362  19.269  0.00  0.00    +0.000 N 
ATOM     24  C   UNL     1      -2.277  11.874  18.677  0.00  0.00    +0.000 C 
ATOM     25  N   UNL     1      -0.232  12.216  19.875  0.00  0.00    +0.000 NA
ATOM     26  C   UNL     1       0.687  11.418  20.423  0.00  0.00    +0.000 A 
BRANCH  26  27
ATOM     27  O   UNL     1       1.680  11.954  21.167  0.00  0.00    +0.000 OA
ATOM     28  C   UNL     1       2.141  13.210  20.676  0.00  0.00    +0.000 C 
ENDBRANCH  26  27
ENDBRANCH  18  21
ENDBRANCH   5  17
TORSDOF 7
ENDMDL
MODEL 8
REMARK VINA RESULT:      -7.0      2.156      7.796
REMARK  Name = 
REMARK  11 active torsions:
REMARK  status: ('A' for Active; 'I' for Inactive)
REMARK    1  A    between atoms: C_1  and  O_2
REMARK    2  A    between atoms: O_2  and  C_3
REMARK    3  A    between atoms: C_3  and  C_4
REMARK    4  A    between atoms: C_4  and  C_5
REMARK    5  A    between atoms: C_4  and  N_6
REMARK    6  A    between atoms: C_10  and  C_11
REMARK    7  A    between atoms: C_15  and  N_16
REMARK    8  A    between atoms: C_17  and  C_19
REMARK    9  A    between atoms: N_21  and  C_22
REMARK   10  A    between atoms: C_24  and  O_25
REMARK   11  A    between atoms: O_25  and  C_26
REMARK                            x       y       z     vdW  Elec       q    Type
REMARK                         _______ _______ _______ _____ _____    ______ ____
ROOT
ATOM      1  C   UNL     1       1.737   7.164  20.398  0.00  0.00    +0.000 A 
ATOM      2  C   UNL     1       1.166   6.017  20.932  0.00  0.00    +0.000 A 
ATOM      3  C   UNL     1       1.675   4.787  20.544  0.00  0.00    +0.000 A 
ATOM      4  C   UNL     1       2.705   4.744  19.602  0.00  0.00    +0.000 A 
ATOM      5  C   UNL     1       3.176   5.936  19.063  0.00  0.00    +0.000 A 
ATOM      6  N   UNL     1       2.719   7.125  19.474  0.00  0.00    +0.000 NA
ENDROOT
BRANCH   1  11
ATOM      7  N   UNL     1       0.896   9.549  20.093  0.00  0.00    +0.000 N 
ATOM      8  C   UNL     1       0.802  10.608  20.956  0.00  0.00    +0.000 A 
ATOM      9  N   UNL     1       1.075  10.225  22.172  0.00  0.00    +0.000 NA
ATOM     10  N   UNL     1       1.407   8.900  22.121  0.00  0.00    +0.000 NA
ATOM     11  C   UNL     1       1.325   8.488  20.865  0.00  0.00    +0.000 A 
BRANCH   7  12
ATOM     12  C   UNL     1       0.640   9.591  18.653  0.00  0.00    +0.000 C 
ATOM     13  C   UNL     1       1.923   9.824  17.849  0.00  0.00    +0.000 C 
BRANCH  12  14
ATOM     14  C   UNL     1      -0.447  10.619  18.283  0.00  0.00    +0.000 C 
BRANCH  14  16
ATOM     15  C   UNL     1      -2.766  10.996  18.271  0.00  0.00    +0.000 C 
ATOM     16  O   UNL     1      -1.738  10.013  18.223  0.00  0.00    +0.000 OA
ENDBRANCH  14  16
ENDBRANCH  12  14
ENDBRANCH   7  12
ENDBRANCH   1  11
BRANCH   5  17
ATOM     17  N   UNL     1       4.151   5.868  18.058  0.00  0.00    +0.000 N 
ATOM     18  C   UNL     1       4.255   4.852  17.118  0.00  0.00    +0.000 C 
ATOM     19  O   UNL     1       3.504   3.894  17.000  0.00  0.00    +0.000 OA
ATOM     20  H   UNL     1       4.902   6.539  18.106  0.00  0.00    +0.000 HD
BRANCH  18  21
ATOM     21  C   UNL     1       5.426   4.991  16.263  0.00  0.00    +0.000 A 
ATOM     22  C   UNL     1       5.610   4.499  14.978  0.00  0.00    +0.000 A 
ATOM     23  N   UNL     1       6.831   4.949  14.567  0.00  0.00    +0.000 N 
ATOM     24  C   UNL     1       7.407   4.832  13.250  0.00  0.00    +0.000 C 
ATOM     25  N   UNL     1       7.486   5.653  15.499  0.00  0.00    +0.000 NA
ATOM     26  C   UNL     1       6.633   5.681  16.525  0.00  0.00    +0.000 A 
BRANCH  26  27
ATOM     27  O   UNL     1       6.957   6.364  17.645  0.00  0.00    +0.000 OA
ATOM     28  C   UNL     1       7.643   5.572  18.612  0.00  0.00    +0.000 C 
ENDBRANCH  26  27
ENDBRANCH  18  21
ENDBRANCH   5  17
TORSDOF 7
ENDMDL
MODEL 9
REMARK VINA RESULT:      -6.9      1.908      2.728
REMARK  Name = 
REMARK  11 active torsions:
REMARK  status: ('A' for Active; 'I' for Inactive)
REMARK    1  A    between atoms: C_1  and  O_2
REMARK    2  A    between atoms: O_2  and  C_3
REMARK    3  A    between atoms: C_3  and  C_4
REMARK    4  A    between atoms: C_4  and  C_5
REMARK    5  A    between atoms: C_4  and  N_6
REMARK    6  A    between atoms: C_10  and  C_11
REMARK    7  A    between atoms: C_15  and  N_16
REMARK    8  A    between atoms: C_17  and  C_19
REMARK    9  A    between atoms: N_21  and  C_22
REMARK   10  A    between atoms: C_24  and  O_25
REMARK   11  A    between atoms: O_25  and  C_26
REMARK                            x       y       z     vdW  Elec       q    Type
REMARK                         _______ _______ _______ _____ _____    ______ ____
ROOT
ATOM      1  C   UNL     1       4.663   4.463  18.171  0.00  0.00    +0.000 A 
ATOM      2  C   UNL     1       4.565   3.433  19.097  0.00  0.00    +0.000 A 
ATOM      3  C   UNL     1       3.609   3.536  20.096  0.00  0.00    +0.000 A 
ATOM      4  C   UNL     1       2.817   4.685  20.164  0.00  0.00    +0.000 A 
ATOM      5  C   UNL     1       3.025   5.702  19.240  0.00  0.00    +0.000 A 
ATOM      6  N   UNL     1       3.913   5.582  18.245  0.00  0.00    +0.000 NA
ENDROOT
BRANCH   1  11
ATOM      7  N   UNL     1       6.727   5.064  16.804  0.00  0.00    +0.000 N 
ATOM      8  C   UNL     1       7.113   4.740  15.531  0.00  0.00    +0.000 A 
ATOM      9  N   UNL     1       6.306   3.847  15.028  0.00  0.00    +0.000 NA
ATOM     10  N   UNL     1       5.334   3.602  15.958  0.00  0.00    +0.000 NA
ATOM     11  C   UNL     1       5.565   4.351  17.024  0.00  0.00    +0.000 A 
BRANCH   7  12
ATOM     12  C   UNL     1       7.403   6.013  17.690  0.00  0.00    +0.000 C 
ATOM     13  C   UNL     1       7.410   5.533  19.145  0.00  0.00    +0.000 C 
BRANCH  12  14
ATOM     14  C   UNL     1       6.822   7.435  17.573  0.00  0.00    +0.000 C 
BRANCH  14  16
ATOM     15  C   UNL     1       8.316   9.161  18.130  0.00  0.00    +0.000 C 
ATOM     16  O   UNL     1       7.794   8.356  17.078  0.00  0.00    +0.000 OA
ENDBRANCH  14  16
ENDBRANCH  12  14
ENDBRANCH   7  12
ENDBRANCH   1  11
BRANCH   5  17
ATOM     17  N   UNL     1       2.278   6.881  19.375  0.00  0.00    +0.000 N 
ATOM     18  C   UNL     1       2.326   7.957  18.499  0.00  0.00    +0.000 C 
ATOM     19  O   UNL     1       2.988   8.028  17.473  0.00  0.00    +0.000 OA
ATOM     20  H   UNL     1       1.770   7.003  20.237  0.00  0.00    +0.000 HD
BRANCH  18  21
ATOM     21  C   UNL     1       1.521   9.086  18.947  0.00  0.00    +0.000 A 
ATOM     22  C   UNL     1       1.093  10.178  18.205  0.00  0.00    +0.000 A 
ATOM     23  N   UNL     1       0.310  10.922  19.038  0.00  0.00    +0.000 N 
ATOM     24  C   UNL     1      -0.488  12.072  18.690  0.00  0.00    +0.000 C 
ATOM     25  N   UNL     1       0.231  10.434  20.282  0.00  0.00    +0.000 NA
ATOM     26  C   UNL     1       0.962   9.319  20.225  0.00  0.00    +0.000 A 
BRANCH  26  27
ATOM     27  O   UNL     1       1.066   8.531  21.318  0.00  0.00    +0.000 OA
ATOM     28  C   UNL     1       0.836   9.227  22.542  0.00  0.00    +0.000 C 
ENDBRANCH  26  27
ENDBRANCH  18  21
ENDBRANCH   5  17
TORSDOF 7
ENDMDL
