MODEL 1
REMARK VINA RESULT:      -7.6      0.000      0.000
REMARK  Name = 
REMARK  3 active torsions:
REMARK  status: ('A' for Active; 'I' for Inactive)
REMARK    1  A    between atoms: N_5  and  C_6
REMARK    2  A    between atoms: C_6  and  C_7
REMARK    3  A    between atoms: C_7  and  N_8
REMARK                            x       y       z     vdW  Elec       q    Type
REMARK                         _______ _______ _______ _____ _____    ______ ____
ROOT
ATOM      1  N   UNL     1       5.252   4.916  19.041  0.00  0.00    +0.000 NA
ATOM      2  C   UNL     1       5.210   3.472  18.815  0.00  0.00    +0.000 C 
ATOM      3  C   UNL     1       4.051   3.043  19.694  0.00  0.00    +0.000 C 
ATOM      4  C   UNL     1       3.012   4.169  19.523  0.00  0.00    +0.000 C 
ATOM      5  C   UNL     1       2.282   4.466  20.847  0.00  0.00    +0.000 C 
ATOM      6  C   UNL     1       1.343   3.326  21.238  0.00  0.00    +0.000 C 
ATOM      7  N   UNL     1       0.351   3.059  20.194  0.00  0.00    +0.000 NA
ATOM      8  C   UNL     1       0.989   2.723  18.921  0.00  0.00    +0.000 C 
ATOM      9  C   UNL     1       1.953   3.815  18.453  0.00  0.00    +0.000 C 
ATOM     10  C   UNL     1       3.853   5.371  19.048  0.00  0.00    +0.000 C 
ATOM     11  H   UNL     1      -0.226   3.890  20.067  0.00  0.00    +0.000 HD
ENDROOT
BRANCH   1  12
ATOM     12  C   UNL     1       6.065   5.598  18.019  0.00  0.00    +0.000 C 
BRANCH  12  13
ATOM     13  C   UNL     1       7.094   4.674  17.361  0.00  0.00    +0.000 C 
BRANCH  13  18
ATOM     14 CL   UNL     1       5.542   3.341  12.568  0.00  0.00    +0.000 Cl
ATOM     15  C   UNL     1       6.272   4.061  13.910  0.00  0.00    +0.000 A 
ATOM     16  C   UNL     1       7.197   5.121  13.896  0.00  0.00    +0.000 A 
ATOM     17  N   UNL     1       7.585   5.469  15.128  0.00  0.00    +0.000 NA
ATOM     18  N   UNL     1       6.909   4.616  15.924  0.00  0.00    +0.000 N 
ATOM     19  C   UNL     1       6.103   3.753  15.237  0.00  0.00    +0.000 A 
ENDBRANCH  13  18
ENDBRANCH  12  13
ENDBRANCH   1  12
TORSDOF 3
ENDMDL
MODEL 2
REMARK VINA RESULT:      -7.4      0.757      1.608
REMARK  Name = 
REMARK  3 active torsions:
REMARK  status: ('A' for Active; 'I' for Inactive)
REMARK    1  A    between atoms: N_5  and  C_6
REMARK    2  A    between atoms: C_6  and  C_7
REMARK    3  A    between atoms: C_7  and  N_8
REMARK                            x       y       z     vdW  Elec       q    Type
REMARK                         _______ _______ _______ _____ _____    ______ ____
ROOT
ATOM      1  N   UNL     1       5.001   4.736  17.880  0.00  0.00    +0.000 NA
ATOM      2  C   UNL     1       3.992   5.793  17.816  0.00  0.00    +0.000 C 
ATOM      3  C   UNL     1       2.699   5.011  17.947  0.00  0.00    +0.000 C 
ATOM      4  C   UNL     1       3.021   3.922  18.989  0.00  0.00    +0.000 C 
ATOM      5  C   UNL     1       2.336   2.588  18.637  0.00  0.00    +0.000 C 
ATOM      6  C   UNL     1       0.822   2.667  18.829  0.00  0.00    +0.000 C 
ATOM      7  N   UNL     1       0.468   3.039  20.200  0.00  0.00    +0.000 NA
ATOM      8  C   UNL     1       1.055   4.327  20.575  0.00  0.00    +0.000 C 
ATOM      9  C   UNL     1       2.575   4.338  20.410  0.00  0.00    +0.000 C 
ATOM     10  C   UNL     1       4.558   3.811  18.935  0.00  0.00    +0.000 C 
ATOM     11  H   UNL     1       0.812   2.321  20.837  0.00  0.00    +0.000 HD
ENDROOT
BRANCH   1  12
ATOM     12  C   UNL     1       6.343   5.286  18.134  0.00  0.00    +0.000 C 
BRANCH  12  13
ATOM     13  C   UNL     1       7.439   4.584  17.326  0.00  0.00    +0.000 C 
BRANCH  13  18
ATOM     14 CL   UNL     1       5.565   3.300  12.635  0.00  0.00    +0.000 Cl
ATOM     15  C   UNL     1       6.349   4.034  13.940  0.00  0.00    +0.000 A 
ATOM     16  C   UNL     1       7.164   5.179  13.893  0.00  0.00    +0.000 A 
ATOM     17  N   UNL     1       7.634   5.514  15.100  0.00  0.00    +0.000 NA
ATOM     18  N   UNL     1       7.122   4.566  15.911  0.00  0.00    +0.000 N 
ATOM     19  C   UNL     1       6.338   3.657  15.259  0.00  0.00    +0.000 A 
ENDBRANCH  13  18
ENDBRANCH  12  13
ENDBRANCH   1  12
TORSDOF 3
ENDMDL
MODEL 3
REMARK VINA RESULT:      -7.4      1.000      1.583
REMARK  Name = 
REMARK  3 active torsions:
REMARK  status: ('A' for Active; 'I' for Inactive)
REMARK    1  A    between atoms: N_5  and  C_6
REMARK    2  A    between atoms: C_6  and  C_7
REMARK    3  A    between atoms: C_7  and  N_8
REMARK                            x       y       z     vdW  Elec       q    Type
REMARK                         _______ _______ _______ _____ _____    ______ ____
ROOT
ATOM      1  N   UNL     1       4.987   4.589  17.998  0.00  0.00    +0.000 NA
ATOM      2  C   UNL     1       5.032   5.275  19.289  0.00  0.00    +0.000 C 
ATOM      3  C   UNL     1       3.599   5.152  19.768  0.00  0.00    +0.000 C 
ATOM      4  C   UNL     1       3.179   3.731  19.342  0.00  0.00    +0.000 C 
ATOM      5  C   UNL     1       1.713   3.696  18.873  0.00  0.00    +0.000 C 
ATOM      6  C   UNL     1       0.746   3.895  20.039  0.00  0.00    +0.000 C 
ATOM      7  N   UNL     1       0.939   2.884  21.082  0.00  0.00    +0.000 NA
ATOM      8  C   UNL     1       2.307   2.904  21.601  0.00  0.00    +0.000 C 
ATOM      9  C   UNL     1       3.346   2.713  20.495  0.00  0.00    +0.000 C 
ATOM     10  C   UNL     1       4.157   3.391  18.199  0.00  0.00    +0.000 C 
ATOM     11  H   UNL     1       0.747   1.964  20.689  0.00  0.00    +0.000 HD
ENDROOT
BRANCH   1  12
ATOM     12  C   UNL     1       6.339   4.267  17.510  0.00  0.00    +0.000 C 
BRANCH  12  13
ATOM     13  C   UNL     1       6.914   5.347  16.588  0.00  0.00    +0.000 C 
BRANCH  13  18
ATOM     14 CL   UNL     1       5.666   2.986  12.113  0.00  0.00    +0.000 Cl
ATOM     15  C   UNL     1       6.352   3.949  13.319  0.00  0.00    +0.000 A 
ATOM     16  C   UNL     1       7.408   4.866  13.162  0.00  0.00    +0.000 A 
ATOM     17  N   UNL     1       7.718   5.480  14.310  0.00  0.00    +0.000 NA
ATOM     18  N   UNL     1       6.861   4.937  15.198  0.00  0.00    +0.000 N 
ATOM     19  C   UNL     1       6.017   4.015  14.647  0.00  0.00    +0.000 A 
ENDBRANCH  13  18
ENDBRANCH  12  13
ENDBRANCH   1  12
TORSDOF 3
ENDMDL
MODEL 4
REMARK VINA RESULT:      -7.3      1.297      1.600
REMARK  Name = 
REMARK  3 active torsions:
REMARK  status: ('A' for Active; 'I' for Inactive)
REMARK    1  A    between atoms: N_5  and  C_6
REMARK    2  A    between atoms: C_6  and  C_7
REMARK    3  A    between atoms: C_7  and  N_8
REMARK                            x       y       z     vdW  Elec       q    Type
REMARK                         _______ _______ _______ _____ _____    ______ ____
ROOT
ATOM      1  N   UNL     1       4.817   5.944  17.769  0.00  0.00    +0.000 NA
ATOM      2  C   UNL     1       5.167   5.248  19.008  0.00  0.00    +0.000 C 
ATOM      3  C   UNL     1       3.846   4.619  19.406  0.00  0.00    +0.000 C 
ATOM      4  C   UNL     1       3.232   4.153  18.071  0.00  0.00    +0.000 C 
ATOM      5  C   UNL     1       1.706   4.355  18.054  0.00  0.00    +0.000 C 
ATOM      6  C   UNL     1       1.000   3.384  18.998  0.00  0.00    +0.000 C 
ATOM      7  N   UNL     1       1.301   1.989  18.666  0.00  0.00    +0.000 NA
ATOM      8  C   UNL     1       2.740   1.725  18.713  0.00  0.00    +0.000 C 
ATOM      9  C   UNL     1       3.528   2.660  17.794  0.00  0.00    +0.000 C 
ATOM     10  C   UNL     1       3.941   5.030  17.020  0.00  0.00    +0.000 C 
ATOM     11  H   UNL     1       0.959   1.793  17.726  0.00  0.00    +0.000 HD
ENDROOT
BRANCH   1  12
ATOM     12  C   UNL     1       6.018   6.328  17.009  0.00  0.00    +0.000 C 
BRANCH  12  13
ATOM     13  C   UNL     1       6.930   5.140  16.692  0.00  0.00    +0.000 C 
BRANCH  13  18
ATOM     14 CL   UNL     1       5.903   2.978  12.062  0.00  0.00    +0.000 Cl
ATOM     15  C   UNL     1       6.495   3.920  13.333  0.00  0.00    +0.000 A 
ATOM     16  C   UNL     1       7.453   4.946  13.242  0.00  0.00    +0.000 A 
ATOM     17  N   UNL     1       7.707   5.508  14.429  0.00  0.00    +0.000 NA
ATOM     18  N   UNL     1       6.912   4.823  15.277  0.00  0.00    +0.000 N 
ATOM     19  C   UNL     1       6.161   3.861  14.662  0.00  0.00    +0.000 A 
ENDBRANCH  13  18
ENDBRANCH  12  13
ENDBRANCH   1  12
TORSDOF 3
ENDMDL
MODEL 5
REMARK VINA RESULT:      -7.0      1.033      1.389
REMARK  Name = 
REMARK  3 active torsions:
REMARK  status: ('A' for Active; 'I' for Inactive)
REMARK    1  A    between atoms: N_5  and  C_6
REMARK    2  A    between atoms: C_6  and  C_7
REMARK    3  A    between atoms: C_7  and  N_8
REMARK                            x       y       z     vdW  Elec       q    Type
REMARK                         _______ _______ _______ _____ _____    ______ ____
ROOT
ATOM      1  N   UNL     1       4.973   4.365  17.862  0.00  0.00    +0.000 NA
ATOM      2  C   UNL     1       3.687   4.450  17.171  0.00  0.00    +0.000 C 
ATOM      3  C   UNL     1       2.795   3.591  18.047  0.00  0.00    +0.000 C 
ATOM      4  C   UNL     1       3.246   3.922  19.484  0.00  0.00    +0.000 C 
ATOM      5  C   UNL     1       3.223   2.671  20.382  0.00  0.00    +0.000 C 
ATOM      6  C   UNL     1       1.794   2.217  20.674  0.00  0.00    +0.000 C 
ATOM      7  N   UNL     1       1.007   3.276  21.310  0.00  0.00    +0.000 NA
ATOM      8  C   UNL     1       0.954   4.478  20.477  0.00  0.00    +0.000 C 
ATOM      9  C   UNL     1       2.349   5.002  20.132  0.00  0.00    +0.000 C 
ATOM     10  C   UNL     1       4.675   4.471  19.299  0.00  0.00    +0.000 C 
ATOM     11  H   UNL     1       1.434   3.512  22.205  0.00  0.00    +0.000 HD
ENDROOT
BRANCH   1  12
ATOM     12  C   UNL     1       5.904   5.408  17.398  0.00  0.00    +0.000 C 
BRANCH  12  13
ATOM     13  C   UNL     1       7.174   4.835  16.761  0.00  0.00    +0.000 C 
BRANCH  13  18
ATOM     14 CL   UNL     1       5.636   3.189  12.061  0.00  0.00    +0.000 Cl
ATOM     15  C   UNL     1       6.384   3.975  13.356  0.00  0.00    +0.000 A 
ATOM     16  C   UNL     1       7.379   4.966  13.275  0.00  0.00    +0.000 A 
ATOM     17  N   UNL     1       7.764   5.396  14.482  0.00  0.00    +0.000 NA
ATOM     18  N   UNL     1       7.015   4.662  15.330  0.00  0.00    +0.000 N 
ATOM     19  C   UNL     1       6.166   3.797  14.699  0.00  0.00    +0.000 A 
ENDBRANCH  13  18
ENDBRANCH  12  13
ENDBRANCH   1  12
TORSDOF 3
ENDMDL
MODEL 6
REMARK VINA RESULT:      -6.9      2.530      3.490
REMARK  Name = 
REMARK  3 active torsions:
REMARK  status: ('A' for Active; 'I' for Inactive)
REMARK    1  A    between atoms: N_5  and  C_6
REMARK    2  A    between atoms: C_6  and  C_7
REMARK    3  A    between atoms: C_7  and  N_8
REMARK                            x       y       z     vdW  Elec       q    Type
REMARK                         _______ _______ _______ _____ _____    ______ ____
ROOT
ATOM      1  N   UNL     1       3.830   4.377  16.631  0.00  0.00    +0.000 NA
ATOM      2  C   UNL     1       3.591   5.498  17.540  0.00  0.00    +0.000 C 
ATOM      3  C   UNL     1       2.457   4.977  18.401  0.00  0.00    +0.000 C 
ATOM      4  C   UNL     1       2.805   3.492  18.626  0.00  0.00    +0.000 C 
ATOM      5  C   UNL     1       1.542   2.611  18.614  0.00  0.00    +0.000 C 
ATOM      6  C   UNL     1       0.681   2.849  19.854  0.00  0.00    +0.000 C 
ATOM      7  N   UNL     1       1.427   2.598  21.089  0.00  0.00    +0.000 NA
ATOM      8  C   UNL     1       2.618   3.445  21.177  0.00  0.00    +0.000 C 
ATOM      9  C   UNL     1       3.539   3.272  19.969  0.00  0.00    +0.000 C 
ATOM     10  C   UNL     1       3.749   3.159  17.453  0.00  0.00    +0.000 C 
ATOM     11  H   UNL     1       1.714   1.620  21.108  0.00  0.00    +0.000 HD
ENDROOT
BRANCH   1  12
ATOM     12  C   UNL     1       5.123   4.510  15.940  0.00  0.00    +0.000 C 
BRANCH  12  13
ATOM     13  C   UNL     1       6.304   4.012  16.779  0.00  0.00    +0.000 C 
BRANCH  13  18
ATOM     14 CL   UNL     1       8.298   8.633  18.134  0.00  0.00    +0.000 Cl
ATOM     15  C   UNL     1       7.774   7.028  18.085  0.00  0.00    +0.000 A 
ATOM     16  C   UNL     1       7.904   6.070  19.107  0.00  0.00    +0.000 A 
ATOM     17  N   UNL     1       7.381   4.888  18.762  0.00  0.00    +0.000 NA
ATOM     18  N   UNL     1       6.929   5.098  17.509  0.00  0.00    +0.000 N 
ATOM     19  C   UNL     1       7.138   6.372  17.061  0.00  0.00    +0.000 A 
ENDBRANCH  13  18
ENDBRANCH  12  13
ENDBRANCH   1  12
TORSDOF 3
ENDMDL
MODEL 7
REMARK VINA RESULT:      -6.8      0.874      1.143
REMARK  Name = 
REMARK  3 active torsions:
REMARK  status: ('A' for Active; 'I' for Inactive)
REMARK    1  A    between atoms: N_5  and  C_6
REMARK    2  A    between atoms: C_6  and  C_7
REMARK    3  A    between atoms: C_7  and  N_8
REMARK                            x       y       z     vdW  Elec       q    Type
REMARK                         _______ _______ _______ _____ _____    ______ ____
ROOT
ATOM      1  N   UNL     1       4.986   5.468  18.664  0.00  0.00    +0.000 NA
ATOM      2  C   UNL     1       5.244   4.039  18.843  0.00  0.00    +0.000 C 
ATOM      3  C   UNL     1       4.055   3.600  19.675  0.00  0.00    +0.000 C 
ATOM      4  C   UNL     1       2.870   4.393  19.089  0.00  0.00    +0.000 C 
ATOM      5  C   UNL     1       1.895   4.843  20.192  0.00  0.00    +0.000 C 
ATOM      6  C   UNL     1       1.127   3.659  20.779  0.00  0.00    +0.000 C 
ATOM      7  N   UNL     1       0.382   2.931  19.749  0.00  0.00    +0.000 NA
ATOM      8  C   UNL     1       1.269   2.438  18.694  0.00  0.00    +0.000 C 
ATOM      9  C   UNL     1       2.081   3.562  18.051  0.00  0.00    +0.000 C 
ATOM     10  C   UNL     1       3.545   5.593  18.394  0.00  0.00    +0.000 C 
ATOM     11  H   UNL     1      -0.307   3.559  19.336  0.00  0.00    +0.000 HD
ENDROOT
BRANCH   1  12
ATOM     12  C   UNL     1       5.816   6.035  17.587  0.00  0.00    +0.000 C 
BRANCH  12  13
ATOM     13  C   UNL     1       6.851   5.044  17.047  0.00  0.00    +0.000 C 
BRANCH  13  18
ATOM     14 CL   UNL     1       7.206   4.303  11.900  0.00  0.00    +0.000 Cl
ATOM     15  C   UNL     1       6.706   4.378  13.512  0.00  0.00    +0.000 A 
ATOM     16  C   UNL     1       5.456   3.984  14.023  0.00  0.00    +0.000 A 
ATOM     17  N   UNL     1       5.371   4.164  15.346  0.00  0.00    +0.000 NA
ATOM     18  N   UNL     1       6.572   4.687  15.669  0.00  0.00    +0.000 N 
ATOM     19  C   UNL     1       7.410   4.829  14.600  0.00  0.00    +0.000 A 
ENDBRANCH  13  18
ENDBRANCH  12  13
ENDBRANCH   1  12
TORSDOF 3
ENDMDL
MODEL 8
REMARK VINA RESULT:      -6.7      1.528      1.763
REMARK  Name = 
REMARK  3 active torsions:
REMARK  status: ('A' for Active; 'I' for Inactive)
REMARK    1  A    between atoms: N_5  and  C_6
REMARK    2  A    between atoms: C_6  and  C_7
REMARK    3  A    between atoms: C_7  and  N_8
REMARK                            x       y       z     vdW  Elec       q    Type
REMARK                         _______ _______ _______ _____ _____    ______ ____
ROOT
ATOM      1  N   UNL     1       3.727   6.326  18.310  0.00  0.00    +0.000 NA
ATOM      2  C   UNL     1       4.687   5.487  19.026  0.00  0.00    +0.000 C 
ATOM      3  C   UNL     1       3.789   4.440  19.657  0.00  0.00    +0.000 C 
ATOM      4  C   UNL     1       2.733   4.146  18.573  0.00  0.00    +0.000 C 
ATOM      5  C   UNL     1       1.342   3.914  19.193  0.00  0.00    +0.000 C 
ATOM      6  C   UNL     1       1.281   2.592  19.956  0.00  0.00    +0.000 C 
ATOM      7  N   UNL     1       1.617   1.454  19.097  0.00  0.00    +0.000 NA
ATOM      8  C   UNL     1       2.953   1.597  18.516  0.00  0.00    +0.000 C 
ATOM      9  C   UNL     1       3.104   2.902  17.732  0.00  0.00    +0.000 C 
ATOM     10  C   UNL     1       2.764   5.406  17.685  0.00  0.00    +0.000 C 
ATOM     11  H   UNL     1       0.933   1.396  18.344  0.00  0.00    +0.000 HD
ENDROOT
BRANCH   1  12
ATOM     12  C   UNL     1       4.398   7.196  17.330  0.00  0.00    +0.000 C 
BRANCH  12  13
ATOM     13  C   UNL     1       5.901   6.919  17.215  0.00  0.00    +0.000 C 
BRANCH  13  18
ATOM     14 CL   UNL     1       5.469   3.725  13.120  0.00  0.00    +0.000 Cl
ATOM     15  C   UNL     1       6.020   4.670  14.407  0.00  0.00    +0.000 A 
ATOM     16  C   UNL     1       7.351   4.801  14.843  0.00  0.00    +0.000 A 
ATOM     17  N   UNL     1       7.461   5.631  15.887  0.00  0.00    +0.000 NA
ATOM     18  N   UNL     1       6.189   6.016  16.118  0.00  0.00    +0.000 N 
ATOM     19  C   UNL     1       5.288   5.467  15.250  0.00  0.00    +0.000 A 
ENDBRANCH  13  18
ENDBRANCH  12  13
ENDBRANCH   1  12
TORSDOF 3
ENDMDL
MODEL 9
REMARK VINA RESULT:      -6.6      1.264      1.860
REMARK  Name = 
REMARK  3 active torsions:
REMARK  status: ('A' for Active; 'I' for Inactive)
REMARK    1  A    between atoms: N_5  and  C_6
REMARK    2  A    between atoms: C_6  and  C_7
REMARK    3  A    between atoms: C_7  and  N_8
REMARK                            x       y       z     vdW  Elec       q    Type
REMARK                         _______ _______ _______ _____ _____    ______ ____
ROOT
ATOM      1  N   UNL     1       3.449   6.142  17.698  0.00  0.00    +0.000 NA
ATOM      2  C   UNL     1       3.623   6.536  19.095  0.00  0.00    +0.000 C 
ATOM      3  C   UNL     1       2.566   5.704  19.797  0.00  0.00    +0.000 C 
ATOM      4  C   UNL     1       2.612   4.345  19.070  0.00  0.00    +0.000 C 
ATOM      5  C   UNL     1       1.203   3.743  18.916  0.00  0.00    +0.000 C 
ATOM      6  C   UNL     1       0.641   3.280  20.260  0.00  0.00    +0.000 C 
ATOM      7  N   UNL     1       1.514   2.296  20.903  0.00  0.00    +0.000 NA
ATOM      8  C   UNL     1       2.859   2.831  21.118  0.00  0.00    +0.000 C 
ATOM      9  C   UNL     1       3.498   3.323  19.818  0.00  0.00    +0.000 C 
ATOM     10  C   UNL     1       3.243   4.685  17.705  0.00  0.00    +0.000 C 
ATOM     11  H   UNL     1       1.577   1.471  20.306  0.00  0.00    +0.000 HD
ENDROOT
BRANCH   1  12
ATOM     12  C   UNL     1       4.601   6.548  16.876  0.00  0.00    +0.000 C 
BRANCH  12  13
ATOM     13  C   UNL     1       5.769   5.560  16.954  0.00  0.00    +0.000 C 
BRANCH  13  18
ATOM     14 CL   UNL     1       5.891   3.216  12.301  0.00  0.00    +0.000 Cl
ATOM     15  C   UNL     1       6.229   4.120  13.687  0.00  0.00    +0.000 A 
ATOM     16  C   UNL     1       7.395   4.866  13.940  0.00  0.00    +0.000 A 
ATOM     17  N   UNL     1       7.357   5.477  15.130  0.00  0.00    +0.000 NA
ATOM     18  N   UNL     1       6.164   5.103  15.636  0.00  0.00    +0.000 N 
ATOM     19  C   UNL     1       5.448   4.291  14.802  0.00  0.00    +0.000 A 
ENDBRANCH  13  18
ENDBRANCH  12  13
ENDBRANCH   1  12
TORSDOF 3
ENDMDL
