MODEL 1
REMARK VINA RESULT:      -8.7      0.000      0.000
REMARK  Name = 
REMARK  7 active torsions:
REMARK  status: ('A' for Active; 'I' for Inactive)
REMARK    1  A    between atoms: C_1  and  N_2
REMARK    2  A    between atoms: C_7  and  S_8
REMARK    3  A    between atoms: S_8  and  N_11
REMARK    4  A    between atoms: N_11  and  C_12
REMARK    5  A    between atoms: C_12  and  C_13
REMARK    6  A    between atoms: N_19  and  C_20
REMARK    7  A    between atoms: C_20  and  C_21
REMARK                            x       y       z     vdW  Elec       q    Type
REMARK                         _______ _______ _______ _____ _____    ______ ____
ROOT
ATOM      1  C   UNL     1       1.193   3.033  19.822  0.00  0.00    +0.000 C 
ATOM      2  N   UNL     1       2.043   4.022  19.183  0.00  0.00    +0.000 N 
ATOM      3  C   UNL     1       2.819   3.620  18.111  0.00  0.00    +0.000 A 
ATOM      4  O   UNL     1       2.846   2.478  17.657  0.00  0.00    +0.000 OA
ATOM      5  C   UNL     1       3.665   4.650  17.491  0.00  0.00    +0.000 A 
ATOM      6  C   UNL     1       4.621   4.263  16.541  0.00  0.00    +0.000 A 
ATOM      7  C   UNL     1       5.439   5.227  15.963  0.00  0.00    +0.000 A 
ATOM      8  C   UNL     1       5.257   6.575  16.267  0.00  0.00    +0.000 A 
ATOM      9  C   UNL     1       4.281   6.950  17.200  0.00  0.00    +0.000 A 
ATOM     10  C   UNL     1       3.497   5.987  17.858  0.00  0.00    +0.000 A 
ATOM     11  N   UNL     1       2.592   6.308  18.908  0.00  0.00    +0.000 N 
ATOM     12  C   UNL     1       1.960   5.319  19.661  0.00  0.00    +0.000 A 
ATOM     13  O   UNL     1       1.329   5.586  20.688  0.00  0.00    +0.000 OA
ENDROOT
BRANCH   7  14
ATOM     14  S   UNL     1       6.792   4.706  14.942  0.00  0.00    +0.000 S 
ATOM     15  O   UNL     1       7.052   5.770  14.000  0.00  0.00    +0.000 OA
ATOM     16  O   UNL     1       7.830   4.172  15.796  0.00  0.00    +0.000 OA
BRANCH  14  17
ATOM     17  N   UNL     1       6.079   3.444  14.074  0.00  0.00    +0.000 NA
ATOM     18  H   UNL     1       5.242   3.093  14.540  0.00  0.00    +0.000 HD
BRANCH  17  19
ATOM     19  C   UNL     1       6.082   3.478  12.601  0.00  0.00    +0.000 C 
ATOM     20  C   UNL     1       7.281   4.165  11.997  0.00  0.00    +0.000 C 
ATOM     21  C   UNL     1       5.544   2.260  11.877  0.00  0.00    +0.000 C 
ATOM     22  C   UNL     1       4.784   3.551  11.833  0.00  0.00    +0.000 C 
ENDBRANCH  17  19
ENDBRANCH  14  17
ENDBRANCH   7  14
BRANCH  11  23
ATOM     23  C   UNL     1       2.254   7.693  19.233  0.00  0.00    +0.000 C 
BRANCH  23  24
ATOM     24  C   UNL     1       1.697   8.450  18.065  0.00  0.00    +0.000 C 
ATOM     25  C   UNL     1       0.699   9.574  18.192  0.00  0.00    +0.000 C 
ATOM     26  C   UNL     1       2.125   9.879  17.831  0.00  0.00    +0.000 C 
ENDBRANCH  23  24
ENDBRANCH  11  23
TORSDOF 5
ENDMDL
MODEL 2
REMARK VINA RESULT:      -8.5      3.382      7.225
REMARK  Name = 
REMARK  7 active torsions:
REMARK  status: ('A' for Active; 'I' for Inactive)
REMARK    1  A    between atoms: C_1  and  N_2
REMARK    2  A    between atoms: C_7  and  S_8
REMARK    3  A    between atoms: S_8  and  N_11
REMARK    4  A    between atoms: N_11  and  C_12
REMARK    5  A    between atoms: C_12  and  C_13
REMARK    6  A    between atoms: N_19  and  C_20
REMARK    7  A    between atoms: C_20  and  C_21
REMARK                            x       y       z     vdW  Elec       q    Type
REMARK                         _______ _______ _______ _____ _____    ______ ____
ROOT
ATOM      1  C   UNL     1       3.061   2.814  20.294  0.00  0.00    +0.000 C 
ATOM      2  N   UNL     1       3.093   4.045  19.525  0.00  0.00    +0.000 N 
ATOM      3  C   UNL     1       2.481   5.164  20.060  0.00  0.00    +0.000 A 
ATOM      4  O   UNL     1       1.904   5.194  21.145  0.00  0.00    +0.000 OA
ATOM      5  C   UNL     1       2.535   6.391  19.251  0.00  0.00    +0.000 A 
ATOM      6  C   UNL     1       1.762   7.495  19.639  0.00  0.00    +0.000 A 
ATOM      7  C   UNL     1       1.792   8.653  18.870  0.00  0.00    +0.000 A 
ATOM      8  C   UNL     1       2.642   8.742  17.768  0.00  0.00    +0.000 A 
ATOM      9  C   UNL     1       3.427   7.639  17.408  0.00  0.00    +0.000 A 
ATOM     10  C   UNL     1       3.353   6.430  18.120  0.00  0.00    +0.000 A 
ATOM     11  N   UNL     1       4.026   5.245  17.711  0.00  0.00    +0.000 N 
ATOM     12  C   UNL     1       3.797   4.019  18.333  0.00  0.00    +0.000 A 
ATOM     13  O   UNL     1       4.227   2.961  17.864  0.00  0.00    +0.000 OA
ENDROOT
BRANCH   7  14
ATOM     14  S   UNL     1       0.645   9.955  19.233  0.00  0.00    +0.000 S 
ATOM     15  O   UNL     1      -0.265   9.456  20.238  0.00  0.00    +0.000 OA
ATOM     16  O   UNL     1       1.390  11.182  19.419  0.00  0.00    +0.000 OA
BRANCH  14  17
ATOM     17  N   UNL     1      -0.220  10.042  17.785  0.00  0.00    +0.000 NA
ATOM     18  H   UNL     1      -0.063   9.219  17.202  0.00  0.00    +0.000 HD
BRANCH  17  19
ATOM     19  C   UNL     1      -1.566  10.643  17.773  0.00  0.00    +0.000 C 
ATOM     20  C   UNL     1      -1.655  11.983  18.460  0.00  0.00    +0.000 C 
ATOM     21  C   UNL     1      -2.402  10.449  16.525  0.00  0.00    +0.000 C 
ATOM     22  C   UNL     1      -2.796   9.769  17.800  0.00  0.00    +0.000 C 
ENDBRANCH  17  19
ENDBRANCH  14  17
ENDBRANCH   7  14
BRANCH  11  23
ATOM     23  C   UNL     1       5.015   5.258  16.634  0.00  0.00    +0.000 C 
BRANCH  23  24
ATOM     24  C   UNL     1       6.372   5.706  17.089  0.00  0.00    +0.000 C 
ATOM     25  C   UNL     1       6.883   5.536  18.498  0.00  0.00    +0.000 C 
ATOM     26  C   UNL     1       7.433   4.676  17.395  0.00  0.00    +0.000 C 
ENDBRANCH  23  24
ENDBRANCH  11  23
TORSDOF 5
ENDMDL
MODEL 3
REMARK VINA RESULT:      -7.9      3.507      7.559
REMARK  Name = 
REMARK  7 active torsions:
REMARK  status: ('A' for Active; 'I' for Inactive)
REMARK    1  A    between atoms: C_1  and  N_2
REMARK    2  A    between atoms: C_7  and  S_8
REMARK    3  A    between atoms: S_8  and  N_11
REMARK    4  A    between atoms: N_11  and  C_12
REMARK    5  A    between atoms: C_12  and  C_13
REMARK    6  A    between atoms: N_19  and  C_20
REMARK    7  A    between atoms: C_20  and  C_21
REMARK                            x       y       z     vdW  Elec       q    Type
REMARK                         _______ _______ _______ _____ _____    ______ ____
ROOT
ATOM      1  C   UNL     1       5.653   4.767  17.020  0.00  0.00    +0.000 C 
ATOM      2  N   UNL     1       4.684   5.388  17.905  0.00  0.00    +0.000 N 
ATOM      3  C   UNL     1       4.088   6.566  17.495  0.00  0.00    +0.000 A 
ATOM      4  O   UNL     1       4.321   7.134  16.430  0.00  0.00    +0.000 OA
ATOM      5  C   UNL     1       3.111   7.164  18.418  0.00  0.00    +0.000 A 
ATOM      6  C   UNL     1       2.629   8.454  18.156  0.00  0.00    +0.000 A 
ATOM      7  C   UNL     1       1.721   9.035  19.033  0.00  0.00    +0.000 A 
ATOM      8  C   UNL     1       1.233   8.311  20.120  0.00  0.00    +0.000 A 
ATOM      9  C   UNL     1       1.705   7.012  20.355  0.00  0.00    +0.000 A 
ATOM     10  C   UNL     1       2.685   6.434  19.530  0.00  0.00    +0.000 A 
ATOM     11  N   UNL     1       3.291   5.177  19.808  0.00  0.00    +0.000 N 
ATOM     12  C   UNL     1       4.380   4.709  19.074  0.00  0.00    +0.000 A 
ATOM     13  O   UNL     1       5.027   3.719  19.428  0.00  0.00    +0.000 OA
ENDROOT
BRANCH   7  14
ATOM     14  S   UNL     1       1.295  10.743  18.823  0.00  0.00    +0.000 S 
ATOM     15  O   UNL     1       0.975  11.269  20.130  0.00  0.00    +0.000 OA
ATOM     16  O   UNL     1       2.290  11.361  17.974  0.00  0.00    +0.000 OA
BRANCH  14  17
ATOM     17  N   UNL     1      -0.160  10.615  17.974  0.00  0.00    +0.000 NA
ATOM     18  H   UNL     1      -0.483   9.648  17.924  0.00  0.00    +0.000 HD
BRANCH  17  19
ATOM     19  C   UNL     1      -1.178  11.672  18.108  0.00  0.00    +0.000 C 
ATOM     20  C   UNL     1      -0.627  13.076  18.065  0.00  0.00    +0.000 C 
ATOM     21  C   UNL     1      -2.518  11.434  17.440  0.00  0.00    +0.000 C 
ATOM     22  C   UNL     1      -2.420  11.442  18.935  0.00  0.00    +0.000 C 
ENDBRANCH  17  19
ENDBRANCH  14  17
ENDBRANCH   7  14
BRANCH  11  23
ATOM     23  C   UNL     1       2.784   4.297  20.859  0.00  0.00    +0.000 C 
BRANCH  23  24
ATOM     24  C   UNL     1       1.515   3.596  20.476  0.00  0.00    +0.000 C 
ATOM     25  C   UNL     1       1.085   3.358  19.050  0.00  0.00    +0.000 C 
ATOM     26  C   UNL     1       1.579   2.209  19.883  0.00  0.00    +0.000 C 
ENDBRANCH  23  24
ENDBRANCH  11  23
TORSDOF 5
ENDMDL
MODEL 4
REMARK VINA RESULT:      -7.9      1.076      1.270
REMARK  Name = 
REMARK  7 active torsions:
REMARK  status: ('A' for Active; 'I' for Inactive)
REMARK    1  A    between atoms: C_1  and  N_2
REMARK    2  A    between atoms: C_7  and  S_8
REMARK    3  A    between atoms: S_8  and  N_11
REMARK    4  A    between atoms: N_11  and  C_12
REMARK    5  A    between atoms: C_12  and  C_13
REMARK    6  A    between atoms: N_19  and  C_20
REMARK    7  A    between atoms: C_20  and  C_21
REMARK                            x       y       z     vdW  Elec       q    Type
REMARK                         _______ _______ _______ _____ _____    ______ ____
ROOT
ATOM      1  C   UNL     1       0.658   2.136  18.975  0.00  0.00    +0.000 C 
ATOM      2  N   UNL     1       1.690   3.143  18.809  0.00  0.00    +0.000 N 
ATOM      3  C   UNL     1       2.423   3.138  17.636  0.00  0.00    +0.000 A 
ATOM      4  O   UNL     1       2.267   2.336  16.717  0.00  0.00    +0.000 OA
ATOM      5  C   UNL     1       3.459   4.173  17.504  0.00  0.00    +0.000 A 
ATOM      6  C   UNL     1       4.368   4.095  16.439  0.00  0.00    +0.000 A 
ATOM      7  C   UNL     1       5.362   5.059  16.318  0.00  0.00    +0.000 A 
ATOM      8  C   UNL     1       5.407   6.136  17.201  0.00  0.00    +0.000 A 
ATOM      9  C   UNL     1       4.477   6.214  18.246  0.00  0.00    +0.000 A 
ATOM     10  C   UNL     1       3.514   5.210  18.439  0.00  0.00    +0.000 A 
ATOM     11  N   UNL     1       2.640   5.177  19.562  0.00  0.00    +0.000 N 
ATOM     12  C   UNL     1       1.818   4.081  19.820  0.00  0.00    +0.000 A 
ATOM     13  O   UNL     1       1.205   3.963  20.885  0.00  0.00    +0.000 OA
ENDROOT
BRANCH   7  14
ATOM     14  S   UNL     1       6.640   4.827  15.110  0.00  0.00    +0.000 S 
ATOM     15  O   UNL     1       6.612   5.973  14.232  0.00  0.00    +0.000 OA
ATOM     16  O   UNL     1       7.847   4.418  15.795  0.00  0.00    +0.000 OA
BRANCH  14  17
ATOM     17  N   UNL     1       6.027   3.520  14.233  0.00  0.00    +0.000 NA
ATOM     18  H   UNL     1       5.199   3.122  14.678  0.00  0.00    +0.000 HD
BRANCH  17  19
ATOM     19  C   UNL     1       6.068   3.547  12.760  0.00  0.00    +0.000 C 
ATOM     20  C   UNL     1       7.270   4.253  12.183  0.00  0.00    +0.000 C 
ATOM     21  C   UNL     1       5.573   2.315  12.029  0.00  0.00    +0.000 C 
ATOM     22  C   UNL     1       4.790   3.590  11.958  0.00  0.00    +0.000 C 
ENDBRANCH  17  19
ENDBRANCH  14  17
ENDBRANCH   7  14
BRANCH  11  23
ATOM     23  C   UNL     1       2.538   6.303  20.488  0.00  0.00    +0.000 C 
BRANCH  23  24
ATOM     24  C   UNL     1       1.380   7.206  20.187  0.00  0.00    +0.000 C 
ATOM     25  C   UNL     1       0.981   8.377  21.051  0.00  0.00    +0.000 C 
ATOM     26  C   UNL     1       1.638   8.619  19.721  0.00  0.00    +0.000 C 
ENDBRANCH  23  24
ENDBRANCH  11  23
TORSDOF 5
ENDMDL
MODEL 5
REMARK VINA RESULT:      -7.9      3.522      7.758
REMARK  Name = 
REMARK  7 active torsions:
REMARK  status: ('A' for Active; 'I' for Inactive)
REMARK    1  A    between atoms: C_1  and  N_2
REMARK    2  A    between atoms: C_7  and  S_8
REMARK    3  A    between atoms: S_8  and  N_11
REMARK    4  A    between atoms: N_11  and  C_12
REMARK    5  A    between atoms: C_12  and  C_13
REMARK    6  A    between atoms: N_19  and  C_20
REMARK    7  A    between atoms: C_20  and  C_21
REMARK                            x       y       z     vdW  Elec       q    Type
REMARK                         _______ _______ _______ _____ _____    ______ ____
ROOT
ATOM      1  C   UNL     1       3.258   2.391  19.932  0.00  0.00    +0.000 C 
ATOM      2  N   UNL     1       3.089   3.759  19.479  0.00  0.00    +0.000 N 
ATOM      3  C   UNL     1       2.529   4.672  20.354  0.00  0.00    +0.000 A 
ATOM      4  O   UNL     1       2.158   4.408  21.496  0.00  0.00    +0.000 OA
ATOM      5  C   UNL     1       2.375   6.048  19.859  0.00  0.00    +0.000 A 
ATOM      6  C   UNL     1       1.632   6.964  20.617  0.00  0.00    +0.000 A 
ATOM      7  C   UNL     1       1.465   8.262  20.147  0.00  0.00    +0.000 A 
ATOM      8  C   UNL     1       2.096   8.670  18.973  0.00  0.00    +0.000 A 
ATOM      9  C   UNL     1       2.856   7.749  18.239  0.00  0.00    +0.000 A 
ATOM     10  C   UNL     1       2.973   6.411  18.650  0.00  0.00    +0.000 A 
ATOM     11  N   UNL     1       3.618   5.412  17.868  0.00  0.00    +0.000 N 
ATOM     12  C   UNL     1       3.566   4.062  18.214  0.00  0.00    +0.000 A 
ATOM     13  O   UNL     1       3.956   3.178  17.446  0.00  0.00    +0.000 OA
ENDROOT
BRANCH   7  14
ATOM     14  S   UNL     1       0.339   9.342  20.989  0.00  0.00    +0.000 S 
ATOM     15  O   UNL     1      -0.701   8.517  21.558  0.00  0.00    +0.000 OA
ATOM     16  O   UNL     1       1.109  10.265  21.795  0.00  0.00    +0.000 OA
BRANCH  14  17
ATOM     17  N   UNL     1      -0.349  10.175  19.691  0.00  0.00    +0.000 NA
ATOM     18  H   UNL     1      -1.054   9.613  19.213  0.00  0.00    +0.000 HD
BRANCH  17  19
ATOM     19  C   UNL     1      -0.585  11.626  19.797  0.00  0.00    +0.000 C 
ATOM     20  C   UNL     1       0.581  12.480  19.367  0.00  0.00    +0.000 C 
ATOM     21  C   UNL     1      -1.974  12.130  19.457  0.00  0.00    +0.000 C 
ATOM     22  C   UNL     1      -1.488  12.179  20.873  0.00  0.00    +0.000 C 
ENDBRANCH  17  19
ENDBRANCH  14  17
ENDBRANCH   7  14
BRANCH  11  23
ATOM     23  C   UNL     1       4.394   5.752  16.677  0.00  0.00    +0.000 C 
BRANCH  23  24
ATOM     24  C   UNL     1       5.746   6.314  16.999  0.00  0.00    +0.000 C 
ATOM     25  C   UNL     1       6.674   5.728  18.035  0.00  0.00    +0.000 C 
ATOM     26  C   UNL     1       6.986   5.563  16.574  0.00  0.00    +0.000 C 
ENDBRANCH  23  24
ENDBRANCH  11  23
TORSDOF 5
ENDMDL
MODEL 6
REMARK VINA RESULT:      -7.8      3.025      7.130
REMARK  Name = 
REMARK  7 active torsions:
REMARK  status: ('A' for Active; 'I' for Inactive)
REMARK    1  A    between atoms: C_1  and  N_2
REMARK    2  A    between atoms: C_7  and  S_8
REMARK    3  A    between atoms: S_8  and  N_11
REMARK    4  A    between atoms: N_11  and  C_12
REMARK    5  A    between atoms: C_12  and  C_13
REMARK    6  A    between atoms: N_19  and  C_20
REMARK    7  A    between atoms: C_20  and  C_21
REMARK                            x       y       z     vdW  Elec       q    Type
REMARK                         _______ _______ _______ _____ _____    ______ ____
ROOT
ATOM      1  C   UNL     1       2.831   2.863  20.555  0.00  0.00    +0.000 C 
ATOM      2  N   UNL     1       2.995   4.062  19.755  0.00  0.00    +0.000 N 
ATOM      3  C   UNL     1       2.330   5.208  20.153  0.00  0.00    +0.000 A 
ATOM      4  O   UNL     1       1.601   5.285  21.141  0.00  0.00    +0.000 OA
ATOM      5  C   UNL     1       2.521   6.402  19.317  0.00  0.00    +0.000 A 
ATOM      6  C   UNL     1       1.717   7.529  19.547  0.00  0.00    +0.000 A 
ATOM      7  C   UNL     1       1.878   8.656  18.750  0.00  0.00    +0.000 A 
ATOM      8  C   UNL     1       2.880   8.694  17.782  0.00  0.00    +0.000 A 
ATOM      9  C   UNL     1       3.692   7.570  17.581  0.00  0.00    +0.000 A 
ATOM     10  C   UNL     1       3.496   6.390  18.318  0.00  0.00    +0.000 A 
ATOM     11  N   UNL     1       4.202   5.183  18.055  0.00  0.00    +0.000 N 
ATOM     12  C   UNL     1       3.866   3.984  18.681  0.00  0.00    +0.000 A 
ATOM     13  O   UNL     1       4.342   2.904  18.319  0.00  0.00    +0.000 OA
ENDROOT
BRANCH   7  14
ATOM     14  S   UNL     1       0.711   9.983  18.894  0.00  0.00    +0.000 S 
ATOM     15  O   UNL     1      -0.042   9.761  20.107  0.00  0.00    +0.000 OA
ATOM     16  O   UNL     1       1.401  11.228  18.640  0.00  0.00    +0.000 OA
BRANCH  14  17
ATOM     17  N   UNL     1      -0.326   9.648  17.603  0.00  0.00    +0.000 NA
ATOM     18  H   UNL     1      -0.331   8.653  17.372  0.00  0.00    +0.000 HD
BRANCH  17  19
ATOM     19  C   UNL     1      -1.595  10.387  17.475  0.00  0.00    +0.000 C 
ATOM     20  C   UNL     1      -1.542  11.806  17.984  0.00  0.00    +0.000 C 
ATOM     21  C   UNL     1      -2.428  10.127  16.236  0.00  0.00    +0.000 C 
ATOM     22  C   UNL     1      -2.917   9.665  17.575  0.00  0.00    +0.000 C 
ENDBRANCH  17  19
ENDBRANCH  14  17
ENDBRANCH   7  14
BRANCH  11  23
ATOM     23  C   UNL     1       5.338   5.144  17.135  0.00  0.00    +0.000 C 
BRANCH  23  24
ATOM     24  C   UNL     1       4.978   4.610  15.781  0.00  0.00    +0.000 C 
ATOM     25  C   UNL     1       5.696   4.989  14.510  0.00  0.00    +0.000 C 
ATOM     26  C   UNL     1       5.896   3.622  15.101  0.00  0.00    +0.000 C 
ENDBRANCH  23  24
ENDBRANCH  11  23
TORSDOF 5
ENDMDL
MODEL 7
REMARK VINA RESULT:      -7.8      3.310      7.310
REMARK  Name = 
REMARK  7 active torsions:
REMARK  status: ('A' for Active; 'I' for Inactive)
REMARK    1  A    between atoms: C_1  and  N_2
REMARK    2  A    between atoms: C_7  and  S_8
REMARK    3  A    between atoms: S_8  and  N_11
REMARK    4  A    between atoms: N_11  and  C_12
REMARK    5  A    between atoms: C_12  and  C_13
REMARK    6  A    between atoms: N_19  and  C_20
REMARK    7  A    between atoms: C_20  and  C_21
REMARK                            x       y       z     vdW  Elec       q    Type
REMARK                         _______ _______ _______ _____ _____    ______ ____
ROOT
ATOM      1  C   UNL     1       2.715   2.764  20.530  0.00  0.00    +0.000 C 
ATOM      2  N   UNL     1       2.843   3.935  19.683  0.00  0.00    +0.000 N 
ATOM      3  C   UNL     1       2.349   5.138  20.154  0.00  0.00    +0.000 A 
ATOM      4  O   UNL     1       1.803   5.290  21.245  0.00  0.00    +0.000 OA
ATOM      5  C   UNL     1       2.497   6.301  19.267  0.00  0.00    +0.000 A 
ATOM      6  C   UNL     1       1.838   7.495  19.596  0.00  0.00    +0.000 A 
ATOM      7  C   UNL     1       1.957   8.594  18.753  0.00  0.00    +0.000 A 
ATOM      8  C   UNL     1       2.786   8.535  17.634  0.00  0.00    +0.000 A 
ATOM      9  C   UNL     1       3.458   7.343  17.332  0.00  0.00    +0.000 A 
ATOM     10  C   UNL     1       3.290   6.193  18.122  0.00  0.00    +0.000 A 
ATOM     11  N   UNL     1       3.841   4.927  17.779  0.00  0.00    +0.000 N 
ATOM     12  C   UNL     1       3.514   3.769  18.483  0.00  0.00    +0.000 A 
ATOM     13  O   UNL     1       3.834   2.648  18.077  0.00  0.00    +0.000 OA
ENDROOT
BRANCH   7  14
ATOM     14  S   UNL     1       0.943  10.018  19.051  0.00  0.00    +0.000 S 
ATOM     15  O   UNL     1      -0.281   9.836  18.305  0.00  0.00    +0.000 OA
ATOM     16  O   UNL     1       0.939  10.287  20.473  0.00  0.00    +0.000 OA
BRANCH  14  17
ATOM     17  N   UNL     1       1.827  11.221  18.259  0.00  0.00    +0.000 NA
ATOM     18  H   UNL     1       1.991  10.984  17.280  0.00  0.00    +0.000 HD
BRANCH  17  19
ATOM     19  C   UNL     1       1.595  12.637  18.593  0.00  0.00    +0.000 C 
ATOM     20  C   UNL     1       0.147  13.058  18.545  0.00  0.00    +0.000 C 
ATOM     21  C   UNL     1       2.456  13.244  19.682  0.00  0.00    +0.000 C 
ATOM     22  C   UNL     1       2.631  13.683  18.261  0.00  0.00    +0.000 C 
ENDBRANCH  17  19
ENDBRANCH  14  17
ENDBRANCH   7  14
BRANCH  11  23
ATOM     23  C   UNL     1       4.802   4.779  16.687  0.00  0.00    +0.000 C 
BRANCH  23  24
ATOM     24  C   UNL     1       6.227   4.825  17.151  0.00  0.00    +0.000 C 
ATOM     25  C   UNL     1       7.414   4.714  16.227  0.00  0.00    +0.000 C 
ATOM     26  C   UNL     1       7.071   6.039  16.847  0.00  0.00    +0.000 C 
ENDBRANCH  23  24
ENDBRANCH  11  23
TORSDOF 5
ENDMDL
MODEL 8
REMARK VINA RESULT:      -7.8      3.391      7.505
REMARK  Name = 
REMARK  7 active torsions:
REMARK  status: ('A' for Active; 'I' for Inactive)
REMARK    1  A    between atoms: C_1  and  N_2
REMARK    2  A    between atoms: C_7  and  S_8
REMARK    3  A    between atoms: S_8  and  N_11
REMARK    4  A    between atoms: N_11  and  C_12
REMARK    5  A    between atoms: C_12  and  C_13
REMARK    6  A    between atoms: N_19  and  C_20
REMARK    7  A    between atoms: C_20  and  C_21
REMARK                            x       y       z     vdW  Elec       q    Type
REMARK                         _______ _______ _______ _____ _____    ______ ____
ROOT
ATOM      1  C   UNL     1       3.144   2.736  20.211  0.00  0.00    +0.000 C 
ATOM      2  N   UNL     1       3.107   4.007  19.511  0.00  0.00    +0.000 N 
ATOM      3  C   UNL     1       2.559   5.096  20.165  0.00  0.00    +0.000 A 
ATOM      4  O   UNL     1       2.094   5.067  21.302  0.00  0.00    +0.000 OA
ATOM      5  C   UNL     1       2.540   6.365  19.423  0.00  0.00    +0.000 A 
ATOM      6  C   UNL     1       1.817   7.447  19.946  0.00  0.00    +0.000 A 
ATOM      7  C   UNL     1       1.777   8.645  19.243  0.00  0.00    +0.000 A 
ATOM      8  C   UNL     1       2.513   8.795  18.068  0.00  0.00    +0.000 A 
ATOM      9  C   UNL     1       3.251   7.712  17.571  0.00  0.00    +0.000 A 
ATOM     10  C   UNL     1       3.241   6.466  18.220  0.00  0.00    +0.000 A 
ATOM     11  N   UNL     1       3.862   5.305  17.681  0.00  0.00    +0.000 N 
ATOM     12  C   UNL     1       3.689   4.046  18.255  0.00  0.00    +0.000 A 
ATOM     13  O   UNL     1       4.063   3.015  17.688  0.00  0.00    +0.000 OA
ENDROOT
BRANCH   7  14
ATOM     14  S   UNL     1       0.681   9.927  19.790  0.00  0.00    +0.000 S 
ATOM     15  O   UNL     1      -0.666   9.418  19.669  0.00  0.00    +0.000 OA
ATOM     16  O   UNL     1       1.187  10.461  21.035  0.00  0.00    +0.000 OA
BRANCH  14  17
ATOM     17  N   UNL     1       0.884  11.075  18.567  0.00  0.00    +0.000 NA
ATOM     18  H   UNL     1       0.535  10.736  17.670  0.00  0.00    +0.000 HD
BRANCH  17  19
ATOM     19  C   UNL     1       0.709  12.506  18.874  0.00  0.00    +0.000 C 
ATOM     20  C   UNL     1       2.001  13.267  19.047  0.00  0.00    +0.000 C 
ATOM     21  C   UNL     1      -0.433  13.229  18.189  0.00  0.00    +0.000 C 
ATOM     22  C   UNL     1      -0.485  12.981  19.665  0.00  0.00    +0.000 C 
ENDBRANCH  17  19
ENDBRANCH  14  17
ENDBRANCH   7  14
BRANCH  11  23
ATOM     23  C   UNL     1       4.739   5.375  16.513  0.00  0.00    +0.000 C 
BRANCH  23  24
ATOM     24  C   UNL     1       6.148   5.751  16.860  0.00  0.00    +0.000 C 
ATOM     25  C   UNL     1       6.833   5.347  18.142  0.00  0.00    +0.000 C 
ATOM     26  C   UNL     1       7.226   4.693  16.847  0.00  0.00    +0.000 C 
ENDBRANCH  23  24
ENDBRANCH  11  23
TORSDOF 5
ENDMDL
MODEL 9
REMARK VINA RESULT:      -7.8      4.431      6.670
REMARK  Name = 
REMARK  7 active torsions:
REMARK  status: ('A' for Active; 'I' for Inactive)
REMARK    1  A    between atoms: C_1  and  N_2
REMARK    2  A    between atoms: C_7  and  S_8
REMARK    3  A    between atoms: S_8  and  N_11
REMARK    4  A    between atoms: N_11  and  C_12
REMARK    5  A    between atoms: C_12  and  C_13
REMARK    6  A    between atoms: N_19  and  C_20
REMARK    7  A    between atoms: C_20  and  C_21
REMARK                            x       y       z     vdW  Elec       q    Type
REMARK                         _______ _______ _______ _____ _____    ______ ____
ROOT
ATOM      1  C   UNL     1      -0.979  10.790  23.051  0.00  0.00    +0.000 C 
ATOM      2  N   UNL     1      -0.192  10.560  21.854  0.00  0.00    +0.000 N 
ATOM      3  C   UNL     1       0.112   9.254  21.514  0.00  0.00    +0.000 A 
ATOM      4  O   UNL     1      -0.234   8.266  22.158  0.00  0.00    +0.000 OA
ATOM      5  C   UNL     1       0.911   9.062  20.294  0.00  0.00    +0.000 A 
ATOM      6  C   UNL     1       1.423   7.788  20.011  0.00  0.00    +0.000 A 
ATOM      7  C   UNL     1       2.195   7.601  18.870  0.00  0.00    +0.000 A 
ATOM      8  C   UNL     1       2.391   8.651  17.975  0.00  0.00    +0.000 A 
ATOM      9  C   UNL     1       1.852   9.913  18.259  0.00  0.00    +0.000 A 
ATOM     10  C   UNL     1       1.137  10.148  19.446  0.00  0.00    +0.000 A 
ATOM     11  N   UNL     1       0.690  11.440  19.840  0.00  0.00    +0.000 N 
ATOM     12  C   UNL     1       0.141  11.674  21.100  0.00  0.00    +0.000 A 
ATOM     13  O   UNL     1      -0.070  12.816  21.517  0.00  0.00    +0.000 OA
ENDROOT
BRANCH   7  14
ATOM     14  S   UNL     1       3.027   6.051  18.640  0.00  0.00    +0.000 S 
ATOM     15  O   UNL     1       2.190   5.238  17.789  0.00  0.00    +0.000 OA
ATOM     16  O   UNL     1       4.412   6.320  18.319  0.00  0.00    +0.000 OA
BRANCH  14  17
ATOM     17  N   UNL     1       2.932   5.396  20.194  0.00  0.00    +0.000 NA
ATOM     18  H   UNL     1       2.469   6.033  20.844  0.00  0.00    +0.000 HD
BRANCH  17  19
ATOM     19  C   UNL     1       2.696   3.952  20.364  0.00  0.00    +0.000 C 
ATOM     20  C   UNL     1       3.739   3.071  19.723  0.00  0.00    +0.000 C 
ATOM     21  C   UNL     1       2.124   3.492  21.690  0.00  0.00    +0.000 C 
ATOM     22  C   UNL     1       1.290   3.409  20.449  0.00  0.00    +0.000 C 
ENDBRANCH  17  19
ENDBRANCH  14  17
ENDBRANCH   7  14
BRANCH  11  23
ATOM     23  C   UNL     1       0.756  12.584  18.933  0.00  0.00    +0.000 C 
BRANCH  23  24
ATOM     24  C   UNL     1       1.969  13.438  19.154  0.00  0.00    +0.000 C 
ATOM     25  C   UNL     1       2.839  13.965  18.040  0.00  0.00    +0.000 C 
ATOM     26  C   UNL     1       1.928  14.901  18.783  0.00  0.00    +0.000 C 
ENDBRANCH  23  24
ENDBRANCH  11  23
TORSDOF 5
ENDMDL
