MODEL 1
REMARK VINA RESULT:      -8.1      0.000      0.000
REMARK  Name = 
REMARK  4 active torsions:
REMARK  status: ('A' for Active; 'I' for Inactive)
REMARK    1  A    between atoms: C_1  and  C_2
REMARK    2  A    between atoms: C_5  and  C_6
REMARK    3  A    between atoms: C_14  and  C_15
REMARK    4  A    between atoms: C_19  and  C_20
REMARK                            x       y       z     vdW  Elec       q    Type
REMARK                         _______ _______ _______ _____ _____    ______ ____
ROOT
ATOM      1  C   UNL     1       2.453   7.734  19.092  0.00  0.00    +0.000 C 
ATOM      2  O   UNL     1       3.094   8.333  18.227  0.00  0.00    +0.000 OA
ATOM      3  N   UNL     1       2.564   6.348  19.399  0.00  0.00    +0.000 N 
ATOM      4  C   UNL     1       1.786   5.716  20.462  0.00  0.00    +0.000 C 
ATOM      5  C   UNL     1       2.044   4.261  20.818  0.00  0.00    +0.000 C 
ATOM      6  C   UNL     1       2.876   3.457  19.855  0.00  0.00    +0.000 C 
ATOM      7  N   UNL     1       3.433   4.200  18.761  0.00  0.00    +0.000 N 
ATOM      8  C   UNL     1       4.172   3.634  17.765  0.00  0.00    +0.000 A 
ATOM      9  C   UNL     1       4.510   4.681  16.940  0.00  0.00    +0.000 A 
ATOM     10  N   UNL     1       3.981   5.855  17.437  0.00  0.00    +0.000 NA
ATOM     11  C   UNL     1       3.320   5.548  18.538  0.00  0.00    +0.000 A 
ENDROOT
BRANCH   1  16
ATOM     12  C   UNL     1      -1.207  11.196  22.038  0.00  0.00    +0.000 C 
ATOM     13  C   UNL     1      -0.302  10.263  21.294  0.00  0.00    +0.000 A 
ATOM     14  C   UNL     1       0.447   9.274  21.939  0.00  0.00    +0.000 A 
ATOM     15  C   UNL     1       1.321   8.453  21.207  0.00  0.00    +0.000 A 
ATOM     16  C   UNL     1       1.434   8.584  19.814  0.00  0.00    +0.000 A 
ATOM     17  C   UNL     1       0.569   9.479  19.177  0.00  0.00    +0.000 A 
ATOM     18  C   UNL     1      -0.224  10.365  19.907  0.00  0.00    +0.000 A 
ENDBRANCH   1  16
BRANCH   9  19
ATOM     19  C   UNL     1       5.304   4.570  15.725  0.00  0.00    +0.000 A 
ATOM     20  C   UNL     1       6.628   5.030  15.711  0.00  0.00    +0.000 A 
ATOM     21  C   UNL     1       7.408   4.921  14.557  0.00  0.00    +0.000 A 
ATOM     22  C   UNL     1       6.878   4.353  13.398  0.00  0.00    +0.000 A 
ATOM     23  C   UNL     1       5.556   3.893  13.390  0.00  0.00    +0.000 A 
ATOM     24  C   UNL     1       4.781   4.005  14.549  0.00  0.00    +0.000 A 
BRANCH  23  25
ATOM     25  C   UNL     1       4.998   3.308  12.205  0.00  0.00    +0.000 C 
ATOM     26  N   UNL     1       4.539   2.847  11.248  0.00  0.00    +0.000 NA
ENDBRANCH  23  25
ENDBRANCH   9  19
TORSDOF 3
ENDMDL
MODEL 2
REMARK VINA RESULT:      -8.0      1.288      1.782
REMARK  Name = 
REMARK  4 active torsions:
REMARK  status: ('A' for Active; 'I' for Inactive)
REMARK    1  A    between atoms: C_1  and  C_2
REMARK    2  A    between atoms: C_5  and  C_6
REMARK    3  A    between atoms: C_14  and  C_15
REMARK    4  A    between atoms: C_19  and  C_20
REMARK                            x       y       z     vdW  Elec       q    Type
REMARK                         _______ _______ _______ _____ _____    ______ ____
ROOT
ATOM      1  C   UNL     1       1.993   8.942  18.241  0.00  0.00    +0.000 C 
ATOM      2  O   UNL     1       2.659   9.317  17.275  0.00  0.00    +0.000 OA
ATOM      3  N   UNL     1       2.180   7.724  18.956  0.00  0.00    +0.000 N 
ATOM      4  C   UNL     1       1.366   7.363  20.113  0.00  0.00    +0.000 C 
ATOM      5  C   UNL     1       1.699   6.108  20.905  0.00  0.00    +0.000 C 
ATOM      6  C   UNL     1       2.665   5.139  20.276  0.00  0.00    +0.000 C 
ATOM      7  N   UNL     1       3.255   5.576  19.044  0.00  0.00    +0.000 N 
ATOM      8  C   UNL     1       4.113   4.815  18.308  0.00  0.00    +0.000 A 
ATOM      9  C   UNL     1       4.440   5.599  17.227  0.00  0.00    +0.000 A 
ATOM     10  N   UNL     1       3.787   6.813  17.317  0.00  0.00    +0.000 NA
ATOM     11  C   UNL     1       3.062   6.782  18.420  0.00  0.00    +0.000 A 
ENDROOT
BRANCH   1  16
ATOM     12  C   UNL     1      -2.570  12.223  19.813  0.00  0.00    +0.000 C 
ATOM     13  C   UNL     1      -1.395  11.411  19.361  0.00  0.00    +0.000 A 
ATOM     14  C   UNL     1      -1.471  10.520  18.285  0.00  0.00    +0.000 A 
ATOM     15  C   UNL     1      -0.358   9.742  17.926  0.00  0.00    +0.000 A 
ATOM     16  C   UNL     1       0.859   9.866  18.615  0.00  0.00    +0.000 A 
ATOM     17  C   UNL     1       0.951  10.865  19.589  0.00  0.00    +0.000 A 
ATOM     18  C   UNL     1      -0.176  11.566  20.017  0.00  0.00    +0.000 A 
ENDBRANCH   1  16
BRANCH   9  19
ATOM     19  C   UNL     1       5.338   5.212  16.149  0.00  0.00    +0.000 A 
ATOM     20  C   UNL     1       6.717   5.429  16.275  0.00  0.00    +0.000 A 
ATOM     21  C   UNL     1       7.594   5.053  15.255  0.00  0.00    +0.000 A 
ATOM     22  C   UNL     1       7.109   4.455  14.091  0.00  0.00    +0.000 A 
ATOM     23  C   UNL     1       5.734   4.235  13.944  0.00  0.00    +0.000 A 
ATOM     24  C   UNL     1       4.862   4.614  14.969  0.00  0.00    +0.000 A 
BRANCH  23  25
ATOM     25  C   UNL     1       5.221   3.623  12.752  0.00  0.00    +0.000 C 
ATOM     26  N   UNL     1       4.794   3.128  11.797  0.00  0.00    +0.000 NA
ENDBRANCH  23  25
ENDBRANCH   9  19
TORSDOF 3
ENDMDL
MODEL 3
REMARK VINA RESULT:      -7.8      4.119      9.166
REMARK  Name = 
REMARK  4 active torsions:
REMARK  status: ('A' for Active; 'I' for Inactive)
REMARK    1  A    between atoms: C_1  and  C_2
REMARK    2  A    between atoms: C_5  and  C_6
REMARK    3  A    between atoms: C_14  and  C_15
REMARK    4  A    between atoms: C_19  and  C_20
REMARK                            x       y       z     vdW  Elec       q    Type
REMARK                         _______ _______ _______ _____ _____    ______ ____
ROOT
ATOM      1  C   UNL     1       1.956   8.720  18.233  0.00  0.00    +0.000 C 
ATOM      2  O   UNL     1       2.057   9.491  17.278  0.00  0.00    +0.000 OA
ATOM      3  N   UNL     1       1.410   9.043  19.509  0.00  0.00    +0.000 N 
ATOM      4  C   UNL     1       1.298   8.061  20.583  0.00  0.00    +0.000 C 
ATOM      5  C   UNL     1       0.593   8.439  21.876  0.00  0.00    +0.000 C 
ATOM      6  C   UNL     1       0.311   9.901  22.100  0.00  0.00    +0.000 C 
ATOM      7  N   UNL     1       0.638  10.762  21.000  0.00  0.00    +0.000 N 
ATOM      8  C   UNL     1       0.498  12.117  21.037  0.00  0.00    +0.000 A 
ATOM      9  C   UNL     1       0.911  12.547  19.798  0.00  0.00    +0.000 A 
ATOM     10  N   UNL     1       1.291  11.463  19.031  0.00  0.00    +0.000 NA
ATOM     11  C   UNL     1       1.131  10.385  19.777  0.00  0.00    +0.000 A 
ENDROOT
BRANCH   1  16
ATOM     12  C   UNL     1       4.400   3.460  17.580  0.00  0.00    +0.000 C 
ATOM     13  C   UNL     1       3.776   4.818  17.691  0.00  0.00    +0.000 A 
ATOM     14  C   UNL     1       4.486   5.993  17.423  0.00  0.00    +0.000 A 
ATOM     15  C   UNL     1       3.874   7.247  17.587  0.00  0.00    +0.000 A 
ATOM     16  C   UNL     1       2.533   7.345  17.989  0.00  0.00    +0.000 A 
ATOM     17  C   UNL     1       1.805   6.158  18.109  0.00  0.00    +0.000 A 
ATOM     18  C   UNL     1       2.432   4.913  18.048  0.00  0.00    +0.000 A 
ENDBRANCH   1  16
BRANCH   9  19
ATOM     19  C   UNL     1       0.943  13.934  19.358  0.00  0.00    +0.000 A 
ATOM     20  C   UNL     1      -0.254  14.614  19.098  0.00  0.00    +0.000 A 
ATOM     21  C   UNL     1      -0.241  15.949  18.686  0.00  0.00    +0.000 A 
ATOM     22  C   UNL     1       0.968  16.626  18.525  0.00  0.00    +0.000 A 
ATOM     23  C   UNL     1       2.175  15.963  18.773  0.00  0.00    +0.000 A 
ATOM     24  C   UNL     1       2.155  14.626  19.186  0.00  0.00    +0.000 A 
BRANCH  23  25
ATOM     25  C   UNL     1       3.426  16.646  18.610  0.00  0.00    +0.000 C 
ATOM     26  N   UNL     1       4.439  17.187  18.469  0.00  0.00    +0.000 NA
ENDBRANCH  23  25
ENDBRANCH   9  19
TORSDOF 3
ENDMDL
MODEL 4
REMARK VINA RESULT:      -7.8      3.135      6.344
REMARK  Name = 
REMARK  4 active torsions:
REMARK  status: ('A' for Active; 'I' for Inactive)
REMARK    1  A    between atoms: C_1  and  C_2
REMARK    2  A    between atoms: C_5  and  C_6
REMARK    3  A    between atoms: C_14  and  C_15
REMARK    4  A    between atoms: C_19  and  C_20
REMARK                            x       y       z     vdW  Elec       q    Type
REMARK                         _______ _______ _______ _____ _____    ______ ____
ROOT
ATOM      1  C   UNL     1      -0.965  11.118  21.966  0.00  0.00    +0.000 C 
ATOM      2  O   UNL     1      -0.327  10.258  22.577  0.00  0.00    +0.000 OA
ATOM      3  N   UNL     1      -1.120  11.190  20.552  0.00  0.00    +0.000 N 
ATOM      4  C   UNL     1      -1.918  12.227  19.904  0.00  0.00    +0.000 C 
ATOM      5  C   UNL     1      -2.143  12.174  18.402  0.00  0.00    +0.000 C 
ATOM      6  C   UNL     1      -1.282  11.222  17.614  0.00  0.00    +0.000 C 
ATOM      7  N   UNL     1      -0.422  10.383  18.398  0.00  0.00    +0.000 N 
ATOM      8  C   UNL     1       0.461   9.496  17.859  0.00  0.00    +0.000 A 
ATOM      9  C   UNL     1       1.069   8.904  18.941  0.00  0.00    +0.000 A 
ATOM     10  N   UNL     1       0.554   9.429  20.110  0.00  0.00    +0.000 NA
ATOM     11  C   UNL     1      -0.343  10.334  19.766  0.00  0.00    +0.000 A 
ENDROOT
BRANCH   1  16
ATOM     12  C   UNL     1      -3.277  15.492  25.061  0.00  0.00    +0.000 C 
ATOM     13  C   UNL     1      -2.647  14.360  24.310  0.00  0.00    +0.000 A 
ATOM     14  C   UNL     1      -1.339  14.422  23.819  0.00  0.00    +0.000 A 
ATOM     15  C   UNL     1      -0.805  13.356  23.078  0.00  0.00    +0.000 A 
ATOM     16  C   UNL     1      -1.558  12.195  22.844  0.00  0.00    +0.000 A 
ATOM     17  C   UNL     1      -2.806  12.098  23.467  0.00  0.00    +0.000 A 
ATOM     18  C   UNL     1      -3.380  13.191  24.116  0.00  0.00    +0.000 A 
ENDBRANCH   1  16
BRANCH   9  19
ATOM     19  C   UNL     1       2.099   7.878  18.868  0.00  0.00    +0.000 A 
ATOM     20  C   UNL     1       2.229   6.943  19.903  0.00  0.00    +0.000 A 
ATOM     21  C   UNL     1       3.205   5.945  19.843  0.00  0.00    +0.000 A 
ATOM     22  C   UNL     1       4.069   5.867  18.750  0.00  0.00    +0.000 A 
ATOM     23  C   UNL     1       3.960   6.796  17.710  0.00  0.00    +0.000 A 
ATOM     24  C   UNL     1       2.980   7.792  17.775  0.00  0.00    +0.000 A 
BRANCH  23  25
ATOM     25  C   UNL     1       4.842   6.729  16.580  0.00  0.00    +0.000 C 
ATOM     26  N   UNL     1       5.554   6.661  15.671  0.00  0.00    +0.000 NA
ENDBRANCH  23  25
ENDBRANCH   9  19
TORSDOF 3
ENDMDL
MODEL 5
REMARK VINA RESULT:      -7.6      4.285      7.304
REMARK  Name = 
REMARK  4 active torsions:
REMARK  status: ('A' for Active; 'I' for Inactive)
REMARK    1  A    between atoms: C_1  and  C_2
REMARK    2  A    between atoms: C_5  and  C_6
REMARK    3  A    between atoms: C_14  and  C_15
REMARK    4  A    between atoms: C_19  and  C_20
REMARK                            x       y       z     vdW  Elec       q    Type
REMARK                         _______ _______ _______ _____ _____    ______ ____
ROOT
ATOM      1  C   UNL     1       1.154  13.011  20.047  0.00  0.00    +0.000 C 
ATOM      2  O   UNL     1       2.032  12.524  19.332  0.00  0.00    +0.000 OA
ATOM      3  N   UNL     1       0.419  12.317  21.049  0.00  0.00    +0.000 N 
ATOM      4  C   UNL     1      -0.589  12.974  21.877  0.00  0.00    +0.000 C 
ATOM      5  C   UNL     1      -1.248  12.205  23.011  0.00  0.00    +0.000 C 
ATOM      6  C   UNL     1      -1.048  10.712  23.033  0.00  0.00    +0.000 C 
ATOM      7  N   UNL     1      -0.151  10.201  22.037  0.00  0.00    +0.000 N 
ATOM      8  C   UNL     1       0.115   8.874  21.873  0.00  0.00    +0.000 A 
ATOM      9  C   UNL     1       1.013   8.822  20.833  0.00  0.00    +0.000 A 
ATOM     10  N   UNL     1       1.281  10.100  20.384  0.00  0.00    +0.000 NA
ATOM     11  C   UNL     1       0.559  10.928  21.117  0.00  0.00    +0.000 A 
ENDROOT
BRANCH   1  16
ATOM     12  C   UNL     1       0.240  18.620  18.715  0.00  0.00    +0.000 C 
ATOM     13  C   UNL     1       0.453  17.190  19.109  0.00  0.00    +0.000 A 
ATOM     14  C   UNL     1       1.388  16.811  20.077  0.00  0.00    +0.000 A 
ATOM     15  C   UNL     1       1.589  15.454  20.380  0.00  0.00    +0.000 A 
ATOM     16  C   UNL     1       0.834  14.456  19.745  0.00  0.00    +0.000 A 
ATOM     17  C   UNL     1      -0.193  14.868  18.890  0.00  0.00    +0.000 A 
ATOM     18  C   UNL     1      -0.328  16.203  18.509  0.00  0.00    +0.000 A 
ENDBRANCH   1  16
BRANCH   9  19
ATOM     19  C   UNL     1       1.595   7.605  20.287  0.00  0.00    +0.000 A 
ATOM     20  C   UNL     1       2.194   7.624  19.020  0.00  0.00    +0.000 A 
ATOM     21  C   UNL     1       2.768   6.467  18.486  0.00  0.00    +0.000 A 
ATOM     22  C   UNL     1       2.750   5.273  19.207  0.00  0.00    +0.000 A 
ATOM     23  C   UNL     1       2.151   5.232  20.470  0.00  0.00    +0.000 A 
ATOM     24  C   UNL     1       1.579   6.393  21.000  0.00  0.00    +0.000 A 
BRANCH  23  25
ATOM     25  C   UNL     1       2.124   4.010  21.222  0.00  0.00    +0.000 C 
ATOM     26  N   UNL     1       2.094   3.031  21.838  0.00  0.00    +0.000 NA
ENDBRANCH  23  25
ENDBRANCH   9  19
TORSDOF 3
ENDMDL
MODEL 6
REMARK VINA RESULT:      -7.6      4.480     11.342
REMARK  Name = 
REMARK  4 active torsions:
REMARK  status: ('A' for Active; 'I' for Inactive)
REMARK    1  A    between atoms: C_1  and  C_2
REMARK    2  A    between atoms: C_5  and  C_6
REMARK    3  A    between atoms: C_14  and  C_15
REMARK    4  A    between atoms: C_19  and  C_20
REMARK                            x       y       z     vdW  Elec       q    Type
REMARK                         _______ _______ _______ _____ _____    ______ ____
ROOT
ATOM      1  C   UNL     1       0.546  10.354  19.894  0.00  0.00    +0.000 C 
ATOM      2  O   UNL     1       0.970  10.870  20.929  0.00  0.00    +0.000 OA
ATOM      3  N   UNL     1      -0.661  10.706  19.224  0.00  0.00    +0.000 N 
ATOM      4  C   UNL     1      -1.082  10.065  17.981  0.00  0.00    +0.000 C 
ATOM      5  C   UNL     1      -2.316  10.573  17.254  0.00  0.00    +0.000 C 
ATOM      6  C   UNL     1      -3.216  11.515  18.009  0.00  0.00    +0.000 C 
ATOM      7  N   UNL     1      -2.734  11.920  19.298  0.00  0.00    +0.000 N 
ATOM      8  C   UNL     1      -3.432  12.729  20.144  0.00  0.00    +0.000 A 
ATOM      9  C   UNL     1      -2.622  12.870  21.245  0.00  0.00    +0.000 A 
ATOM     10  N   UNL     1      -1.455  12.155  21.060  0.00  0.00    +0.000 NA
ATOM     11  C   UNL     1      -1.540  11.575  19.877  0.00  0.00    +0.000 A 
ENDROOT
BRANCH   1  16
ATOM     12  C   UNL     1       3.511   5.751  17.874  0.00  0.00    +0.000 C 
ATOM     13  C   UNL     1       2.794   6.944  18.429  0.00  0.00    +0.000 A 
ATOM     14  C   UNL     1       2.308   6.983  19.739  0.00  0.00    +0.000 A 
ATOM     15  C   UNL     1       1.597   8.103  20.202  0.00  0.00    +0.000 A 
ATOM     16  C   UNL     1       1.391   9.216  19.372  0.00  0.00    +0.000 A 
ATOM     17  C   UNL     1       2.010   9.212  18.119  0.00  0.00    +0.000 A 
ATOM     18  C   UNL     1       2.627   8.065  17.619  0.00  0.00    +0.000 A 
ENDBRANCH   1  16
BRANCH   9  19
ATOM     19  C   UNL     1      -2.943  13.652  22.430  0.00  0.00    +0.000 A 
ATOM     20  C   UNL     1      -4.281  13.918  22.751  0.00  0.00    +0.000 A 
ATOM     21  C   UNL     1      -4.607  14.658  23.891  0.00  0.00    +0.000 A 
ATOM     22  C   UNL     1      -3.602  15.146  24.727  0.00  0.00    +0.000 A 
ATOM     23  C   UNL     1      -2.260  14.897  24.420  0.00  0.00    +0.000 A 
ATOM     24  C   UNL     1      -1.940  14.155  23.277  0.00  0.00    +0.000 A 
BRANCH  23  25
ATOM     25  C   UNL     1      -1.216  15.394  25.270  0.00  0.00    +0.000 C 
ATOM     26  N   UNL     1      -0.371  15.782  25.957  0.00  0.00    +0.000 NA
ENDBRANCH  23  25
ENDBRANCH   9  19
TORSDOF 3
ENDMDL
MODEL 7
REMARK VINA RESULT:      -7.6      4.324      9.337
REMARK  Name = 
REMARK  4 active torsions:
REMARK  status: ('A' for Active; 'I' for Inactive)
REMARK    1  A    between atoms: C_1  and  C_2
REMARK    2  A    between atoms: C_5  and  C_6
REMARK    3  A    between atoms: C_14  and  C_15
REMARK    4  A    between atoms: C_19  and  C_20
REMARK                            x       y       z     vdW  Elec       q    Type
REMARK                         _______ _______ _______ _____ _____    ______ ____
ROOT
ATOM      1  C   UNL     1       1.981   8.809  18.183  0.00  0.00    +0.000 C 
ATOM      2  O   UNL     1       2.134   9.554  17.214  0.00  0.00    +0.000 OA
ATOM      3  N   UNL     1       1.428   9.185  19.441  0.00  0.00    +0.000 N 
ATOM      4  C   UNL     1       1.253   8.233  20.534  0.00  0.00    +0.000 C 
ATOM      5  C   UNL     1       0.542   8.671  21.805  0.00  0.00    +0.000 C 
ATOM      6  C   UNL     1       0.323  10.149  21.993  0.00  0.00    +0.000 C 
ATOM      7  N   UNL     1       0.709  10.970  20.881  0.00  0.00    +0.000 N 
ATOM      8  C   UNL     1       0.629  12.330  20.886  0.00  0.00    +0.000 A 
ATOM      9  C   UNL     1       1.082  12.713  19.646  0.00  0.00    +0.000 A 
ATOM     10  N   UNL     1       1.427  11.597  18.910  0.00  0.00    +0.000 NA
ATOM     11  C   UNL     1       1.205  10.544  19.676  0.00  0.00    +0.000 A 
ENDROOT
BRANCH   1  16
ATOM     12  C   UNL     1       4.191   3.430  17.693  0.00  0.00    +0.000 C 
ATOM     13  C   UNL     1       3.629   4.817  17.762  0.00  0.00    +0.000 A 
ATOM     14  C   UNL     1       4.405   5.953  17.507  0.00  0.00    +0.000 A 
ATOM     15  C   UNL     1       3.849   7.237  17.631  0.00  0.00    +0.000 A 
ATOM     16  C   UNL     1       2.500   7.406  17.979  0.00  0.00    +0.000 A 
ATOM     17  C   UNL     1       1.711   6.256  18.086  0.00  0.00    +0.000 A 
ATOM     18  C   UNL     1       2.279   4.982  18.065  0.00  0.00    +0.000 A 
ENDBRANCH   1  16
BRANCH   9  19
ATOM     19  C   UNL     1       1.185  14.088  19.177  0.00  0.00    +0.000 A 
ATOM     20  C   UNL     1       2.415  14.581  18.722  0.00  0.00    +0.000 A 
ATOM     21  C   UNL     1       2.529  15.894  18.258  0.00  0.00    +0.000 A 
ATOM     22  C   UNL     1       1.417  16.736  18.243  0.00  0.00    +0.000 A 
ATOM     23  C   UNL     1       0.181  16.264  18.700  0.00  0.00    +0.000 A 
ATOM     24  C   UNL     1       0.074  14.949  19.162  0.00  0.00    +0.000 A 
BRANCH  23  25
ATOM     25  C   UNL     1      -0.971  17.120  18.692  0.00  0.00    +0.000 C 
ATOM     26  N   UNL     1      -1.902  17.806  18.699  0.00  0.00    +0.000 NA
ENDBRANCH  23  25
ENDBRANCH   9  19
TORSDOF 3
ENDMDL
MODEL 8
REMARK VINA RESULT:      -7.5      2.875      4.850
REMARK  Name = 
REMARK  4 active torsions:
REMARK  status: ('A' for Active; 'I' for Inactive)
REMARK    1  A    between atoms: C_1  and  C_2
REMARK    2  A    between atoms: C_5  and  C_6
REMARK    3  A    between atoms: C_14  and  C_15
REMARK    4  A    between atoms: C_19  and  C_20
REMARK                            x       y       z     vdW  Elec       q    Type
REMARK                         _______ _______ _______ _____ _____    ______ ____
ROOT
ATOM      1  C   UNL     1       1.607  11.355  18.949  0.00  0.00    +0.000 C 
ATOM      2  O   UNL     1       2.356  11.116  18.000  0.00  0.00    +0.000 OA
ATOM      3  N   UNL     1       1.250  10.437  19.978  0.00  0.00    +0.000 N 
ATOM      4  C   UNL     1       0.376  10.807  21.088  0.00  0.00    +0.000 C 
ATOM      5  C   UNL     1       0.135   9.817  22.217  0.00  0.00    +0.000 C 
ATOM      6  C   UNL     1       0.568   8.394  21.983  0.00  0.00    +0.000 C 
ATOM      7  N   UNL     1       1.273   8.163  20.755  0.00  0.00    +0.000 N 
ATOM      8  C   UNL     1       1.699   6.933  20.351  0.00  0.00    +0.000 A 
ATOM      9  C   UNL     1       2.322   7.155  19.146  0.00  0.00    +0.000 A 
ATOM     10  N   UNL     1       2.270   8.500  18.835  0.00  0.00    +0.000 NA
ATOM     11  C   UNL     1       1.621   9.099  19.816  0.00  0.00    +0.000 A 
ENDROOT
BRANCH   1  16
ATOM     12  C   UNL     1      -0.522  16.778  18.600  0.00  0.00    +0.000 C 
ATOM     13  C   UNL     1       0.025  15.391  18.747  0.00  0.00    +0.000 A 
ATOM     14  C   UNL     1       1.320  15.142  19.214  0.00  0.00    +0.000 A 
ATOM     15  C   UNL     1       1.809  13.827  19.289  0.00  0.00    +0.000 A 
ATOM     16  C   UNL     1       0.999  12.738  18.931  0.00  0.00    +0.000 A 
ATOM     17  C   UNL     1      -0.334  13.002  18.607  0.00  0.00    +0.000 A 
ATOM     18  C   UNL     1      -0.793  14.308  18.432  0.00  0.00    +0.000 A 
ENDBRANCH   1  16
BRANCH   9  19
ATOM     19  C   UNL     1       2.943   6.130  18.320  0.00  0.00    +0.000 A 
ATOM     20  C   UNL     1       2.285   4.913  18.102  0.00  0.00    +0.000 A 
ATOM     21  C   UNL     1       2.862   3.923  17.303  0.00  0.00    +0.000 A 
ATOM     22  C   UNL     1       4.107   4.132  16.710  0.00  0.00    +0.000 A 
ATOM     23  C   UNL     1       4.784   5.338  16.920  0.00  0.00    +0.000 A 
ATOM     24  C   UNL     1       4.201   6.325  17.721  0.00  0.00    +0.000 A 
BRANCH  23  25
ATOM     25  C   UNL     1       6.067   5.566  16.317  0.00  0.00    +0.000 C 
ATOM     26  N   UNL     1       7.101   5.736  15.829  0.00  0.00    +0.000 NA
ENDBRANCH  23  25
ENDBRANCH   9  19
TORSDOF 3
ENDMDL
MODEL 9
REMARK VINA RESULT:      -7.5      2.760      4.796
REMARK  Name = 
REMARK  4 active torsions:
REMARK  status: ('A' for Active; 'I' for Inactive)
REMARK    1  A    between atoms: C_1  and  C_2
REMARK    2  A    between atoms: C_5  and  C_6
REMARK    3  A    between atoms: C_14  and  C_15
REMARK    4  A    between atoms: C_19  and  C_20
REMARK                            x       y       z     vdW  Elec       q    Type
REMARK                         _______ _______ _______ _____ _____    ______ ____
ROOT
ATOM      1  C   UNL     1       1.719  11.116  18.773  0.00  0.00    +0.000 C 
ATOM      2  O   UNL     1       2.441  10.805  17.824  0.00  0.00    +0.000 OA
ATOM      3  N   UNL     1       1.353  10.264  19.854  0.00  0.00    +0.000 N 
ATOM      4  C   UNL     1       0.514  10.719  20.959  0.00  0.00    +0.000 C 
ATOM      5  C   UNL     1       0.264   9.796  22.141  0.00  0.00    +0.000 C 
ATOM      6  C   UNL     1       0.645   8.349  21.973  0.00  0.00    +0.000 C 
ATOM      7  N   UNL     1       1.317   8.033  20.745  0.00  0.00    +0.000 N 
ATOM      8  C   UNL     1       1.695   6.770  20.397  0.00  0.00    +0.000 A 
ATOM      9  C   UNL     1       2.301   6.910  19.171  0.00  0.00    +0.000 A 
ATOM     10  N   UNL     1       2.286   8.238  18.793  0.00  0.00    +0.000 NA
ATOM     11  C   UNL     1       1.676   8.908  19.753  0.00  0.00    +0.000 A 
ENDROOT
BRANCH   1  16
ATOM     12  C   UNL     1      -0.609  16.468  18.799  0.00  0.00    +0.000 C 
ATOM     13  C   UNL     1      -0.026  15.089  18.737  0.00  0.00    +0.000 A 
ATOM     14  C   UNL     1      -0.818  13.948  18.578  0.00  0.00    +0.000 A 
ATOM     15  C   UNL     1      -0.234  12.671  18.574  0.00  0.00    +0.000 A 
ATOM     16  C   UNL     1       1.156  12.516  18.695  0.00  0.00    +0.000 A 
ATOM     17  C   UNL     1       1.937  13.675  18.706  0.00  0.00    +0.000 A 
ATOM     18  C   UNL     1       1.357  14.940  18.813  0.00  0.00    +0.000 A 
ENDBRANCH   1  16
BRANCH   9  19
ATOM     19  C   UNL     1       2.872   5.825  18.387  0.00  0.00    +0.000 A 
ATOM     20  C   UNL     1       2.078   4.727  18.029  0.00  0.00    +0.000 A 
ATOM     21  C   UNL     1       2.607   3.682  17.268  0.00  0.00    +0.000 A 
ATOM     22  C   UNL     1       3.939   3.715  16.854  0.00  0.00    +0.000 A 
ATOM     23  C   UNL     1       4.750   4.799  17.206  0.00  0.00    +0.000 A 
ATOM     24  C   UNL     1       4.214   5.842  17.968  0.00  0.00    +0.000 A 
BRANCH  23  25
ATOM     25  C   UNL     1       6.122   4.845  16.788  0.00  0.00    +0.000 C 
ATOM     26  N   UNL     1       7.228   4.897  16.453  0.00  0.00    +0.000 NA
ENDBRANCH  23  25
ENDBRANCH   9  19
TORSDOF 3
ENDMDL
