MODEL 1
REMARK VINA RESULT:      -8.0      0.000      0.000
REMARK  Name = 
REMARK  0 active torsions:
REMARK  status: ('A' for Active; 'I' for Inactive)
REMARK                            x       y       z     vdW  Elec       q    Type
REMARK                         _______ _______ _______ _____ _____    ______ ____
ROOT
ATOM      1  N   UNL     1       7.271   5.510  19.677  0.00  0.00    +0.000 N 
ATOM      2  C   UNL     1       6.115   5.160  19.020  0.00  0.00    +0.000 C 
ATOM      3  N   UNL     1       5.118   4.827  19.794  0.00  0.00    +0.000 NA
ATOM      4  C   UNL     1       3.858   4.401  19.334  0.00  0.00    +0.000 A 
ATOM      5  C   UNL     1       3.315   3.261  19.944  0.00  0.00    +0.000 A 
ATOM      6  C   UNL     1       2.044   2.791  19.606  0.00  0.00    +0.000 A 
ATOM      7  C   UNL     1       1.284   3.465  18.656  0.00  0.00    +0.000 A 
ATOM      8  C   UNL     1       1.795   4.612  18.052  0.00  0.00    +0.000 A 
ATOM      9  C   UNL     1       3.072   5.087  18.391  0.00  0.00    +0.000 A 
ATOM     10  S   UNL     1       3.670   6.541  17.548  0.00  0.00    +0.000 S 
ATOM     11  C   UNL     1       5.093   5.780  16.788  0.00  0.00    +0.000 A 
ATOM     12  C   UNL     1       5.165   5.791  15.387  0.00  0.00    +0.000 A 
ATOM     13  C   UNL     1       6.252   5.219  14.723  0.00  0.00    +0.000 A 
ATOM     14  C   UNL     1       7.281   4.643  15.460  0.00  0.00    +0.000 A 
ATOM     15  C   UNL     1       7.213   4.631  16.851  0.00  0.00    +0.000 A 
ATOM     16  F   UNL     1       8.232   4.081  17.529  0.00  0.00    +0.000 F 
ATOM     17  C   UNL     1       6.119   5.180  17.529  0.00  0.00    +0.000 A 
ATOM     18  H   UNL     1       7.244   5.234  20.652  0.00  0.00    +0.000 HD
ATOM     19  H   UNL     1       8.143   5.264  19.221  0.00  0.00    +0.000 HD
ENDROOT
TORSDOF 0
ENDMDL
MODEL 2
REMARK VINA RESULT:      -7.2      2.474      5.019
REMARK  Name = 
REMARK  0 active torsions:
REMARK  status: ('A' for Active; 'I' for Inactive)
REMARK                            x       y       z     vdW  Elec       q    Type
REMARK                         _______ _______ _______ _____ _____    ______ ____
ROOT
ATOM      1  N   UNL     1       5.070   1.526  20.377  0.00  0.00    +0.000 N 
ATOM      2  C   UNL     1       4.700   2.655  19.687  0.00  0.00    +0.000 C 
ATOM      3  N   UNL     1       5.682   3.313  19.135  0.00  0.00    +0.000 NA
ATOM      4  C   UNL     1       5.535   4.513  18.414  0.00  0.00    +0.000 A 
ATOM      5  C   UNL     1       6.431   5.547  18.719  0.00  0.00    +0.000 A 
ATOM      6  C   UNL     1       6.412   6.756  18.020  0.00  0.00    +0.000 A 
ATOM      7  C   UNL     1       5.498   6.947  16.989  0.00  0.00    +0.000 A 
ATOM      8  C   UNL     1       4.611   5.925  16.655  0.00  0.00    +0.000 A 
ATOM      9  C   UNL     1       4.630   4.709  17.356  0.00  0.00    +0.000 A 
ATOM     10  S   UNL     1       3.440   3.463  16.892  0.00  0.00    +0.000 S 
ATOM     11  C   UNL     1       2.602   3.371  18.464  0.00  0.00    +0.000 A 
ATOM     12  C   UNL     1       1.232   3.675  18.488  0.00  0.00    +0.000 A 
ATOM     13  C   UNL     1       0.509   3.618  19.682  0.00  0.00    +0.000 A 
ATOM     14  C   UNL     1       1.152   3.244  20.857  0.00  0.00    +0.000 A 
ATOM     15  C   UNL     1       2.512   2.942  20.836  0.00  0.00    +0.000 A 
ATOM     16  F   UNL     1       3.094   2.569  21.986  0.00  0.00    +0.000 F 
ATOM     17  C   UNL     1       3.253   3.016  19.652  0.00  0.00    +0.000 A 
ATOM     18  H   UNL     1       6.069   1.503  20.547  0.00  0.00    +0.000 HD
ATOM     19  H   UNL     1       4.525   1.300  21.203  0.00  0.00    +0.000 HD
ENDROOT
TORSDOF 0
ENDMDL
MODEL 3
REMARK VINA RESULT:      -7.1      2.272      2.743
REMARK  Name = 
REMARK  0 active torsions:
REMARK  status: ('A' for Active; 'I' for Inactive)
REMARK                            x       y       z     vdW  Elec       q    Type
REMARK                         _______ _______ _______ _____ _____    ______ ____
ROOT
ATOM      1  N   UNL     1       3.141   7.868  17.508  0.00  0.00    +0.000 N 
ATOM      2  C   UNL     1       3.297   6.582  17.967  0.00  0.00    +0.000 C 
ATOM      3  N   UNL     1       2.445   6.215  18.885  0.00  0.00    +0.000 NA
ATOM      4  C   UNL     1       2.446   4.958  19.519  0.00  0.00    +0.000 A 
ATOM      5  C   UNL     1       2.318   4.955  20.915  0.00  0.00    +0.000 A 
ATOM      6  C   UNL     1       2.244   3.760  21.635  0.00  0.00    +0.000 A 
ATOM      7  C   UNL     1       2.285   2.542  20.965  0.00  0.00    +0.000 A 
ATOM      8  C   UNL     1       2.391   2.522  19.576  0.00  0.00    +0.000 A 
ATOM      9  C   UNL     1       2.464   3.722  18.850  0.00  0.00    +0.000 A 
ATOM     10  S   UNL     1       2.634   3.612  17.078  0.00  0.00    +0.000 S 
ATOM     11  C   UNL     1       4.207   4.445  16.961  0.00  0.00    +0.000 A 
ATOM     12  C   UNL     1       5.281   3.730  16.408  0.00  0.00    +0.000 A 
ATOM     13  C   UNL     1       6.540   4.319  16.280  0.00  0.00    +0.000 A 
ATOM     14  C   UNL     1       6.729   5.634  16.693  0.00  0.00    +0.000 A 
ATOM     15  C   UNL     1       5.665   6.346  17.241  0.00  0.00    +0.000 A 
ATOM     16  F   UNL     1       5.880   7.617  17.614  0.00  0.00    +0.000 F 
ATOM     17  C   UNL     1       4.403   5.761  17.397  0.00  0.00    +0.000 A 
ATOM     18  H   UNL     1       2.537   8.411  18.115  0.00  0.00    +0.000 HD
ATOM     19  H   UNL     1       3.988   8.364  17.250  0.00  0.00    +0.000 HD
ENDROOT
TORSDOF 0
ENDMDL
MODEL 4
REMARK VINA RESULT:      -7.0      2.368      4.970
REMARK  Name = 
REMARK  0 active torsions:
REMARK  status: ('A' for Active; 'I' for Inactive)
REMARK                            x       y       z     vdW  Elec       q    Type
REMARK                         _______ _______ _______ _____ _____    ______ ____
ROOT
ATOM      1  N   UNL     1       4.800   2.424  19.596  0.00  0.00    +0.000 N 
ATOM      2  C   UNL     1       4.996   3.730  19.216  0.00  0.00    +0.000 C 
ATOM      3  N   UNL     1       6.229   4.041  18.921  0.00  0.00    +0.000 NA
ATOM      4  C   UNL     1       6.660   5.327  18.544  0.00  0.00    +0.000 A 
ATOM      5  C   UNL     1       7.816   5.814  19.169  0.00  0.00    +0.000 A 
ATOM      6  C   UNL     1       8.364   7.052  18.822  0.00  0.00    +0.000 A 
ATOM      7  C   UNL     1       7.767   7.821  17.829  0.00  0.00    +0.000 A 
ATOM      8  C   UNL     1       6.629   7.348  17.180  0.00  0.00    +0.000 A 
ATOM      9  C   UNL     1       6.077   6.104  17.526  0.00  0.00    +0.000 A 
ATOM     10  S   UNL     1       4.599   5.583  16.674  0.00  0.00    +0.000 S 
ATOM     11  C   UNL     1       3.546   5.487  18.111  0.00  0.00    +0.000 A 
ATOM     12  C   UNL     1       2.405   6.303  18.135  0.00  0.00    +0.000 A 
ATOM     13  C   UNL     1       1.532   6.277  19.224  0.00  0.00    +0.000 A 
ATOM     14  C   UNL     1       1.789   5.422  20.291  0.00  0.00    +0.000 A 
ATOM     15  C   UNL     1       2.920   4.610  20.268  0.00  0.00    +0.000 A 
ATOM     16  F   UNL     1       3.127   3.786  21.308  0.00  0.00    +0.000 F 
ATOM     17  C   UNL     1       3.816   4.642  19.195  0.00  0.00    +0.000 A 
ATOM     18  H   UNL     1       5.676   1.962  19.812  0.00  0.00    +0.000 HD
ATOM     19  H   UNL     1       4.085   2.259  20.297  0.00  0.00    +0.000 HD
ENDROOT
TORSDOF 0
ENDMDL
MODEL 5
REMARK VINA RESULT:      -6.9      2.426      5.256
REMARK  Name = 
REMARK  0 active torsions:
REMARK  status: ('A' for Active; 'I' for Inactive)
REMARK                            x       y       z     vdW  Elec       q    Type
REMARK                         _______ _______ _______ _____ _____    ______ ____
ROOT
ATOM      1  N   UNL     1       2.187   6.959  18.343  0.00  0.00    +0.000 N 
ATOM      2  C   UNL     1       3.205   6.095  18.015  0.00  0.00    +0.000 C 
ATOM      3  N   UNL     1       4.055   6.549  17.135  0.00  0.00    +0.000 NA
ATOM      4  C   UNL     1       5.148   5.820  16.631  0.00  0.00    +0.000 A 
ATOM      5  C   UNL     1       5.335   5.843  15.242  0.00  0.00    +0.000 A 
ATOM      6  C   UNL     1       6.425   5.206  14.644  0.00  0.00    +0.000 A 
ATOM      7  C   UNL     1       7.358   4.541  15.432  0.00  0.00    +0.000 A 
ATOM      8  C   UNL     1       7.202   4.522  16.817  0.00  0.00    +0.000 A 
ATOM      9  C   UNL     1       6.109   5.163  17.420  0.00  0.00    +0.000 A 
ATOM     10  S   UNL     1       5.962   5.065  19.194  0.00  0.00    +0.000 S 
ATOM     11  C   UNL     1       4.391   4.219  19.233  0.00  0.00    +0.000 A 
ATOM     12  C   UNL     1       4.345   2.963  19.858  0.00  0.00    +0.000 A 
ATOM     13  C   UNL     1       3.149   2.246  19.931  0.00  0.00    +0.000 A 
ATOM     14  C   UNL     1       1.988   2.788  19.389  0.00  0.00    +0.000 A 
ATOM     15  C   UNL     1       2.032   4.034  18.769  0.00  0.00    +0.000 A 
ATOM     16  F   UNL     1       0.889   4.532  18.272  0.00  0.00    +0.000 F 
ATOM     17  C   UNL     1       3.227   4.754  18.668  0.00  0.00    +0.000 A 
ATOM     18  H   UNL     1       2.121   7.725  17.682  0.00  0.00    +0.000 HD
ATOM     19  H   UNL     1       1.287   6.541  18.553  0.00  0.00    +0.000 HD
ENDROOT
TORSDOF 0
ENDMDL
MODEL 6
REMARK VINA RESULT:      -6.7      2.851      5.210
REMARK  Name = 
REMARK  0 active torsions:
REMARK  status: ('A' for Active; 'I' for Inactive)
REMARK                            x       y       z     vdW  Elec       q    Type
REMARK                         _______ _______ _______ _____ _____    ______ ____
ROOT
ATOM      1  N   UNL     1       2.890   3.817  19.632  0.00  0.00    +0.000 N 
ATOM      2  C   UNL     1       3.682   4.879  19.264  0.00  0.00    +0.000 C 
ATOM      3  N   UNL     1       4.943   4.594  19.088  0.00  0.00    +0.000 NA
ATOM      4  C   UNL     1       5.934   5.533  18.745  0.00  0.00    +0.000 A 
ATOM      5  C   UNL     1       7.129   5.485  19.476  0.00  0.00    +0.000 A 
ATOM      6  C   UNL     1       8.200   6.330  19.176  0.00  0.00    +0.000 A 
ATOM      7  C   UNL     1       8.097   7.234  18.124  0.00  0.00    +0.000 A 
ATOM      8  C   UNL     1       6.926   7.285  17.371  0.00  0.00    +0.000 A 
ATOM      9  C   UNL     1       5.849   6.435  17.670  0.00  0.00    +0.000 A 
ATOM     10  S   UNL     1       4.371   6.585  16.682  0.00  0.00    +0.000 S 
ATOM     11  C   UNL     1       3.270   7.039  18.010  0.00  0.00    +0.000 A 
ATOM     12  C   UNL     1       2.618   8.278  17.917  0.00  0.00    +0.000 A 
ATOM     13  C   UNL     1       1.737   8.698  18.916  0.00  0.00    +0.000 A 
ATOM     14  C   UNL     1       1.493   7.872  20.008  0.00  0.00    +0.000 A 
ATOM     15  C   UNL     1       2.139   6.641  20.102  0.00  0.00    +0.000 A 
ATOM     16  F   UNL     1       1.867   5.865  21.163  0.00  0.00    +0.000 F 
ATOM     17  C   UNL     1       3.041   6.218  19.121  0.00  0.00    +0.000 A 
ATOM     18  H   UNL     1       3.446   3.025  19.936  0.00  0.00    +0.000 HD
ATOM     19  H   UNL     1       2.121   4.023  20.261  0.00  0.00    +0.000 HD
ENDROOT
TORSDOF 0
ENDMDL
MODEL 7
REMARK VINA RESULT:      -6.7      2.289      2.999
REMARK  Name = 
REMARK  0 active torsions:
REMARK  status: ('A' for Active; 'I' for Inactive)
REMARK                            x       y       z     vdW  Elec       q    Type
REMARK                         _______ _______ _______ _____ _____    ______ ____
ROOT
ATOM      1  N   UNL     1       6.366   4.947  19.279  0.00  0.00    +0.000 N 
ATOM      2  C   UNL     1       5.010   4.777  19.134  0.00  0.00    +0.000 C 
ATOM      3  N   UNL     1       4.567   3.585  19.424  0.00  0.00    +0.000 NA
ATOM      4  C   UNL     1       3.222   3.183  19.311  0.00  0.00    +0.000 A 
ATOM      5  C   UNL     1       2.982   1.952  18.684  0.00  0.00    +0.000 A 
ATOM      6  C   UNL     1       1.691   1.431  18.577  0.00  0.00    +0.000 A 
ATOM      7  C   UNL     1       0.613   2.131  19.109  0.00  0.00    +0.000 A 
ATOM      8  C   UNL     1       0.831   3.347  19.754  0.00  0.00    +0.000 A 
ATOM      9  C   UNL     1       2.129   3.871  19.865  0.00  0.00    +0.000 A 
ATOM     10  S   UNL     1       2.321   5.449  20.674  0.00  0.00    +0.000 S 
ATOM     11  C   UNL     1       3.010   6.323  19.280  0.00  0.00    +0.000 A 
ATOM     12  C   UNL     1       2.308   7.440  18.802  0.00  0.00    +0.000 A 
ATOM     13  C   UNL     1       2.789   8.176  17.718  0.00  0.00    +0.000 A 
ATOM     14  C   UNL     1       3.986   7.806  17.113  0.00  0.00    +0.000 A 
ATOM     15  C   UNL     1       4.685   6.698  17.586  0.00  0.00    +0.000 A 
ATOM     16  F   UNL     1       5.844   6.380  16.987  0.00  0.00    +0.000 F 
ATOM     17  C   UNL     1       4.203   5.937  18.656  0.00  0.00    +0.000 A 
ATOM     18  H   UNL     1       6.846   4.058  19.367  0.00  0.00    +0.000 HD
ATOM     19  H   UNL     1       6.818   5.575  18.622  0.00  0.00    +0.000 HD
ENDROOT
TORSDOF 0
ENDMDL
MODEL 8
REMARK VINA RESULT:      -6.7      2.743      5.275
REMARK  Name = 
REMARK  0 active torsions:
REMARK  status: ('A' for Active; 'I' for Inactive)
REMARK                            x       y       z     vdW  Elec       q    Type
REMARK                         _______ _______ _______ _____ _____    ______ ____
ROOT
ATOM      1  N   UNL     1       2.208   5.894  21.116  0.00  0.00    +0.000 N 
ATOM      2  C   UNL     1       2.778   5.425  19.957  0.00  0.00    +0.000 C 
ATOM      3  N   UNL     1       3.573   6.264  19.352  0.00  0.00    +0.000 NA
ATOM      4  C   UNL     1       4.233   6.005  18.136  0.00  0.00    +0.000 A 
ATOM      5  C   UNL     1       4.179   7.012  17.162  0.00  0.00    +0.000 A 
ATOM      6  C   UNL     1       4.852   6.883  15.945  0.00  0.00    +0.000 A 
ATOM      7  C   UNL     1       5.604   5.743  15.685  0.00  0.00    +0.000 A 
ATOM      8  C   UNL     1       5.688   4.738  16.646  0.00  0.00    +0.000 A 
ATOM      9  C   UNL     1       5.014   4.866  17.871  0.00  0.00    +0.000 A 
ATOM     10  S   UNL     1       5.141   3.522  19.036  0.00  0.00    +0.000 S 
ATOM     11  C   UNL     1       3.403   3.126  19.099  0.00  0.00    +0.000 A 
ATOM     12  C   UNL     1       3.017   1.833  18.713  0.00  0.00    +0.000 A 
ATOM     13  C   UNL     1       1.674   1.450  18.742  0.00  0.00    +0.000 A 
ATOM     14  C   UNL     1       0.710   2.357  19.171  0.00  0.00    +0.000 A 
ATOM     15  C   UNL     1       1.091   3.641  19.554  0.00  0.00    +0.000 A 
ATOM     16  F   UNL     1       0.135   4.483  19.977  0.00  0.00    +0.000 F 
ATOM     17  C   UNL     1       2.429   4.046  19.509  0.00  0.00    +0.000 A 
ATOM     18  H   UNL     1       2.309   6.899  21.202  0.00  0.00    +0.000 HD
ATOM     19  H   UNL     1       1.266   5.574  21.319  0.00  0.00    +0.000 HD
ENDROOT
TORSDOF 0
ENDMDL
MODEL 9
REMARK VINA RESULT:      -6.6      2.550      5.175
REMARK  Name = 
REMARK  0 active torsions:
REMARK  status: ('A' for Active; 'I' for Inactive)
REMARK                            x       y       z     vdW  Elec       q    Type
REMARK                         _______ _______ _______ _____ _____    ______ ____
ROOT
ATOM      1  N   UNL     1       2.549   2.757  17.140  0.00  0.00    +0.000 N 
ATOM      2  C   UNL     1       3.348   3.776  17.601  0.00  0.00    +0.000 C 
ATOM      3  N   UNL     1       4.539   3.830  17.070  0.00  0.00    +0.000 NA
ATOM      4  C   UNL     1       5.528   4.767  17.421  0.00  0.00    +0.000 A 
ATOM      5  C   UNL     1       6.819   4.268  17.645  0.00  0.00    +0.000 A 
ATOM      6  C   UNL     1       7.887   5.120  17.937  0.00  0.00    +0.000 A 
ATOM      7  C   UNL     1       7.683   6.494  17.998  0.00  0.00    +0.000 A 
ATOM      8  C   UNL     1       6.412   7.014  17.760  0.00  0.00    +0.000 A 
ATOM      9  C   UNL     1       5.337   6.159  17.464  0.00  0.00    +0.000 A 
ATOM     10  S   UNL     1       3.734   6.898  17.206  0.00  0.00    +0.000 S 
ATOM     11  C   UNL     1       2.900   6.079  18.554  0.00  0.00    +0.000 A 
ATOM     12  C   UNL     1       2.337   6.885  19.554  0.00  0.00    +0.000 A 
ATOM     13  C   UNL     1       1.664   6.314  20.636  0.00  0.00    +0.000 A 
ATOM     14  C   UNL     1       1.540   4.931  20.716  0.00  0.00    +0.000 A 
ATOM     15  C   UNL     1       2.098   4.129  19.724  0.00  0.00    +0.000 A 
ATOM     16  F   UNL     1       1.945   2.799  19.826  0.00  0.00    +0.000 F 
ATOM     17  C   UNL     1       2.795   4.685  18.646  0.00  0.00    +0.000 A 
ATOM     18  H   UNL     1       3.086   2.064  16.629  0.00  0.00    +0.000 HD
ATOM     19  H   UNL     1       1.909   2.343  17.811  0.00  0.00    +0.000 HD
ENDROOT
TORSDOF 0
ENDMDL
