MODEL 1
REMARK VINA RESULT:      -7.9      0.000      0.000
REMARK  Name = 
REMARK  5 active torsions:
REMARK  status: ('A' for Active; 'I' for Inactive)
REMARK    1  A    between atoms: C_1  and  C_2
REMARK    2  A    between atoms: C_3  and  C_4
REMARK    3  A    between atoms: C_7  and  C_9
REMARK    4  A    between atoms: N_15  and  C_16
REMARK    5  A    between atoms: C_24  and  C_25
REMARK                            x       y       z     vdW  Elec       q    Type
REMARK                         _______ _______ _______ _____ _____    ______ ____
ROOT
ATOM      1  C   UNL     1      -0.399   8.792  20.926  0.00  0.00    +0.000 C 
ATOM      2  C   UNL     1       0.112  10.005  20.222  0.00  0.00    +0.000 A 
ATOM      3  C   UNL     1       1.071  10.054  19.152  0.00  0.00    +0.000 A 
ATOM      4  N   UNL     1       1.226  11.319  18.718  0.00  0.00    +0.000 NA
ATOM      5  N   UNL     1       0.537  12.094  19.614  0.00  0.00    +0.000 N 
ATOM      6  C   UNL     1      -0.282  11.328  20.451  0.00  0.00    +0.000 A 
ENDROOT
BRANCH   5   7
ATOM      7  C   UNL     1       0.689  13.511  19.528  0.00  0.00    +0.000 A 
ATOM      8  C   UNL     1      -0.216  14.208  18.702  0.00  0.00    +0.000 A 
ATOM      9  C   UNL     1      -0.159  15.601  18.598  0.00  0.00    +0.000 A 
ATOM     10  C   UNL     1       0.795  16.308  19.324  0.00  0.00    +0.000 A 
ATOM     11 CL   UNL     1       0.884  18.019  19.178  0.00  0.00    +0.000 Cl
ATOM     12  C   UNL     1       1.707  15.635  20.130  0.00  0.00    +0.000 A 
ATOM     13  C   UNL     1       1.685  14.235  20.203  0.00  0.00    +0.000 A 
ATOM     14 CL   UNL     1       3.058  13.517  20.973  0.00  0.00    +0.000 Cl
ENDBRANCH   5   7
BRANCH   6  15
ATOM     15  C   UNL     1      -1.337  11.853  21.355  0.00  0.00    +0.000 A 
ATOM     16  C   UNL     1      -1.205  11.800  22.754  0.00  0.00    +0.000 A 
ATOM     17  C   UNL     1      -2.260  12.172  23.598  0.00  0.00    +0.000 A 
ATOM     18  C   UNL     1      -3.441  12.669  23.057  0.00  0.00    +0.000 A 
ATOM     19 CL   UNL     1      -4.741  13.117  24.091  0.00  0.00    +0.000 Cl
ATOM     20  C   UNL     1      -3.576  12.794  21.680  0.00  0.00    +0.000 A 
ATOM     21  C   UNL     1      -2.536  12.376  20.839  0.00  0.00    +0.000 A 
ENDBRANCH   6  15
BRANCH   3  22
ATOM     22  C   UNL     1       1.820   8.925  18.530  0.00  0.00    +0.000 C 
ATOM     23  O   UNL     1       2.187   8.974  17.361  0.00  0.00    +0.000 OA
ATOM     24  N   UNL     1       2.036   7.846  19.374  0.00  0.00    +0.000 N 
ATOM     25  C   UNL     1       2.704   6.682  19.024  0.00  0.00    +0.000 C 
ATOM     26  O   UNL     1       3.296   6.521  17.959  0.00  0.00    +0.000 OA
ATOM     27  H   UNL     1       1.643   7.948  20.312  0.00  0.00    +0.000 HD
BRANCH  25  28
ATOM     28  C   UNL     1       2.730   5.593  20.104  0.00  0.00    +0.000 C 
ATOM     29  C   UNL     1       1.346   5.032  20.419  0.00  0.00    +0.000 C 
ATOM     30  C   UNL     1       1.619   3.690  21.093  0.00  0.00    +0.000 C 
ATOM     31  C   UNL     1       2.947   3.196  20.532  0.00  0.00    +0.000 C 
ATOM     32  C   UNL     1       3.499   4.334  19.679  0.00  0.00    +0.000 C 
ENDBRANCH  25  28
ENDBRANCH   3  22
TORSDOF 4
ENDMDL
MODEL 2
REMARK VINA RESULT:      -7.9      1.323      4.430
REMARK  Name = 
REMARK  5 active torsions:
REMARK  status: ('A' for Active; 'I' for Inactive)
REMARK    1  A    between atoms: C_1  and  C_2
REMARK    2  A    between atoms: C_3  and  C_4
REMARK    3  A    between atoms: C_7  and  C_9
REMARK    4  A    between atoms: N_15  and  C_16
REMARK    5  A    between atoms: C_24  and  C_25
REMARK                            x       y       z     vdW  Elec       q    Type
REMARK                         _______ _______ _______ _____ _____    ______ ____
ROOT
ATOM      1  C   UNL     1       2.696  11.949  17.777  0.00  0.00    +0.000 C 
ATOM      2  C   UNL     1       1.686  11.492  18.777  0.00  0.00    +0.000 A 
ATOM      3  C   UNL     1       1.333  10.137  19.103  0.00  0.00    +0.000 A 
ATOM      4  N   UNL     1       0.439  10.114  20.109  0.00  0.00    +0.000 NA
ATOM      5  N   UNL     1       0.074  11.421  20.296  0.00  0.00    +0.000 N 
ATOM      6  C   UNL     1       0.920  12.306  19.617  0.00  0.00    +0.000 A 
ENDROOT
BRANCH   5   7
ATOM      7  C   UNL     1      -1.022  11.691  21.171  0.00  0.00    +0.000 A 
ATOM      8  C   UNL     1      -0.845  11.396  22.538  0.00  0.00    +0.000 A 
ATOM      9  C   UNL     1      -1.856  11.671  23.463  0.00  0.00    +0.000 A 
ATOM     10  C   UNL     1      -3.046  12.249  23.033  0.00  0.00    +0.000 A 
ATOM     11 CL   UNL     1      -4.302  12.564  24.165  0.00  0.00    +0.000 Cl
ATOM     12  C   UNL     1      -3.245  12.530  21.685  0.00  0.00    +0.000 A 
ATOM     13  C   UNL     1      -2.254  12.215  20.745  0.00  0.00    +0.000 A 
ATOM     14 CL   UNL     1      -2.751  12.315  19.090  0.00  0.00    +0.000 Cl
ENDBRANCH   5   7
BRANCH   6  15
ATOM     15  C   UNL     1       0.965  13.780  19.799  0.00  0.00    +0.000 A 
ATOM     16  C   UNL     1       0.304  14.653  18.918  0.00  0.00    +0.000 A 
ATOM     17  C   UNL     1       0.464  16.043  19.018  0.00  0.00    +0.000 A 
ATOM     18  C   UNL     1       1.233  16.582  20.043  0.00  0.00    +0.000 A 
ATOM     19 CL   UNL     1       1.438  18.287  20.160  0.00  0.00    +0.000 Cl
ATOM     20  C   UNL     1       1.845  15.746  20.967  0.00  0.00    +0.000 A 
ATOM     21  C   UNL     1       1.721  14.356  20.836  0.00  0.00    +0.000 A 
ENDBRANCH   6  15
BRANCH   3  22
ATOM     22  C   UNL     1       1.841   8.876  18.489  0.00  0.00    +0.000 C 
ATOM     23  O   UNL     1       2.085   8.808  17.290  0.00  0.00    +0.000 OA
ATOM     24  N   UNL     1       1.985   7.823  19.379  0.00  0.00    +0.000 N 
ATOM     25  C   UNL     1       2.437   6.554  19.045  0.00  0.00    +0.000 C 
ATOM     26  O   UNL     1       2.883   6.251  17.941  0.00  0.00    +0.000 OA
ATOM     27  H   UNL     1       1.712   8.031  20.341  0.00  0.00    +0.000 HD
BRANCH  25  28
ATOM     28  C   UNL     1       2.418   5.532  20.189  0.00  0.00    +0.000 C 
ATOM     29  C   UNL     1       1.082   4.806  20.318  0.00  0.00    +0.000 C 
ATOM     30  C   UNL     1       1.404   3.546  21.117  0.00  0.00    +0.000 C 
ATOM     31  C   UNL     1       2.858   3.209  20.810  0.00  0.00    +0.000 C 
ATOM     32  C   UNL     1       3.398   4.368  19.978  0.00  0.00    +0.000 C 
ENDBRANCH  25  28
ENDBRANCH   3  22
TORSDOF 4
ENDMDL
MODEL 3
REMARK VINA RESULT:      -7.9      1.154      1.475
REMARK  Name = 
REMARK  5 active torsions:
REMARK  status: ('A' for Active; 'I' for Inactive)
REMARK    1  A    between atoms: C_1  and  C_2
REMARK    2  A    between atoms: C_3  and  C_4
REMARK    3  A    between atoms: C_7  and  C_9
REMARK    4  A    between atoms: N_15  and  C_16
REMARK    5  A    between atoms: C_24  and  C_25
REMARK                            x       y       z     vdW  Elec       q    Type
REMARK                         _______ _______ _______ _____ _____    ______ ____
ROOT
ATOM      1  C   UNL     1      -0.372   8.398  20.947  0.00  0.00    +0.000 C 
ATOM      2  C   UNL     1       0.331   9.560  20.327  0.00  0.00    +0.000 A 
ATOM      3  C   UNL     1       1.378   9.522  19.342  0.00  0.00    +0.000 A 
ATOM      4  N   UNL     1       1.712  10.770  18.965  0.00  0.00    +0.000 NA
ATOM      5  N   UNL     1       1.040  11.599  19.825  0.00  0.00    +0.000 N 
ATOM      6  C   UNL     1       0.071  10.913  20.567  0.00  0.00    +0.000 A 
ENDROOT
BRANCH   5   7
ATOM      7  C   UNL     1       1.358  12.991  19.798  0.00  0.00    +0.000 A 
ATOM      8  C   UNL     1       2.278  13.462  20.757  0.00  0.00    +0.000 A 
ATOM      9  C   UNL     1       2.672  14.803  20.767  0.00  0.00    +0.000 A 
ATOM     10  C   UNL     1       2.159  15.681  19.817  0.00  0.00    +0.000 A 
ATOM     11 CL   UNL     1       2.622  17.336  19.845  0.00  0.00    +0.000 Cl
ATOM     12  C   UNL     1       1.236  15.236  18.875  0.00  0.00    +0.000 A 
ATOM     13  C   UNL     1       0.802  13.904  18.887  0.00  0.00    +0.000 A 
ATOM     14 CL   UNL     1      -0.568  13.568  17.885  0.00  0.00    +0.000 Cl
ENDBRANCH   5   7
BRANCH   6  15
ATOM     15  C   UNL     1      -0.992  11.536  21.397  0.00  0.00    +0.000 A 
ATOM     16  C   UNL     1      -1.015  11.393  22.795  0.00  0.00    +0.000 A 
ATOM     17  C   UNL     1      -2.093  11.868  23.556  0.00  0.00    +0.000 A 
ATOM     18  C   UNL     1      -3.132  12.554  22.936  0.00  0.00    +0.000 A 
ATOM     19 CL   UNL     1      -4.461  13.129  23.866  0.00  0.00    +0.000 Cl
ATOM     20  C   UNL     1      -3.103  12.767  21.564  0.00  0.00    +0.000 A 
ATOM     21  C   UNL     1      -2.047  12.249  20.802  0.00  0.00    +0.000 A 
ENDBRANCH   6  15
BRANCH   3  22
ATOM     22  C   UNL     1       2.045   8.328  18.749  0.00  0.00    +0.000 C 
ATOM     23  O   UNL     1       2.449   8.338  17.591  0.00  0.00    +0.000 OA
ATOM     24  N   UNL     1       2.142   7.241  19.603  0.00  0.00    +0.000 N 
ATOM     25  C   UNL     1       2.718   6.021  19.279  0.00  0.00    +0.000 C 
ATOM     26  O   UNL     1       3.325   5.803  18.233  0.00  0.00    +0.000 OA
ATOM     27  H   UNL     1       1.732   7.382  20.528  0.00  0.00    +0.000 HD
BRANCH  25  28
ATOM     28  C   UNL     1       2.618   4.942  20.364  0.00  0.00    +0.000 C 
ATOM     29  C   UNL     1       1.197   4.419  20.558  0.00  0.00    +0.000 C 
ATOM     30  C   UNL     1       1.373   3.077  21.261  0.00  0.00    +0.000 C 
ATOM     31  C   UNL     1       2.732   2.544  20.825  0.00  0.00    +0.000 C 
ATOM     32  C   UNL     1       3.388   3.659  20.017  0.00  0.00    +0.000 C 
ENDBRANCH  25  28
ENDBRANCH   3  22
TORSDOF 4
ENDMDL
MODEL 4
REMARK VINA RESULT:      -7.8      2.504      3.411
REMARK  Name = 
REMARK  5 active torsions:
REMARK  status: ('A' for Active; 'I' for Inactive)
REMARK    1  A    between atoms: C_1  and  C_2
REMARK    2  A    between atoms: C_3  and  C_4
REMARK    3  A    between atoms: C_7  and  C_9
REMARK    4  A    between atoms: N_15  and  C_16
REMARK    5  A    between atoms: C_24  and  C_25
REMARK                            x       y       z     vdW  Elec       q    Type
REMARK                         _______ _______ _______ _____ _____    ______ ____
ROOT
ATOM      1  C   UNL     1      -1.437   9.487  16.953  0.00  0.00    +0.000 C 
ATOM      2  C   UNL     1      -0.890  10.282  18.092  0.00  0.00    +0.000 A 
ATOM      3  C   UNL     1       0.465  10.302  18.571  0.00  0.00    +0.000 A 
ATOM      4  N   UNL     1       0.599  11.198  19.566  0.00  0.00    +0.000 NA
ATOM      5  N   UNL     1      -0.677  11.605  19.858  0.00  0.00    +0.000 N 
ATOM      6  C   UNL     1      -1.596  11.193  18.886  0.00  0.00    +0.000 A 
ENDROOT
BRANCH   5   7
ATOM      7  C   UNL     1      -0.872  12.412  21.020  0.00  0.00    +0.000 A 
ATOM      8  C   UNL     1      -0.798  13.810  20.854  0.00  0.00    +0.000 A 
ATOM      9  C   UNL     1      -1.020  14.668  21.935  0.00  0.00    +0.000 A 
ATOM     10  C   UNL     1      -1.325  14.139  23.185  0.00  0.00    +0.000 A 
ATOM     11 CL   UNL     1      -1.572  15.192  24.522  0.00  0.00    +0.000 Cl
ATOM     12  C   UNL     1      -1.384  12.761  23.370  0.00  0.00    +0.000 A 
ATOM     13  C   UNL     1      -1.118  11.894  22.302  0.00  0.00    +0.000 A 
ATOM     14 CL   UNL     1      -0.909  10.232  22.738  0.00  0.00    +0.000 Cl
ENDBRANCH   5   7
BRANCH   6  15
ATOM     15  C   UNL     1      -2.998  11.665  18.758  0.00  0.00    +0.000 A 
ATOM     16  C   UNL     1      -3.698  12.204  19.852  0.00  0.00    +0.000 A 
ATOM     17  C   UNL     1      -5.061  12.521  19.758  0.00  0.00    +0.000 A 
ATOM     18  C   UNL     1      -5.728  12.366  18.547  0.00  0.00    +0.000 A 
ATOM     19 CL   UNL     1      -7.403  12.745  18.432  0.00  0.00    +0.000 Cl
ATOM     20  C   UNL     1      -5.045  11.897  17.432  0.00  0.00    +0.000 A 
ATOM     21  C   UNL     1      -3.695  11.537  17.544  0.00  0.00    +0.000 A 
ENDBRANCH   6  15
BRANCH   3  22
ATOM     22  C   UNL     1       1.627   9.501  18.089  0.00  0.00    +0.000 C 
ATOM     23  O   UNL     1       2.387   9.938  17.233  0.00  0.00    +0.000 OA
ATOM     24  N   UNL     1       1.743   8.249  18.674  0.00  0.00    +0.000 N 
ATOM     25  C   UNL     1       2.737   7.325  18.387  0.00  0.00    +0.000 C 
ATOM     26  O   UNL     1       3.708   7.557  17.671  0.00  0.00    +0.000 OA
ATOM     27  H   UNL     1       1.013   8.021  19.351  0.00  0.00    +0.000 HD
BRANCH  25  28
ATOM     28  C   UNL     1       2.596   5.972  19.097  0.00  0.00    +0.000 C 
ATOM     29  C   UNL     1       1.728   6.043  20.351  0.00  0.00    +0.000 C 
ATOM     30  C   UNL     1       1.306   4.600  20.610  0.00  0.00    +0.000 C 
ATOM     31  C   UNL     1       1.287   3.913  19.249  0.00  0.00    +0.000 C 
ATOM     32  C   UNL     1       1.860   4.919  18.256  0.00  0.00    +0.000 C 
ENDBRANCH  25  28
ENDBRANCH   3  22
TORSDOF 4
ENDMDL
MODEL 5
REMARK VINA RESULT:      -7.7      3.484      8.063
REMARK  Name = 
REMARK  5 active torsions:
REMARK  status: ('A' for Active; 'I' for Inactive)
REMARK    1  A    between atoms: C_1  and  C_2
REMARK    2  A    between atoms: C_3  and  C_4
REMARK    3  A    between atoms: C_7  and  C_9
REMARK    4  A    between atoms: N_15  and  C_16
REMARK    5  A    between atoms: C_24  and  C_25
REMARK                            x       y       z     vdW  Elec       q    Type
REMARK                         _______ _______ _______ _____ _____    ______ ____
ROOT
ATOM      1  C   UNL     1      -1.582  14.342  19.669  0.00  0.00    +0.000 C 
ATOM      2  C   UNL     1      -1.305  12.904  19.376  0.00  0.00    +0.000 A 
ATOM      3  C   UNL     1      -2.259  11.882  19.042  0.00  0.00    +0.000 A 
ATOM      4  N   UNL     1      -1.630  10.724  18.769  0.00  0.00    +0.000 NA
ATOM      5  N   UNL     1      -0.319  10.937  19.109  0.00  0.00    +0.000 N 
ATOM      6  C   UNL     1      -0.048  12.291  19.334  0.00  0.00    +0.000 A 
ENDROOT
BRANCH   5   7
ATOM      7  C   UNL     1       0.560   9.812  19.118  0.00  0.00    +0.000 A 
ATOM      8  C   UNL     1       1.160   9.452  17.894  0.00  0.00    +0.000 A 
ATOM      9  C   UNL     1       2.066   8.389  17.830  0.00  0.00    +0.000 A 
ATOM     10  C   UNL     1       2.386   7.684  18.986  0.00  0.00    +0.000 A 
ATOM     11 CL   UNL     1       3.479   6.360  18.905  0.00  0.00    +0.000 Cl
ATOM     12  C   UNL     1       1.789   8.015  20.200  0.00  0.00    +0.000 A 
ATOM     13  C   UNL     1       0.846   9.050  20.263  0.00  0.00    +0.000 A 
ATOM     14 CL   UNL     1      -0.047   9.142  21.742  0.00  0.00    +0.000 Cl
ENDBRANCH   5   7
BRANCH   6  15
ATOM     15  C   UNL     1       1.301  12.898  19.473  0.00  0.00    +0.000 A 
ATOM     16  C   UNL     1       1.854  13.186  20.733  0.00  0.00    +0.000 A 
ATOM     17  C   UNL     1       3.067  13.880  20.852  0.00  0.00    +0.000 A 
ATOM     18  C   UNL     1       3.778  14.237  19.711  0.00  0.00    +0.000 A 
ATOM     19 CL   UNL     1       5.261  15.098  19.855  0.00  0.00    +0.000 Cl
ATOM     20  C   UNL     1       3.287  13.907  18.454  0.00  0.00    +0.000 A 
ATOM     21  C   UNL     1       2.052  13.255  18.339  0.00  0.00    +0.000 A 
ENDBRANCH   6  15
BRANCH   3  22
ATOM     22  C   UNL     1      -3.744  11.994  18.964  0.00  0.00    +0.000 C 
ATOM     23  O   UNL     1      -4.344  11.756  17.922  0.00  0.00    +0.000 OA
ATOM     24  N   UNL     1      -4.352  12.398  20.143  0.00  0.00    +0.000 N 
ATOM     25  C   UNL     1      -5.716  12.577  20.315  0.00  0.00    +0.000 C 
ATOM     26  O   UNL     1      -6.562  12.274  19.476  0.00  0.00    +0.000 OA
ATOM     27  H   UNL     1      -3.710  12.586  20.916  0.00  0.00    +0.000 HD
BRANCH  25  28
ATOM     28  C   UNL     1      -6.137  13.122  21.686  0.00  0.00    +0.000 C 
ATOM     29  C   UNL     1      -7.304  12.354  22.301  0.00  0.00    +0.000 C 
ATOM     30  C   UNL     1      -7.243  12.686  23.789  0.00  0.00    +0.000 C 
ATOM     31  C   UNL     1      -5.778  12.974  24.100  0.00  0.00    +0.000 C 
ATOM     32  C   UNL     1      -5.050  12.969  22.759  0.00  0.00    +0.000 C 
ENDBRANCH  25  28
ENDBRANCH   3  22
TORSDOF 4
ENDMDL
MODEL 6
REMARK VINA RESULT:      -7.6      2.791      3.878
REMARK  Name = 
REMARK  5 active torsions:
REMARK  status: ('A' for Active; 'I' for Inactive)
REMARK    1  A    between atoms: C_1  and  C_2
REMARK    2  A    between atoms: C_3  and  C_4
REMARK    3  A    between atoms: C_7  and  C_9
REMARK    4  A    between atoms: N_15  and  C_16
REMARK    5  A    between atoms: C_24  and  C_25
REMARK                            x       y       z     vdW  Elec       q    Type
REMARK                         _______ _______ _______ _____ _____    ______ ____
ROOT
ATOM      1  C   UNL     1       1.434  11.448  20.950  0.00  0.00    +0.000 C 
ATOM      2  C   UNL     1       0.292  11.163  20.031  0.00  0.00    +0.000 A 
ATOM      3  C   UNL     1       0.294  10.303  18.879  0.00  0.00    +0.000 A 
ATOM      4  N   UNL     1      -0.940  10.233  18.344  0.00  0.00    +0.000 NA
ATOM      5  N   UNL     1      -1.676  11.177  19.012  0.00  0.00    +0.000 N 
ATOM      6  C   UNL     1      -1.012  11.654  20.147  0.00  0.00    +0.000 A 
ENDROOT
BRANCH   5   7
ATOM      7  C   UNL     1      -2.983  11.476  18.520  0.00  0.00    +0.000 A 
ATOM      8  C   UNL     1      -3.930  11.951  19.450  0.00  0.00    +0.000 A 
ATOM      9  C   UNL     1      -5.217  12.306  19.038  0.00  0.00    +0.000 A 
ATOM     10  C   UNL     1      -5.567  12.198  17.696  0.00  0.00    +0.000 A 
ATOM     11 CL   UNL     1      -7.158  12.609  17.191  0.00  0.00    +0.000 Cl
ATOM     12  C   UNL     1      -4.650  11.714  16.767  0.00  0.00    +0.000 A 
ATOM     13  C   UNL     1      -3.372  11.313  17.180  0.00  0.00    +0.000 A 
ATOM     14 CL   UNL     1      -2.457  10.440  15.999  0.00  0.00    +0.000 Cl
ENDBRANCH   5   7
BRANCH   6  15
ATOM     15  C   UNL     1      -1.614  12.485  21.222  0.00  0.00    +0.000 A 
ATOM     16  C   UNL     1      -2.106  11.913  22.409  0.00  0.00    +0.000 A 
ATOM     17  C   UNL     1      -2.793  12.685  23.357  0.00  0.00    +0.000 A 
ATOM     18  C   UNL     1      -2.938  14.055  23.163  0.00  0.00    +0.000 A 
ATOM     19 CL   UNL     1      -3.789  15.003  24.320  0.00  0.00    +0.000 Cl
ATOM     20  C   UNL     1      -2.405  14.658  22.032  0.00  0.00    +0.000 A 
ATOM     21  C   UNL     1      -1.760  13.875  21.065  0.00  0.00    +0.000 A 
ENDBRANCH   6  15
BRANCH   3  22
ATOM     22  C   UNL     1       1.435   9.541  18.296  0.00  0.00    +0.000 C 
ATOM     23  O   UNL     1       2.113  10.010  17.388  0.00  0.00    +0.000 OA
ATOM     24  N   UNL     1       1.632   8.287  18.853  0.00  0.00    +0.000 N 
ATOM     25  C   UNL     1       2.625   7.395  18.476  0.00  0.00    +0.000 C 
ATOM     26  O   UNL     1       3.529   7.664  17.688  0.00  0.00    +0.000 OA
ATOM     27  H   UNL     1       0.964   8.030  19.582  0.00  0.00    +0.000 HD
BRANCH  25  28
ATOM     28  C   UNL     1       2.579   6.030  19.176  0.00  0.00    +0.000 C 
ATOM     29  C   UNL     1       1.682   6.024  20.410  0.00  0.00    +0.000 C 
ATOM     30  C   UNL     1       1.371   4.550  20.653  0.00  0.00    +0.000 C 
ATOM     31  C   UNL     1       1.437   3.872  19.290  0.00  0.00    +0.000 C 
ATOM     32  C   UNL     1       1.948   4.927  18.314  0.00  0.00    +0.000 C 
ENDBRANCH  25  28
ENDBRANCH   3  22
TORSDOF 4
ENDMDL
MODEL 7
REMARK VINA RESULT:      -7.6      2.430      3.518
REMARK  Name = 
REMARK  5 active torsions:
REMARK  status: ('A' for Active; 'I' for Inactive)
REMARK    1  A    between atoms: C_1  and  C_2
REMARK    2  A    between atoms: C_3  and  C_4
REMARK    3  A    between atoms: C_7  and  C_9
REMARK    4  A    between atoms: N_15  and  C_16
REMARK    5  A    between atoms: C_24  and  C_25
REMARK                            x       y       z     vdW  Elec       q    Type
REMARK                         _______ _______ _______ _____ _____    ______ ____
ROOT
ATOM      1  C   UNL     1      -1.542   9.496  17.029  0.00  0.00    +0.000 C 
ATOM      2  C   UNL     1      -1.000  10.332  18.141  0.00  0.00    +0.000 A 
ATOM      3  C   UNL     1       0.362  10.400  18.597  0.00  0.00    +0.000 A 
ATOM      4  N   UNL     1       0.485  11.322  19.570  0.00  0.00    +0.000 NA
ATOM      5  N   UNL     1      -0.797  11.699  19.874  0.00  0.00    +0.000 N 
ATOM      6  C   UNL     1      -1.718  11.240  18.926  0.00  0.00    +0.000 A 
ENDROOT
BRANCH   5   7
ATOM      7  C   UNL     1      -0.997  12.527  21.020  0.00  0.00    +0.000 A 
ATOM      8  C   UNL     1      -1.378  11.889  22.218  0.00  0.00    +0.000 A 
ATOM      9  C   UNL     1      -1.551  12.625  23.393  0.00  0.00    +0.000 A 
ATOM     10  C   UNL     1      -1.337  14.000  23.384  0.00  0.00    +0.000 A 
ATOM     11 CL   UNL     1      -1.576  14.912  24.823  0.00  0.00    +0.000 Cl
ATOM     12  C   UNL     1      -0.978  14.648  22.206  0.00  0.00    +0.000 A 
ATOM     13  C   UNL     1      -0.847  13.923  21.014  0.00  0.00    +0.000 A 
ATOM     14 CL   UNL     1      -0.717  14.883  19.580  0.00  0.00    +0.000 Cl
ENDBRANCH   5   7
BRANCH   6  15
ATOM     15  C   UNL     1      -3.136  11.669  18.810  0.00  0.00    +0.000 A 
ATOM     16  C   UNL     1      -3.877  11.461  17.633  0.00  0.00    +0.000 A 
ATOM     17  C   UNL     1      -5.167  11.988  17.485  0.00  0.00    +0.000 A 
ATOM     18  C   UNL     1      -5.763  12.675  18.538  0.00  0.00    +0.000 A 
ATOM     19 CL   UNL     1      -7.343  13.332  18.354  0.00  0.00    +0.000 Cl
ATOM     20  C   UNL     1      -5.079  12.839  19.735  0.00  0.00    +0.000 A 
ATOM     21  C   UNL     1      -3.772  12.351  19.863  0.00  0.00    +0.000 A 
ENDBRANCH   6  15
BRANCH   3  22
ATOM     22  C   UNL     1       1.538   9.621  18.114  0.00  0.00    +0.000 C 
ATOM     23  O   UNL     1       2.280  10.066  17.245  0.00  0.00    +0.000 OA
ATOM     24  N   UNL     1       1.691   8.381  18.714  0.00  0.00    +0.000 N 
ATOM     25  C   UNL     1       2.704   7.478  18.429  0.00  0.00    +0.000 C 
ATOM     26  O   UNL     1       3.662   7.724  17.700  0.00  0.00    +0.000 OA
ATOM     27  H   UNL     1       0.973   8.144  19.401  0.00  0.00    +0.000 HD
BRANCH  25  28
ATOM     28  C   UNL     1       2.603   6.131  19.158  0.00  0.00    +0.000 C 
ATOM     29  C   UNL     1       1.668   6.173  20.363  0.00  0.00    +0.000 C 
ATOM     30  C   UNL     1       1.315   4.713  20.629  0.00  0.00    +0.000 C 
ATOM     31  C   UNL     1       1.408   4.002  19.283  0.00  0.00    +0.000 C 
ATOM     32  C   UNL     1       1.974   5.023  18.301  0.00  0.00    +0.000 C 
ENDBRANCH  25  28
ENDBRANCH   3  22
TORSDOF 4
ENDMDL
MODEL 8
REMARK VINA RESULT:      -7.6      2.436      3.452
REMARK  Name = 
REMARK  5 active torsions:
REMARK  status: ('A' for Active; 'I' for Inactive)
REMARK    1  A    between atoms: C_1  and  C_2
REMARK    2  A    between atoms: C_3  and  C_4
REMARK    3  A    between atoms: C_7  and  C_9
REMARK    4  A    between atoms: N_15  and  C_16
REMARK    5  A    between atoms: C_24  and  C_25
REMARK                            x       y       z     vdW  Elec       q    Type
REMARK                         _______ _______ _______ _____ _____    ______ ____
ROOT
ATOM      1  C   UNL     1      -1.527   9.583  17.031  0.00  0.00    +0.000 C 
ATOM      2  C   UNL     1      -0.982  10.408  18.150  0.00  0.00    +0.000 A 
ATOM      3  C   UNL     1       0.376  10.453  18.620  0.00  0.00    +0.000 A 
ATOM      4  N   UNL     1       0.505  11.371  19.595  0.00  0.00    +0.000 NA
ATOM      5  N   UNL     1      -0.774  11.769  19.887  0.00  0.00    +0.000 N 
ATOM      6  C   UNL     1      -1.694  11.326  18.929  0.00  0.00    +0.000 A 
ENDROOT
BRANCH   5   7
ATOM      7  C   UNL     1      -0.972  12.598  21.033  0.00  0.00    +0.000 A 
ATOM      8  C   UNL     1      -1.350  11.961  22.233  0.00  0.00    +0.000 A 
ATOM      9  C   UNL     1      -1.521  12.699  23.407  0.00  0.00    +0.000 A 
ATOM     10  C   UNL     1      -1.308  14.074  23.396  0.00  0.00    +0.000 A 
ATOM     11 CL   UNL     1      -1.543  14.987  24.834  0.00  0.00    +0.000 Cl
ATOM     12  C   UNL     1      -0.952  14.721  22.217  0.00  0.00    +0.000 A 
ATOM     13  C   UNL     1      -0.823  13.994  21.025  0.00  0.00    +0.000 A 
ATOM     14 CL   UNL     1      -0.697  14.953  19.590  0.00  0.00    +0.000 Cl
ENDBRANCH   5   7
BRANCH   6  15
ATOM     15  C   UNL     1      -3.103  11.779  18.800  0.00  0.00    +0.000 A 
ATOM     16  C   UNL     1      -3.779  12.400  19.865  0.00  0.00    +0.000 A 
ATOM     17  C   UNL     1      -5.145  12.701  19.781  0.00  0.00    +0.000 A 
ATOM     18  C   UNL     1      -5.842  12.447  18.604  0.00  0.00    +0.000 A 
ATOM     19 CL   UNL     1      -7.521  12.806  18.502  0.00  0.00    +0.000 Cl
ATOM     20  C   UNL     1      -5.184  11.894  17.513  0.00  0.00    +0.000 A 
ATOM     21  C   UNL     1      -3.829  11.552  17.618  0.00  0.00    +0.000 A 
ENDBRANCH   6  15
BRANCH   3  22
ATOM     22  C   UNL     1       1.544   9.656  18.147  0.00  0.00    +0.000 C 
ATOM     23  O   UNL     1       2.356  10.127  17.360  0.00  0.00    +0.000 OA
ATOM     24  N   UNL     1       1.604   8.368  18.658  0.00  0.00    +0.000 N 
ATOM     25  C   UNL     1       2.592   7.440  18.363  0.00  0.00    +0.000 C 
ATOM     26  O   UNL     1       3.603   7.693  17.712  0.00  0.00    +0.000 OA
ATOM     27  H   UNL     1       0.835   8.116  19.281  0.00  0.00    +0.000 HD
BRANCH  25  28
ATOM     28  C   UNL     1       2.387   6.049  18.979  0.00  0.00    +0.000 C 
ATOM     29  C   UNL     1       2.023   4.988  17.944  0.00  0.00    +0.000 C 
ATOM     30  C   UNL     1       2.349   3.661  18.623  0.00  0.00    +0.000 C 
ATOM     31  C   UNL     1       3.476   3.953  19.607  0.00  0.00    +0.000 C 
ATOM     32  C   UNL     1       3.663   5.467  19.602  0.00  0.00    +0.000 C 
ENDBRANCH  25  28
ENDBRANCH   3  22
TORSDOF 4
ENDMDL
MODEL 9
REMARK VINA RESULT:      -7.5      1.356      1.901
REMARK  Name = 
REMARK  5 active torsions:
REMARK  status: ('A' for Active; 'I' for Inactive)
REMARK    1  A    between atoms: C_1  and  C_2
REMARK    2  A    between atoms: C_3  and  C_4
REMARK    3  A    between atoms: C_7  and  C_9
REMARK    4  A    between atoms: N_15  and  C_16
REMARK    5  A    between atoms: C_24  and  C_25
REMARK                            x       y       z     vdW  Elec       q    Type
REMARK                         _______ _______ _______ _____ _____    ______ ____
ROOT
ATOM      1  C   UNL     1       0.153   8.071  20.543  0.00  0.00    +0.000 C 
ATOM      2  C   UNL     1       0.723   9.317  19.953  0.00  0.00    +0.000 A 
ATOM      3  C   UNL     1       1.705   9.418  18.907  0.00  0.00    +0.000 A 
ATOM      4  N   UNL     1       1.916  10.707  18.584  0.00  0.00    +0.000 NA
ATOM      5  N   UNL     1       1.239  11.432  19.530  0.00  0.00    +0.000 N 
ATOM      6  C   UNL     1       0.375  10.630  20.286  0.00  0.00    +0.000 A 
ENDROOT
BRANCH   5   7
ATOM      7  C   UNL     1       1.445  12.844  19.565  0.00  0.00    +0.000 A 
ATOM      8  C   UNL     1       2.393  13.335  20.486  0.00  0.00    +0.000 A 
ATOM      9  C   UNL     1       2.682  14.701  20.550  0.00  0.00    +0.000 A 
ATOM     10  C   UNL     1       2.035  15.585  19.693  0.00  0.00    +0.000 A 
ATOM     11 CL   UNL     1       2.369  17.269  19.789  0.00  0.00    +0.000 Cl
ATOM     12  C   UNL     1       1.082  15.120  18.791  0.00  0.00    +0.000 A 
ATOM     13  C   UNL     1       0.755  13.757  18.752  0.00  0.00    +0.000 A 
ATOM     14 CL   UNL     1      -0.655  13.367  17.827  0.00  0.00    +0.000 Cl
ENDBRANCH   5   7
BRANCH   6  15
ATOM     15  C   UNL     1      -0.678  11.120  21.212  0.00  0.00    +0.000 A 
ATOM     16  C   UNL     1      -1.732  11.938  20.767  0.00  0.00    +0.000 A 
ATOM     17  C   UNL     1      -2.643  12.504  21.669  0.00  0.00    +0.000 A 
ATOM     18  C   UNL     1      -2.554  12.206  23.025  0.00  0.00    +0.000 A 
ATOM     19 CL   UNL     1      -3.665  12.909  24.136  0.00  0.00    +0.000 Cl
ATOM     20  C   UNL     1      -1.563  11.350  23.485  0.00  0.00    +0.000 A 
ATOM     21  C   UNL     1      -0.626  10.822  22.586  0.00  0.00    +0.000 A 
ENDBRANCH   6  15
BRANCH   3  22
ATOM     22  C   UNL     1       2.424   8.316  18.205  0.00  0.00    +0.000 C 
ATOM     23  O   UNL     1       3.013   8.514  17.149  0.00  0.00    +0.000 OA
ATOM     24  N   UNL     1       2.344   7.085  18.838  0.00  0.00    +0.000 N 
ATOM     25  C   UNL     1       2.927   5.913  18.378  0.00  0.00    +0.000 C 
ATOM     26  O   UNL     1       3.692   5.856  17.418  0.00  0.00    +0.000 OA
ATOM     27  H   UNL     1       1.791   7.078  19.698  0.00  0.00    +0.000 HD
BRANCH  25  28
ATOM     28  C   UNL     1       2.616   4.659  19.206  0.00  0.00    +0.000 C 
ATOM     29  C   UNL     1       2.160   4.980  20.626  0.00  0.00    +0.000 C 
ATOM     30  C   UNL     1       1.445   3.717  21.097  0.00  0.00    +0.000 C 
ATOM     31  C   UNL     1       0.886   3.054  19.843  0.00  0.00    +0.000 C 
ATOM     32  C   UNL     1       1.429   3.852  18.662  0.00  0.00    +0.000 C 
ENDBRANCH  25  28
ENDBRANCH   3  22
TORSDOF 4
ENDMDL
