MODEL 1
REMARK VINA RESULT:      -8.0      0.000      0.000
REMARK  Name = 
REMARK  9 active torsions:
REMARK  status: ('A' for Active; 'I' for Inactive)
REMARK    1  A    between atoms: C_1  and  C_2
REMARK    2  A    between atoms: C_7  and  S_8
REMARK    3  A    between atoms: S_8  and  N_11
REMARK    4  A    between atoms: C_12  and  C_13
REMARK    5  A    between atoms: C_15  and  C_16
REMARK    6  A    between atoms: C_19  and  C_20
REMARK    7  A    between atoms: C_21  and  C_22
REMARK    8  A    between atoms: C_29  and  C_30
REMARK    9  A    between atoms: C_30  and  O_31
REMARK                            x       y       z     vdW  Elec       q    Type
REMARK                         _______ _______ _______ _____ _____    ______ ____
ROOT
ATOM      1  N   UNL     1       4.766   3.543  17.481  0.00  0.00    +0.000 NA
ATOM      2  C   UNL     1       4.955   4.874  18.151  0.00  0.00    +0.000 C 
ATOM      3  C   UNL     1       6.380   4.934  17.516  0.00  0.00    +0.000 C 
ATOM      4  C   UNL     1       5.762   3.989  16.390  0.00  0.00    +0.000 C 
ENDROOT
BRANCH   3   5
ATOM      5  C   UNL     1       7.189   6.350  17.700  0.00  0.00    +0.000 A 
ATOM      6  C   UNL     1       8.015   6.439  18.859  0.00  0.00    +0.000 A 
ATOM      7  C   UNL     1       8.662   7.610  19.307  0.00  0.00    +0.000 A 
ATOM      8  C   UNL     1       8.545   8.806  18.605  0.00  0.00    +0.000 A 
ATOM      9  C   UNL     1       7.749   8.768  17.446  0.00  0.00    +0.000 A 
ATOM     10  C   UNL     1       7.092   7.563  16.999  0.00  0.00    +0.000 A 
BRANCH   8  11
ATOM     11  C   UNL     1       9.196  10.019  19.105  0.00  0.00    +0.000 C 
ATOM     12  C   UNL     1       9.820  10.977  19.531  0.00  0.00    +0.000 C 
BRANCH  12  13
ATOM     13  C   UNL     1      10.711  12.038  20.046  0.00  0.00    +0.000 C 
ATOM     14  C   UNL     1      11.397  12.846  18.945  0.00  0.00    +0.000 C 
ATOM     15  C   UNL     1      11.967  14.042  19.699  0.00  0.00    +0.000 C 
ATOM     16  C   UNL     1      10.908  14.375  20.745  0.00  0.00    +0.000 C 
ATOM     17  C   UNL     1      10.012  13.133  20.860  0.00  0.00    +0.000 C 
ENDBRANCH  12  13
ENDBRANCH   8  11
ENDBRANCH   3   5
BRANCH   1  18
ATOM     18  S   UNL     1       3.336   2.664  17.507  0.00  0.00    +0.000 S 
ATOM     19  O   UNL     1       3.666   1.259  17.410  0.00  0.00    +0.000 OA
ATOM     20  O   UNL     1       2.451   3.285  16.552  0.00  0.00    +0.000 OA
BRANCH  18  27
ATOM     21  C   UNL     1       4.658   1.815  20.422  0.00  0.00    +0.000 C 
ATOM     22  C   UNL     1       3.348   2.550  20.360  0.00  0.00    +0.000 A 
ATOM     23  C   UNL     1       2.739   2.853  21.598  0.00  0.00    +0.000 A 
ATOM     24  C   UNL     1       1.557   3.587  21.666  0.00  0.00    +0.000 A 
ATOM     25  C   UNL     1       0.953   4.029  20.496  0.00  0.00    +0.000 A 
ATOM     26  C   UNL     1       1.515   3.714  19.255  0.00  0.00    +0.000 A 
ATOM     27  C   UNL     1       2.700   2.958  19.171  0.00  0.00    +0.000 A 
ENDBRANCH  18  27
ENDBRANCH   1  18
BRANCH   2  28
ATOM     28  C   UNL     1       4.050   5.925  17.700  0.00  0.00    +0.000 C 
ATOM     29  N   UNL     1       3.377   6.775  17.282  0.00  0.00    +0.000 NA
ENDBRANCH   2  28
BRANCH   4  30
ATOM     30  C   UNL     1       5.102   4.272  15.032  0.00  0.00    +0.000 C 
BRANCH  30  31
ATOM     31  O   UNL     1       5.972   3.868  13.964  0.00  0.00    +0.000 OA
ATOM     32  H   UNL     1       6.674   3.280  14.320  0.00  0.00    +0.000 HD
ENDBRANCH  30  31
ENDBRANCH   4  30
TORSDOF 8
ENDMDL
MODEL 2
REMARK VINA RESULT:      -7.8      0.852      1.323
REMARK  Name = 
REMARK  9 active torsions:
REMARK  status: ('A' for Active; 'I' for Inactive)
REMARK    1  A    between atoms: C_1  and  C_2
REMARK    2  A    between atoms: C_7  and  S_8
REMARK    3  A    between atoms: S_8  and  N_11
REMARK    4  A    between atoms: C_12  and  C_13
REMARK    5  A    between atoms: C_15  and  C_16
REMARK    6  A    between atoms: C_19  and  C_20
REMARK    7  A    between atoms: C_21  and  C_22
REMARK    8  A    between atoms: C_29  and  C_30
REMARK    9  A    between atoms: C_30  and  O_31
REMARK                            x       y       z     vdW  Elec       q    Type
REMARK                         _______ _______ _______ _____ _____    ______ ____
ROOT
ATOM      1  N   UNL     1       4.786   3.583  17.633  0.00  0.00    +0.000 NA
ATOM      2  C   UNL     1       4.925   4.835  18.451  0.00  0.00    +0.000 C 
ATOM      3  C   UNL     1       6.347   5.018  17.835  0.00  0.00    +0.000 C 
ATOM      4  C   UNL     1       5.766   4.185  16.605  0.00  0.00    +0.000 C 
ENDROOT
BRANCH   3   5
ATOM      5  C   UNL     1       7.104   6.432  18.183  0.00  0.00    +0.000 A 
ATOM      6  C   UNL     1       6.834   7.510  17.287  0.00  0.00    +0.000 A 
ATOM      7  C   UNL     1       7.499   8.754  17.290  0.00  0.00    +0.000 A 
ATOM      8  C   UNL     1       8.497   9.030  18.220  0.00  0.00    +0.000 A 
ATOM      9  C   UNL     1       8.793   8.004  19.134  0.00  0.00    +0.000 A 
ATOM     10  C   UNL     1       8.105   6.734  19.120  0.00  0.00    +0.000 A 
BRANCH   8  11
ATOM     11  C   UNL     1       9.198  10.315  18.185  0.00  0.00    +0.000 C 
ATOM     12  C   UNL     1       9.852  11.342  18.107  0.00  0.00    +0.000 C 
BRANCH  12  13
ATOM     13  C   UNL     1      10.752  12.499  17.915  0.00  0.00    +0.000 C 
ATOM     14  C   UNL     1      10.018  13.838  17.847  0.00  0.00    +0.000 C 
ATOM     15  C   UNL     1      11.145  14.856  17.984  0.00  0.00    +0.000 C 
ATOM     16  C   UNL     1      12.105  14.232  18.991  0.00  0.00    +0.000 C 
ATOM     17  C   UNL     1      11.752  12.738  19.052  0.00  0.00    +0.000 C 
ENDBRANCH  12  13
ENDBRANCH   8  11
ENDBRANCH   3   5
BRANCH   1  18
ATOM     18  S   UNL     1       3.388   2.656  17.552  0.00  0.00    +0.000 S 
ATOM     19  O   UNL     1       3.773   1.270  17.388  0.00  0.00    +0.000 OA
ATOM     20  O   UNL     1       2.518   3.301  16.599  0.00  0.00    +0.000 OA
BRANCH  18  27
ATOM     21  C   UNL     1       4.691   1.814  20.477  0.00  0.00    +0.000 C 
ATOM     22  C   UNL     1       3.324   2.434  20.397  0.00  0.00    +0.000 A 
ATOM     23  C   UNL     1       2.654   2.636  21.624  0.00  0.00    +0.000 A 
ATOM     24  C   UNL     1       1.410   3.262  21.679  0.00  0.00    +0.000 A 
ATOM     25  C   UNL     1       0.805   3.694  20.506  0.00  0.00    +0.000 A 
ATOM     26  C   UNL     1       1.430   3.476  19.273  0.00  0.00    +0.000 A 
ATOM     27  C   UNL     1       2.679   2.830  19.203  0.00  0.00    +0.000 A 
ENDBRANCH  18  27
ENDBRANCH   1  18
BRANCH   2  28
ATOM     28  C   UNL     1       3.982   5.897  18.118  0.00  0.00    +0.000 C 
ATOM     29  N   UNL     1       3.293   6.789  17.838  0.00  0.00    +0.000 NA
ENDBRANCH   2  28
BRANCH   4  30
ATOM     30  C   UNL     1       5.098   4.598  15.285  0.00  0.00    +0.000 C 
BRANCH  30  31
ATOM     31  O   UNL     1       5.989   5.416  14.513  0.00  0.00    +0.000 OA
ATOM     32  H   UNL     1       5.469   5.967  13.889  0.00  0.00    +0.000 HD
ENDBRANCH  30  31
ENDBRANCH   4  30
TORSDOF 8
ENDMDL
MODEL 3
REMARK VINA RESULT:      -7.7      7.915     10.531
REMARK  Name = 
REMARK  9 active torsions:
REMARK  status: ('A' for Active; 'I' for Inactive)
REMARK    1  A    between atoms: C_1  and  C_2
REMARK    2  A    between atoms: C_7  and  S_8
REMARK    3  A    between atoms: S_8  and  N_11
REMARK    4  A    between atoms: C_12  and  C_13
REMARK    5  A    between atoms: C_15  and  C_16
REMARK    6  A    between atoms: C_19  and  C_20
REMARK    7  A    between atoms: C_21  and  C_22
REMARK    8  A    between atoms: C_29  and  C_30
REMARK    9  A    between atoms: C_30  and  O_31
REMARK                            x       y       z     vdW  Elec       q    Type
REMARK                         _______ _______ _______ _____ _____    ______ ____
ROOT
ATOM      1  N   UNL     1      -1.304  12.255  20.944  0.00  0.00    +0.000 NA
ATOM      2  C   UNL     1       0.010  11.578  21.213  0.00  0.00    +0.000 C 
ATOM      3  C   UNL     1      -0.393  10.493  20.165  0.00  0.00    +0.000 C 
ATOM      4  C   UNL     1      -1.288  11.648  19.526  0.00  0.00    +0.000 C 
ENDROOT
BRANCH   3   5
ATOM      5  C   UNL     1       0.772   9.407  19.771  0.00  0.00    +0.000 A 
ATOM      6  C   UNL     1       1.208   9.441  18.412  0.00  0.00    +0.000 A 
ATOM      7  C   UNL     1       2.067   8.496  17.812  0.00  0.00    +0.000 A 
ATOM      8  C   UNL     1       2.582   7.430  18.543  0.00  0.00    +0.000 A 
ATOM      9  C   UNL     1       2.192   7.359  19.893  0.00  0.00    +0.000 A 
ATOM     10  C   UNL     1       1.312   8.332  20.495  0.00  0.00    +0.000 A 
BRANCH   8  11
ATOM     11  C   UNL     1       3.445   6.442  17.893  0.00  0.00    +0.000 C 
ATOM     12  C   UNL     1       4.226   5.689  17.334  0.00  0.00    +0.000 C 
BRANCH  12  13
ATOM     13  C   UNL     1       5.276   4.911  16.644  0.00  0.00    +0.000 C 
ATOM     14  C   UNL     1       4.847   4.389  15.272  0.00  0.00    +0.000 C 
ATOM     15  C   UNL     1       6.162   3.933  14.651  0.00  0.00    +0.000 C 
ATOM     16  C   UNL     1       7.184   4.968  15.112  0.00  0.00    +0.000 C 
ATOM     17  C   UNL     1       6.548   5.695  16.307  0.00  0.00    +0.000 C 
ENDBRANCH  12  13
ENDBRANCH   8  11
ENDBRANCH   3   5
BRANCH   1  18
ATOM     18  S   UNL     1      -1.764  13.725  21.611  0.00  0.00    +0.000 S 
ATOM     19  O   UNL     1      -1.981  14.664  20.532  0.00  0.00    +0.000 OA
ATOM     20  O   UNL     1      -0.823  14.014  22.666  0.00  0.00    +0.000 OA
BRANCH  18  27
ATOM     21  C   UNL     1      -4.652  13.125  20.106  0.00  0.00    +0.000 C 
ATOM     22  C   UNL     1      -4.554  13.120  21.607  0.00  0.00    +0.000 A 
ATOM     23  C   UNL     1      -5.745  12.840  22.312  0.00  0.00    +0.000 A 
ATOM     24  C   UNL     1      -5.761  12.744  23.702  0.00  0.00    +0.000 A 
ATOM     25  C   UNL     1      -4.586  12.932  24.419  0.00  0.00    +0.000 A 
ATOM     26  C   UNL     1      -3.399  13.245  23.748  0.00  0.00    +0.000 A 
ATOM     27  C   UNL     1      -3.373  13.362  22.346  0.00  0.00    +0.000 A 
ENDBRANCH  18  27
ENDBRANCH   1  18
BRANCH   2  28
ATOM     28  C   UNL     1       1.190  12.356  20.851  0.00  0.00    +0.000 C 
ATOM     29  N   UNL     1       2.085  13.015  20.515  0.00  0.00    +0.000 NA
ENDBRANCH   2  28
BRANCH   4  30
ATOM     30  C   UNL     1      -1.030  12.679  18.418  0.00  0.00    +0.000 C 
BRANCH  30  31
ATOM     31  O   UNL     1      -1.627  12.244  17.187  0.00  0.00    +0.000 OA
ATOM     32  H   UNL     1      -1.279  11.356  16.952  0.00  0.00    +0.000 HD
ENDBRANCH  30  31
ENDBRANCH   4  30
TORSDOF 8
ENDMDL
MODEL 4
REMARK VINA RESULT:      -7.6      5.570      8.250
REMARK  Name = 
REMARK  9 active torsions:
REMARK  status: ('A' for Active; 'I' for Inactive)
REMARK    1  A    between atoms: C_1  and  C_2
REMARK    2  A    between atoms: C_7  and  S_8
REMARK    3  A    between atoms: S_8  and  N_11
REMARK    4  A    between atoms: C_12  and  C_13
REMARK    5  A    between atoms: C_15  and  C_16
REMARK    6  A    between atoms: C_19  and  C_20
REMARK    7  A    between atoms: C_21  and  C_22
REMARK    8  A    between atoms: C_29  and  C_30
REMARK    9  A    between atoms: C_30  and  O_31
REMARK                            x       y       z     vdW  Elec       q    Type
REMARK                         _______ _______ _______ _____ _____    ______ ____
ROOT
ATOM      1  N   UNL     1       3.833   5.293  18.483  0.00  0.00    +0.000 NA
ATOM      2  C   UNL     1       3.449   5.922  19.791  0.00  0.00    +0.000 C 
ATOM      3  C   UNL     1       2.507   6.879  18.996  0.00  0.00    +0.000 C 
ATOM      4  C   UNL     1       2.457   5.703  17.919  0.00  0.00    +0.000 C 
ENDROOT
BRANCH   3   5
ATOM      5  C   UNL     1       1.523   7.833  19.898  0.00  0.00    +0.000 A 
ATOM      6  C   UNL     1       1.184   9.091  19.316  0.00  0.00    +0.000 A 
ATOM      7  C   UNL     1       0.500  10.133  19.976  0.00  0.00    +0.000 A 
ATOM      8  C   UNL     1       0.076   9.990  21.294  0.00  0.00    +0.000 A 
ATOM      9  C   UNL     1       0.376   8.762  21.910  0.00  0.00    +0.000 A 
ATOM     10  C   UNL     1       1.077   7.703  21.224  0.00  0.00    +0.000 A 
BRANCH   8  11
ATOM     11  C   UNL     1      -0.603  11.096  21.972  0.00  0.00    +0.000 C 
ATOM     12  C   UNL     1      -1.171  11.963  22.616  0.00  0.00    +0.000 C 
BRANCH  12  13
ATOM     13  C   UNL     1      -1.841  12.912  23.530  0.00  0.00    +0.000 C 
ATOM     14  C   UNL     1      -1.843  14.353  23.020  0.00  0.00    +0.000 C 
ATOM     15  C   UNL     1      -2.847  15.042  23.936  0.00  0.00    +0.000 C 
ATOM     16  C   UNL     1      -3.941  14.001  24.158  0.00  0.00    +0.000 C 
ATOM     17  C   UNL     1      -3.334  12.649  23.756  0.00  0.00    +0.000 C 
ENDBRANCH  12  13
ENDBRANCH   8  11
ENDBRANCH   3   5
BRANCH   1  18
ATOM     18  S   UNL     1       4.835   3.953  18.335  0.00  0.00    +0.000 S 
ATOM     19  O   UNL     1       4.006   2.792  18.093  0.00  0.00    +0.000 OA
ATOM     20  O   UNL     1       5.746   3.993  19.453  0.00  0.00    +0.000 OA
BRANCH  18  27
ATOM     21  C   UNL     1       7.468   5.911  17.888  0.00  0.00    +0.000 C 
ATOM     22  C   UNL     1       6.874   5.149  16.735  0.00  0.00    +0.000 A 
ATOM     23  C   UNL     1       7.506   5.315  15.482  0.00  0.00    +0.000 A 
ATOM     24  C   UNL     1       7.084   4.609  14.357  0.00  0.00    +0.000 A 
ATOM     25  C   UNL     1       6.016   3.727  14.458  0.00  0.00    +0.000 A 
ATOM     26  C   UNL     1       5.350   3.569  15.678  0.00  0.00    +0.000 A 
ATOM     27  C   UNL     1       5.755   4.289  16.818  0.00  0.00    +0.000 A 
ENDBRANCH  18  27
ENDBRANCH   1  18
BRANCH   2  28
ATOM     28  C   UNL     1       2.760   5.036  20.723  0.00  0.00    +0.000 C 
ATOM     29  N   UNL     1       2.269   4.280  21.456  0.00  0.00    +0.000 NA
ENDBRANCH   2  28
BRANCH   4  30
ATOM     30  C   UNL     1       1.501   4.521  17.705  0.00  0.00    +0.000 C 
BRANCH  30  31
ATOM     31  O   UNL     1       1.950   3.714  16.606  0.00  0.00    +0.000 OA
ATOM     32  H   UNL     1       1.518   4.020  15.778  0.00  0.00    +0.000 HD
ENDBRANCH  30  31
ENDBRANCH   4  30
TORSDOF 8
ENDMDL
MODEL 5
REMARK VINA RESULT:      -7.6      8.122     10.650
REMARK  Name = 
REMARK  9 active torsions:
REMARK  status: ('A' for Active; 'I' for Inactive)
REMARK    1  A    between atoms: C_1  and  C_2
REMARK    2  A    between atoms: C_7  and  S_8
REMARK    3  A    between atoms: S_8  and  N_11
REMARK    4  A    between atoms: C_12  and  C_13
REMARK    5  A    between atoms: C_15  and  C_16
REMARK    6  A    between atoms: C_19  and  C_20
REMARK    7  A    between atoms: C_21  and  C_22
REMARK    8  A    between atoms: C_29  and  C_30
REMARK    9  A    between atoms: C_30  and  O_31
REMARK                            x       y       z     vdW  Elec       q    Type
REMARK                         _______ _______ _______ _____ _____    ______ ____
ROOT
ATOM      1  N   UNL     1      -1.149  12.572  20.854  0.00  0.00    +0.000 NA
ATOM      2  C   UNL     1       0.161  11.876  21.095  0.00  0.00    +0.000 C 
ATOM      3  C   UNL     1      -0.327  10.739  20.143  0.00  0.00    +0.000 C 
ATOM      4  C   UNL     1      -1.228  11.876  19.480  0.00  0.00    +0.000 C 
ENDROOT
BRANCH   3   5
ATOM      5  C   UNL     1       0.787   9.598  19.757  0.00  0.00    +0.000 A 
ATOM      6  C   UNL     1       1.225   9.602  18.399  0.00  0.00    +0.000 A 
ATOM      7  C   UNL     1       2.040   8.615  17.806  0.00  0.00    +0.000 A 
ATOM      8  C   UNL     1       2.504   7.531  18.545  0.00  0.00    +0.000 A 
ATOM      9  C   UNL     1       2.110   7.487  19.895  0.00  0.00    +0.000 A 
ATOM     10  C   UNL     1       1.275   8.503  20.489  0.00  0.00    +0.000 A 
BRANCH   8  11
ATOM     11  C   UNL     1       3.321   6.499  17.903  0.00  0.00    +0.000 C 
ATOM     12  C   UNL     1       4.079   5.694  17.386  0.00  0.00    +0.000 C 
BRANCH  12  13
ATOM     13  C   UNL     1       5.122   4.819  16.811  0.00  0.00    +0.000 C 
ATOM     14  C   UNL     1       4.919   4.522  15.326  0.00  0.00    +0.000 C 
ATOM     15  C   UNL     1       6.252   3.910  14.911  0.00  0.00    +0.000 C 
ATOM     16  C   UNL     1       7.296   4.700  15.694  0.00  0.00    +0.000 C 
ATOM     17  C   UNL     1       6.539   5.402  16.832  0.00  0.00    +0.000 C 
ENDBRANCH  12  13
ENDBRANCH   8  11
ENDBRANCH   3   5
BRANCH   1  18
ATOM     18  S   UNL     1      -1.535  14.094  21.449  0.00  0.00    +0.000 S 
ATOM     19  O   UNL     1      -1.308  15.062  20.397  0.00  0.00    +0.000 OA
ATOM     20  O   UNL     1      -0.874  14.219  22.725  0.00  0.00    +0.000 OA
BRANCH  18  27
ATOM     21  C   UNL     1      -3.216  12.160  23.546  0.00  0.00    +0.000 C 
ATOM     22  C   UNL     1      -3.937  13.126  22.648  0.00  0.00    +0.000 A 
ATOM     23  C   UNL     1      -5.345  13.157  22.763  0.00  0.00    +0.000 A 
ATOM     24  C   UNL     1      -6.114  14.058  22.029  0.00  0.00    +0.000 A 
ATOM     25  C   UNL     1      -5.493  14.943  21.157  0.00  0.00    +0.000 A 
ATOM     26  C   UNL     1      -4.104  14.910  20.998  0.00  0.00    +0.000 A 
ATOM     27  C   UNL     1      -3.317  13.994  21.720  0.00  0.00    +0.000 A 
ENDBRANCH  18  27
ENDBRANCH   1  18
BRANCH   2  28
ATOM     28  C   UNL     1       1.338  12.596  20.620  0.00  0.00    +0.000 C 
ATOM     29  N   UNL     1       2.273  13.125  20.178  0.00  0.00    +0.000 NA
ENDBRANCH   2  28
BRANCH   4  30
ATOM     30  C   UNL     1      -1.006  12.828  18.295  0.00  0.00    +0.000 C 
BRANCH  30  31
ATOM     31  O   UNL     1      -1.565  12.266  17.097  0.00  0.00    +0.000 OA
ATOM     32  H   UNL     1      -0.843  11.897  16.542  0.00  0.00    +0.000 HD
ENDBRANCH  30  31
ENDBRANCH   4  30
TORSDOF 8
ENDMDL
MODEL 6
REMARK VINA RESULT:      -7.5      8.058     10.539
REMARK  Name = 
REMARK  9 active torsions:
REMARK  status: ('A' for Active; 'I' for Inactive)
REMARK    1  A    between atoms: C_1  and  C_2
REMARK    2  A    between atoms: C_7  and  S_8
REMARK    3  A    between atoms: S_8  and  N_11
REMARK    4  A    between atoms: C_12  and  C_13
REMARK    5  A    between atoms: C_15  and  C_16
REMARK    6  A    between atoms: C_19  and  C_20
REMARK    7  A    between atoms: C_21  and  C_22
REMARK    8  A    between atoms: C_29  and  C_30
REMARK    9  A    between atoms: C_30  and  O_31
REMARK                            x       y       z     vdW  Elec       q    Type
REMARK                         _______ _______ _______ _____ _____    ______ ____
ROOT
ATOM      1  N   UNL     1      -0.536  12.651  21.152  0.00  0.00    +0.000 NA
ATOM      2  C   UNL     1       0.736  11.883  20.931  0.00  0.00    +0.000 C 
ATOM      3  C   UNL     1      -0.090  10.858  20.091  0.00  0.00    +0.000 C 
ATOM      4  C   UNL     1      -1.069  12.087  19.819  0.00  0.00    +0.000 C 
ENDROOT
BRANCH   3   5
ATOM      5  C   UNL     1       0.779   9.711  19.301  0.00  0.00    +0.000 A 
ATOM      6  C   UNL     1       1.266   8.643  20.112  0.00  0.00    +0.000 A 
ATOM      7  C   UNL     1       2.170   7.647  19.686  0.00  0.00    +0.000 A 
ATOM      8  C   UNL     1       2.655   7.631  18.381  0.00  0.00    +0.000 A 
ATOM      9  C   UNL     1       2.194   8.658  17.537  0.00  0.00    +0.000 A 
ATOM     10  C   UNL     1       1.269   9.671  17.986  0.00  0.00    +0.000 A 
BRANCH   8  11
ATOM     11  C   UNL     1       3.618   6.609  17.967  0.00  0.00    +0.000 C 
ATOM     12  C   UNL     1       4.427   5.802  17.538  0.00  0.00    +0.000 C 
BRANCH  12  13
ATOM     13  C   UNL     1       5.417   4.924  16.882  0.00  0.00    +0.000 C 
ATOM     14  C   UNL     1       4.912   4.301  15.580  0.00  0.00    +0.000 C 
ATOM     15  C   UNL     1       6.182   3.739  14.952  0.00  0.00    +0.000 C 
ATOM     16  C   UNL     1       7.260   4.768  15.278  0.00  0.00    +0.000 C 
ATOM     17  C   UNL     1       6.703   5.623  16.426  0.00  0.00    +0.000 C 
ENDBRANCH  12  13
ENDBRANCH   8  11
ENDBRANCH   3   5
BRANCH   1  18
ATOM     18  S   UNL     1      -0.623  14.127  21.947  0.00  0.00    +0.000 S 
ATOM     19  O   UNL     1      -1.110  15.117  21.010  0.00  0.00    +0.000 OA
ATOM     20  O   UNL     1       0.638  14.307  22.625  0.00  0.00    +0.000 OA
BRANCH  18  27
ATOM     21  C   UNL     1      -1.695  16.176  24.317  0.00  0.00    +0.000 C 
ATOM     22  C   UNL     1      -2.300  14.808  24.154  0.00  0.00    +0.000 A 
ATOM     23  C   UNL     1      -3.336  14.470  25.053  0.00  0.00    +0.000 A 
ATOM     24  C   UNL     1      -4.014  13.256  24.956  0.00  0.00    +0.000 A 
ATOM     25  C   UNL     1      -3.667  12.352  23.961  0.00  0.00    +0.000 A 
ATOM     26  C   UNL     1      -2.621  12.646  23.079  0.00  0.00    +0.000 A 
ATOM     27  C   UNL     1      -1.917  13.861  23.178  0.00  0.00    +0.000 A 
ENDBRANCH  18  27
ENDBRANCH   1  18
BRANCH   2  28
ATOM     28  C   UNL     1       1.762  12.592  20.176  0.00  0.00    +0.000 C 
ATOM     29  N   UNL     1       2.525  13.205  19.549  0.00  0.00    +0.000 NA
ENDBRANCH   2  28
BRANCH   4  30
ATOM     30  C   UNL     1      -1.149  13.132  18.696  0.00  0.00    +0.000 C 
BRANCH  30  31
ATOM     31  O   UNL     1      -1.311  12.483  17.426  0.00  0.00    +0.000 OA
ATOM     32  H   UNL     1      -2.037  12.919  16.927  0.00  0.00    +0.000 HD
ENDBRANCH  30  31
ENDBRANCH   4  30
TORSDOF 8
ENDMDL
MODEL 7
REMARK VINA RESULT:      -7.3      8.113     10.647
REMARK  Name = 
REMARK  9 active torsions:
REMARK  status: ('A' for Active; 'I' for Inactive)
REMARK    1  A    between atoms: C_1  and  C_2
REMARK    2  A    between atoms: C_7  and  S_8
REMARK    3  A    between atoms: S_8  and  N_11
REMARK    4  A    between atoms: C_12  and  C_13
REMARK    5  A    between atoms: C_15  and  C_16
REMARK    6  A    between atoms: C_19  and  C_20
REMARK    7  A    between atoms: C_21  and  C_22
REMARK    8  A    between atoms: C_29  and  C_30
REMARK    9  A    between atoms: C_30  and  O_31
REMARK                            x       y       z     vdW  Elec       q    Type
REMARK                         _______ _______ _______ _____ _____    ______ ____
ROOT
ATOM      1  N   UNL     1      -1.513  12.105  21.322  0.00  0.00    +0.000 NA
ATOM      2  C   UNL     1      -0.110  11.581  21.439  0.00  0.00    +0.000 C 
ATOM      3  C   UNL     1      -0.493  10.471  20.411  0.00  0.00    +0.000 C 
ATOM      4  C   UNL     1      -1.576  11.523  19.894  0.00  0.00    +0.000 C 
ENDROOT
BRANCH   3   5
ATOM      5  C   UNL     1       0.742   9.533  19.873  0.00  0.00    +0.000 A 
ATOM      6  C   UNL     1       1.208   9.827  18.557  0.00  0.00    +0.000 A 
ATOM      7  C   UNL     1       2.134   9.049  17.831  0.00  0.00    +0.000 A 
ATOM      8  C   UNL     1       2.691   7.899  18.382  0.00  0.00    +0.000 A 
ATOM      9  C   UNL     1       2.273   7.572  19.685  0.00  0.00    +0.000 A 
ATOM     10  C   UNL     1       1.324   8.377  20.417  0.00  0.00    +0.000 A 
BRANCH   8  11
ATOM     11  C   UNL     1       3.624   7.086  17.600  0.00  0.00    +0.000 C 
ATOM     12  C   UNL     1       4.379   6.462  16.872  0.00  0.00    +0.000 C 
BRANCH  12  13
ATOM     13  C   UNL     1       5.252   5.816  15.869  0.00  0.00    +0.000 C 
ATOM     14  C   UNL     1       6.721   5.758  16.286  0.00  0.00    +0.000 C 
ATOM     15  C   UNL     1       7.327   4.785  15.281  0.00  0.00    +0.000 C 
ATOM     16  C   UNL     1       6.248   3.726  15.075  0.00  0.00    +0.000 C 
ATOM     17  C   UNL     1       4.938   4.342  15.590  0.00  0.00    +0.000 C 
ENDBRANCH  12  13
ENDBRANCH   8  11
ENDBRANCH   3   5
BRANCH   1  18
ATOM     18  S   UNL     1      -2.067  13.502  22.069  0.00  0.00    +0.000 S 
ATOM     19  O   UNL     1      -1.704  14.633  21.241  0.00  0.00    +0.000 OA
ATOM     20  O   UNL     1      -1.648  13.429  23.447  0.00  0.00    +0.000 OA
BRANCH  18  27
ATOM     21  C   UNL     1      -4.168  12.544  24.442  0.00  0.00    +0.000 C 
ATOM     22  C   UNL     1      -4.672  12.909  23.073  0.00  0.00    +0.000 A 
ATOM     23  C   UNL     1      -6.069  12.825  22.877  0.00  0.00    +0.000 A 
ATOM     24  C   UNL     1      -6.657  13.200  21.670  0.00  0.00    +0.000 A 
ATOM     25  C   UNL     1      -5.860  13.662  20.631  0.00  0.00    +0.000 A 
ATOM     26  C   UNL     1      -4.471  13.722  20.786  0.00  0.00    +0.000 A 
ATOM     27  C   UNL     1      -3.863  13.330  21.993  0.00  0.00    +0.000 A 
ENDBRANCH  18  27
ENDBRANCH   1  18
BRANCH   2  28
ATOM     28  C   UNL     1       0.930  12.495  20.979  0.00  0.00    +0.000 C 
ATOM     29  N   UNL     1       1.801  13.201  20.674  0.00  0.00    +0.000 NA
ENDBRANCH   2  28
BRANCH   4  30
ATOM     30  C   UNL     1      -1.553  12.591  18.792  0.00  0.00    +0.000 C 
BRANCH  30  31
ATOM     31  O   UNL     1      -2.638  12.383  17.876  0.00  0.00    +0.000 OA
ATOM     32  H   UNL     1      -2.727  11.422  17.688  0.00  0.00    +0.000 HD
ENDBRANCH  30  31
ENDBRANCH   4  30
TORSDOF 8
ENDMDL
MODEL 8
REMARK VINA RESULT:      -7.1      0.667      1.437
REMARK  Name = 
REMARK  9 active torsions:
REMARK  status: ('A' for Active; 'I' for Inactive)
REMARK    1  A    between atoms: C_1  and  C_2
REMARK    2  A    between atoms: C_7  and  S_8
REMARK    3  A    between atoms: S_8  and  N_11
REMARK    4  A    between atoms: C_12  and  C_13
REMARK    5  A    between atoms: C_15  and  C_16
REMARK    6  A    between atoms: C_19  and  C_20
REMARK    7  A    between atoms: C_21  and  C_22
REMARK    8  A    between atoms: C_29  and  C_30
REMARK    9  A    between atoms: C_30  and  O_31
REMARK                            x       y       z     vdW  Elec       q    Type
REMARK                         _______ _______ _______ _____ _____    ______ ____
ROOT
ATOM      1  N   UNL     1       5.040   3.693  17.543  0.00  0.00    +0.000 NA
ATOM      2  C   UNL     1       5.144   5.065  18.146  0.00  0.00    +0.000 C 
ATOM      3  C   UNL     1       6.606   5.136  17.603  0.00  0.00    +0.000 C 
ATOM      4  C   UNL     1       6.093   4.109  16.496  0.00  0.00    +0.000 C 
ENDROOT
BRANCH   3   5
ATOM      5  C   UNL     1       7.359   6.586  17.756  0.00  0.00    +0.000 A 
ATOM      6  C   UNL     1       8.199   6.724  18.901  0.00  0.00    +0.000 A 
ATOM      7  C   UNL     1       8.805   7.926  19.324  0.00  0.00    +0.000 A 
ATOM      8  C   UNL     1       8.627   9.107  18.610  0.00  0.00    +0.000 A 
ATOM      9  C   UNL     1       7.816   9.022  17.464  0.00  0.00    +0.000 A 
ATOM     10  C   UNL     1       7.201   7.786  17.043  0.00  0.00    +0.000 A 
BRANCH   8  11
ATOM     11  C   UNL     1       9.237  10.352  19.084  0.00  0.00    +0.000 C 
ATOM     12  C   UNL     1       9.693  11.434  19.412  0.00  0.00    +0.000 C 
BRANCH  12  13
ATOM     13  C   UNL     1      10.138  12.814  19.699  0.00  0.00    +0.000 C 
ATOM     14  C   UNL     1      11.657  12.959  19.789  0.00  0.00    +0.000 C 
ATOM     15  C   UNL     1      11.862  14.469  19.753  0.00  0.00    +0.000 C 
ATOM     16  C   UNL     1      10.813  14.975  18.769  0.00  0.00    +0.000 C 
ATOM     17  C   UNL     1       9.780  13.847  18.625  0.00  0.00    +0.000 C 
ENDBRANCH  12  13
ENDBRANCH   8  11
ENDBRANCH   3   5
BRANCH   1  18
ATOM     18  S   UNL     1       3.637   2.770  17.528  0.00  0.00    +0.000 S 
ATOM     19  O   UNL     1       4.014   1.373  17.523  0.00  0.00    +0.000 OA
ATOM     20  O   UNL     1       2.796   3.314  16.489  0.00  0.00    +0.000 OA
BRANCH  18  27
ATOM     21  C   UNL     1       1.001   4.650  18.225  0.00  0.00    +0.000 C 
ATOM     22  C   UNL     1       1.755   3.949  19.322  0.00  0.00    +0.000 A 
ATOM     23  C   UNL     1       1.269   4.135  20.635  0.00  0.00    +0.000 A 
ATOM     24  C   UNL     1       1.847   3.484  21.723  0.00  0.00    +0.000 A 
ATOM     25  C   UNL     1       2.928   2.636  21.522  0.00  0.00    +0.000 A 
ATOM     26  C   UNL     1       3.452   2.460  20.237  0.00  0.00    +0.000 A 
ATOM     27  C   UNL     1       2.889   3.126  19.132  0.00  0.00    +0.000 A 
ENDBRANCH  18  27
ENDBRANCH   1  18
BRANCH   2  28
ATOM     28  C   UNL     1       4.241   6.059  17.576  0.00  0.00    +0.000 C 
ATOM     29  N   UNL     1       3.466   6.823  17.168  0.00  0.00    +0.000 NA
ENDBRANCH   2  28
BRANCH   4  30
ATOM     30  C   UNL     1       5.519   4.294  15.084  0.00  0.00    +0.000 C 
BRANCH  30  31
ATOM     31  O   UNL     1       6.218   3.457  14.151  0.00  0.00    +0.000 OA
ATOM     32  H   UNL     1       5.850   2.547  14.188  0.00  0.00    +0.000 HD
ENDBRANCH  30  31
ENDBRANCH   4  30
TORSDOF 8
ENDMDL
MODEL 9
REMARK VINA RESULT:      -7.1      8.279     10.752
REMARK  Name = 
REMARK  9 active torsions:
REMARK  status: ('A' for Active; 'I' for Inactive)
REMARK    1  A    between atoms: C_1  and  C_2
REMARK    2  A    between atoms: C_7  and  S_8
REMARK    3  A    between atoms: S_8  and  N_11
REMARK    4  A    between atoms: C_12  and  C_13
REMARK    5  A    between atoms: C_15  and  C_16
REMARK    6  A    between atoms: C_19  and  C_20
REMARK    7  A    between atoms: C_21  and  C_22
REMARK    8  A    between atoms: C_29  and  C_30
REMARK    9  A    between atoms: C_30  and  O_31
REMARK                            x       y       z     vdW  Elec       q    Type
REMARK                         _______ _______ _______ _____ _____    ______ ____
ROOT
ATOM      1  N   UNL     1      -1.698  12.338  21.101  0.00  0.00    +0.000 NA
ATOM      2  C   UNL     1      -0.401  11.644  21.405  0.00  0.00    +0.000 C 
ATOM      3  C   UNL     1      -0.694  10.684  20.210  0.00  0.00    +0.000 C 
ATOM      4  C   UNL     1      -1.550  11.899  19.630  0.00  0.00    +0.000 C 
ENDROOT
BRANCH   3   5
ATOM      5  C   UNL     1       0.519   9.659  19.797  0.00  0.00    +0.000 A 
ATOM      6  C   UNL     1       0.936   9.718  18.434  0.00  0.00    +0.000 A 
ATOM      7  C   UNL     1       1.834   8.819  17.820  0.00  0.00    +0.000 A 
ATOM      8  C   UNL     1       2.411   7.778  18.541  0.00  0.00    +0.000 A 
ATOM      9  C   UNL     1       2.042   7.685  19.895  0.00  0.00    +0.000 A 
ATOM     10  C   UNL     1       1.121   8.610  20.511  0.00  0.00    +0.000 A 
BRANCH   8  11
ATOM     11  C   UNL     1       3.314   6.836  17.877  0.00  0.00    +0.000 C 
ATOM     12  C   UNL     1       4.108   6.037  17.409  0.00  0.00    +0.000 C 
BRANCH  12  13
ATOM     13  C   UNL     1       5.123   5.043  17.001  0.00  0.00    +0.000 C 
ATOM     14  C   UNL     1       5.656   5.261  15.585  0.00  0.00    +0.000 C 
ATOM     15  C   UNL     1       6.880   4.354  15.534  0.00  0.00    +0.000 C 
ATOM     16  C   UNL     1       7.501   4.470  16.922  0.00  0.00    +0.000 C 
ATOM     17  C   UNL     1       6.410   5.051  17.833  0.00  0.00    +0.000 C 
ENDBRANCH  12  13
ENDBRANCH   8  11
ENDBRANCH   3   5
BRANCH   1  18
ATOM     18  S   UNL     1      -2.239  13.719  21.889  0.00  0.00    +0.000 S 
ATOM     19  O   UNL     1      -1.996  14.856  21.028  0.00  0.00    +0.000 OA
ATOM     20  O   UNL     1      -1.697  13.672  23.225  0.00  0.00    +0.000 OA
BRANCH  18  27
ATOM     21  C   UNL     1      -4.457  15.231  23.828  0.00  0.00    +0.000 C 
ATOM     22  C   UNL     1      -4.889  14.178  22.845  0.00  0.00    +0.000 A 
ATOM     23  C   UNL     1      -6.272  13.891  22.801  0.00  0.00    +0.000 A 
ATOM     24  C   UNL     1      -6.796  12.981  21.886  0.00  0.00    +0.000 A 
ATOM     25  C   UNL     1      -5.948  12.332  20.997  0.00  0.00    +0.000 A 
ATOM     26  C   UNL     1      -4.571  12.571  21.042  0.00  0.00    +0.000 A 
ATOM     27  C   UNL     1      -4.026  13.475  21.974  0.00  0.00    +0.000 A 
ENDBRANCH  18  27
ENDBRANCH   1  18
BRANCH   2  28
ATOM     28  C   UNL     1       0.793  12.467  21.239  0.00  0.00    +0.000 C 
ATOM     29  N   UNL     1       1.759  13.080  21.043  0.00  0.00    +0.000 NA
ENDBRANCH   2  28
BRANCH   4  30
ATOM     30  C   UNL     1      -1.215  13.052  18.673  0.00  0.00    +0.000 C 
BRANCH  30  31
ATOM     31  O   UNL     1       0.094  12.868  18.114  0.00  0.00    +0.000 OA
ATOM     32  H   UNL     1       0.495  13.745  17.927  0.00  0.00    +0.000 HD
ENDBRANCH  30  31
ENDBRANCH   4  30
TORSDOF 8
ENDMDL
