MODEL 1
REMARK VINA RESULT:      -7.0      0.000      0.000
REMARK  Name = 
REMARK  10 active torsions:
REMARK  status: ('A' for Active; 'I' for Inactive)
REMARK    1  A    between atoms: C_1  and  O_2
REMARK    2  A    between atoms: O_2  and  C_3
REMARK    3  A    between atoms: C_3  and  C_4
REMARK    4  A    between atoms: C_4  and  C_5
REMARK    5  A    between atoms: C_4  and  C_6
REMARK    6  A    between atoms: C_4  and  N_7
REMARK    7  A    between atoms: N_7  and  C_8
REMARK    8  A    between atoms: C_9  and  C_11
REMARK    9  A    between atoms: C_16  and  C_17
REMARK   10  A    between atoms: C_17  and  O_19
REMARK                            x       y       z     vdW  Elec       q    Type
REMARK                         _______ _______ _______ _____ _____    ______ ____
ROOT
ATOM      1  C   UNL     1       4.434   4.961  17.324  0.00  0.00    +0.000 A 
ATOM      2  C   UNL     1       4.672   4.489  16.032  0.00  0.00    +0.000 A 
ATOM      3  C   UNL     1       5.889   4.741  15.403  0.00  0.00    +0.000 A 
ATOM      4 BR   UNL     1       6.266   3.899  13.754  0.00  0.00    +0.000 Br
ATOM      5  C   UNL     1       6.831   5.572  15.987  0.00  0.00    +0.000 A 
ATOM      6  C   UNL     1       6.553   6.167  17.225  0.00  0.00    +0.000 A 
ATOM      7  C   UNL     1       5.376   5.836  17.911  0.00  0.00    +0.000 A 
ENDROOT
BRANCH   1  10
ATOM      8  N   UNL     1       3.186   3.684  19.165  0.00  0.00    +0.000 N 
ATOM      9  C   UNL     1       4.410   3.016  19.610  0.00  0.00    +0.000 C 
ATOM     10  C   UNL     1       3.191   4.628  18.107  0.00  0.00    +0.000 C 
ATOM     11  O   UNL     1       2.188   5.256  17.761  0.00  0.00    +0.000 OA
BRANCH   8  12
ATOM     12  C   UNL     1       1.886   3.368  19.881  0.00  0.00    +0.000 C 
ATOM     13  C   UNL     1       2.085   2.535  21.178  0.00  0.00    +0.000 C 
ATOM     14  C   UNL     1       0.964   2.520  18.973  0.00  0.00    +0.000 C 
BRANCH  12  15
ATOM     15  C   UNL     1       1.113   4.663  20.287  0.00  0.00    +0.000 C 
BRANCH  15  17
ATOM     16  C   UNL     1       1.641   6.908  20.742  0.00  0.00    +0.000 C 
ATOM     17  O   UNL     1       1.942   5.551  21.049  0.00  0.00    +0.000 OA
ENDBRANCH  15  17
ENDBRANCH  12  15
ENDBRANCH   8  12
ENDBRANCH   1  10
BRANCH   6  18
ATOM     18  C   UNL     1       7.573   7.100  17.773  0.00  0.00    +0.000 C 
ATOM     19  O   UNL     1       7.810   8.180  17.272  0.00  0.00    +0.000 OA
BRANCH  18  20
ATOM     20  O   UNL     1       8.156   6.672  18.911  0.00  0.00    +0.000 OA
ATOM     21  H   UNL     1       7.706   5.936  19.374  0.00  0.00    +0.000 HD
ENDBRANCH  18  20
ENDBRANCH   6  18
TORSDOF 6
ENDMDL
MODEL 2
REMARK VINA RESULT:      -6.6      1.049      1.942
REMARK  Name = 
REMARK  10 active torsions:
REMARK  status: ('A' for Active; 'I' for Inactive)
REMARK    1  A    between atoms: C_1  and  O_2
REMARK    2  A    between atoms: O_2  and  C_3
REMARK    3  A    between atoms: C_3  and  C_4
REMARK    4  A    between atoms: C_4  and  C_5
REMARK    5  A    between atoms: C_4  and  C_6
REMARK    6  A    between atoms: C_4  and  N_7
REMARK    7  A    between atoms: N_7  and  C_8
REMARK    8  A    between atoms: C_9  and  C_11
REMARK    9  A    between atoms: C_16  and  C_17
REMARK   10  A    between atoms: C_17  and  O_19
REMARK                            x       y       z     vdW  Elec       q    Type
REMARK                         _______ _______ _______ _____ _____    ______ ____
ROOT
ATOM      1  C   UNL     1       4.585   5.340  17.574  0.00  0.00    +0.000 A 
ATOM      2  C   UNL     1       4.779   4.780  16.310  0.00  0.00    +0.000 A 
ATOM      3  C   UNL     1       5.978   4.978  15.629  0.00  0.00    +0.000 A 
ATOM      4 BR   UNL     1       6.300   4.024  14.030  0.00  0.00    +0.000 Br
ATOM      5  C   UNL     1       6.943   5.839  16.127  0.00  0.00    +0.000 A 
ATOM      6  C   UNL     1       6.707   6.519  17.329  0.00  0.00    +0.000 A 
ATOM      7  C   UNL     1       5.549   6.245  18.071  0.00  0.00    +0.000 A 
ENDROOT
BRANCH   1  10
ATOM      8  N   UNL     1       3.358   4.126  19.471  0.00  0.00    +0.000 N 
ATOM      9  C   UNL     1       4.565   3.393  19.857  0.00  0.00    +0.000 C 
ATOM     10  C   UNL     1       3.364   5.072  18.414  0.00  0.00    +0.000 C 
ATOM     11  O   UNL     1       2.380   5.753  18.115  0.00  0.00    +0.000 OA
BRANCH   8  12
ATOM     12  C   UNL     1       2.078   3.878  20.247  0.00  0.00    +0.000 C 
ATOM     13  C   UNL     1       1.421   5.181  20.783  0.00  0.00    +0.000 C 
ATOM     14  C   UNL     1       2.366   3.009  21.494  0.00  0.00    +0.000 C 
BRANCH  12  15
ATOM     15  C   UNL     1       1.002   3.148  19.383  0.00  0.00    +0.000 C 
BRANCH  15  17
ATOM     16  C   UNL     1       2.113   1.865  17.757  0.00  0.00    +0.000 C 
ATOM     17  O   UNL     1       1.434   1.834  19.008  0.00  0.00    +0.000 OA
ENDBRANCH  15  17
ENDBRANCH  12  15
ENDBRANCH   8  12
ENDBRANCH   1  10
BRANCH   6  18
ATOM     18  C   UNL     1       7.749   7.477  17.783  0.00  0.00    +0.000 C 
ATOM     19  O   UNL     1       7.932   8.550  17.244  0.00  0.00    +0.000 OA
BRANCH  18  20
ATOM     20  O   UNL     1       8.420   7.082  18.883  0.00  0.00    +0.000 OA
ATOM     21  H   UNL     1       9.250   6.586  18.726  0.00  0.00    +0.000 HD
ENDBRANCH  18  20
ENDBRANCH   6  18
TORSDOF 6
ENDMDL
MODEL 3
REMARK VINA RESULT:      -6.6      1.070      1.309
REMARK  Name = 
REMARK  10 active torsions:
REMARK  status: ('A' for Active; 'I' for Inactive)
REMARK    1  A    between atoms: C_1  and  O_2
REMARK    2  A    between atoms: O_2  and  C_3
REMARK    3  A    between atoms: C_3  and  C_4
REMARK    4  A    between atoms: C_4  and  C_5
REMARK    5  A    between atoms: C_4  and  C_6
REMARK    6  A    between atoms: C_4  and  N_7
REMARK    7  A    between atoms: N_7  and  C_8
REMARK    8  A    between atoms: C_9  and  C_11
REMARK    9  A    between atoms: C_16  and  C_17
REMARK   10  A    between atoms: C_17  and  O_19
REMARK                            x       y       z     vdW  Elec       q    Type
REMARK                         _______ _______ _______ _____ _____    ______ ____
ROOT
ATOM      1  C   UNL     1       5.222   4.426  17.801  0.00  0.00    +0.000 A 
ATOM      2  C   UNL     1       5.274   4.084  16.449  0.00  0.00    +0.000 A 
ATOM      3  C   UNL     1       6.221   4.669  15.611  0.00  0.00    +0.000 A 
ATOM      4 BR   UNL     1       6.417   4.022  13.847  0.00  0.00    +0.000 Br
ATOM      5  C   UNL     1       7.035   5.692  16.067  0.00  0.00    +0.000 A 
ATOM      6  C   UNL     1       6.903   6.145  17.386  0.00  0.00    +0.000 A 
ATOM      7  C   UNL     1       6.026   5.492  18.264  0.00  0.00    +0.000 A 
ENDROOT
BRANCH   1  10
ATOM      8  N   UNL     1       2.900   3.942  18.777  0.00  0.00    +0.000 N 
ATOM      9  C   UNL     1       2.240   4.763  17.761  0.00  0.00    +0.000 C 
ATOM     10  C   UNL     1       4.305   3.750  18.787  0.00  0.00    +0.000 C 
ATOM     11  O   UNL     1       4.877   3.007  19.588  0.00  0.00    +0.000 OA
BRANCH   8  12
ATOM     12  C   UNL     1       2.043   3.260  19.828  0.00  0.00    +0.000 C 
ATOM     13  C   UNL     1       2.874   2.560  20.939  0.00  0.00    +0.000 C 
ATOM     14  C   UNL     1       1.182   2.149  19.182  0.00  0.00    +0.000 C 
BRANCH  12  15
ATOM     15  C   UNL     1       1.085   4.265  20.542  0.00  0.00    +0.000 C 
BRANCH  15  17
ATOM     16  C   UNL     1       1.441   6.577  20.776  0.00  0.00    +0.000 C 
ATOM     17  O   UNL     1       1.817   5.283  21.237  0.00  0.00    +0.000 OA
ENDBRANCH  15  17
ENDBRANCH  12  15
ENDBRANCH   8  12
ENDBRANCH   1  10
BRANCH   6  18
ATOM     18  C   UNL     1       7.758   7.288  17.801  0.00  0.00    +0.000 C 
ATOM     19  O   UNL     1       7.781   8.343  17.198  0.00  0.00    +0.000 OA
BRANCH  18  20
ATOM     20  O   UNL     1       8.447   7.076  18.940  0.00  0.00    +0.000 OA
ATOM     21  H   UNL     1       8.344   7.755  19.638  0.00  0.00    +0.000 HD
ENDBRANCH  18  20
ENDBRANCH   6  18
TORSDOF 6
ENDMDL
MODEL 4
REMARK VINA RESULT:      -6.6      3.045      6.742
REMARK  Name = 
REMARK  10 active torsions:
REMARK  status: ('A' for Active; 'I' for Inactive)
REMARK    1  A    between atoms: C_1  and  O_2
REMARK    2  A    between atoms: O_2  and  C_3
REMARK    3  A    between atoms: C_3  and  C_4
REMARK    4  A    between atoms: C_4  and  C_5
REMARK    5  A    between atoms: C_4  and  C_6
REMARK    6  A    between atoms: C_4  and  N_7
REMARK    7  A    between atoms: N_7  and  C_8
REMARK    8  A    between atoms: C_9  and  C_11
REMARK    9  A    between atoms: C_16  and  C_17
REMARK   10  A    between atoms: C_17  and  O_19
REMARK                            x       y       z     vdW  Elec       q    Type
REMARK                         _______ _______ _______ _____ _____    ______ ____
ROOT
ATOM      1  C   UNL     1       3.854   5.522  19.576  0.00  0.00    +0.000 A 
ATOM      2  C   UNL     1       3.135   6.709  19.731  0.00  0.00    +0.000 A 
ATOM      3  C   UNL     1       1.918   6.711  20.408  0.00  0.00    +0.000 A 
ATOM      4 BR   UNL     1       1.084   8.361  20.800  0.00  0.00    +0.000 Br
ATOM      5  C   UNL     1       1.335   5.526  20.823  0.00  0.00    +0.000 A 
ATOM      6  C   UNL     1       1.976   4.309  20.554  0.00  0.00    +0.000 A 
ATOM      7  C   UNL     1       3.249   4.306  19.965  0.00  0.00    +0.000 A 
ENDROOT
BRANCH   1  10
ATOM      8  N   UNL     1       5.466   5.789  17.599  0.00  0.00    +0.000 N 
ATOM      9  C   UNL     1       4.397   6.266  16.719  0.00  0.00    +0.000 C 
ATOM     10  C   UNL     1       5.227   5.466  18.959  0.00  0.00    +0.000 C 
ATOM     11  O   UNL     1       6.122   5.130  19.738  0.00  0.00    +0.000 OA
BRANCH   8  12
ATOM     12  C   UNL     1       6.869   5.668  17.035  0.00  0.00    +0.000 C 
ATOM     13  C   UNL     1       7.695   4.521  17.682  0.00  0.00    +0.000 C 
ATOM     14  C   UNL     1       7.669   6.965  17.302  0.00  0.00    +0.000 C 
BRANCH  12  15
ATOM     15  C   UNL     1       6.860   5.409  15.495  0.00  0.00    +0.000 C 
BRANCH  15  17
ATOM     16  C   UNL     1       6.211   3.892  13.822  0.00  0.00    +0.000 C 
ATOM     17  O   UNL     1       6.552   4.042  15.196  0.00  0.00    +0.000 OA
ENDBRANCH  15  17
ENDBRANCH  12  15
ENDBRANCH   8  12
ENDBRANCH   1  10
BRANCH   6  18
ATOM     18  C   UNL     1       1.273   3.066  20.964  0.00  0.00    +0.000 C 
ATOM     19  O   UNL     1       1.500   2.500  22.015  0.00  0.00    +0.000 OA
BRANCH  18  20
ATOM     20  O   UNL     1       0.315   2.664  20.105  0.00  0.00    +0.000 OA
ATOM     21  H   UNL     1      -0.601   2.666  20.450  0.00  0.00    +0.000 HD
ENDBRANCH  18  20
ENDBRANCH   6  18
TORSDOF 6
ENDMDL
MODEL 5
REMARK VINA RESULT:      -6.5      2.191      2.756
REMARK  Name = 
REMARK  10 active torsions:
REMARK  status: ('A' for Active; 'I' for Inactive)
REMARK    1  A    between atoms: C_1  and  O_2
REMARK    2  A    between atoms: O_2  and  C_3
REMARK    3  A    between atoms: C_3  and  C_4
REMARK    4  A    between atoms: C_4  and  C_5
REMARK    5  A    between atoms: C_4  and  C_6
REMARK    6  A    between atoms: C_4  and  N_7
REMARK    7  A    between atoms: N_7  and  C_8
REMARK    8  A    between atoms: C_9  and  C_11
REMARK    9  A    between atoms: C_16  and  C_17
REMARK   10  A    between atoms: C_17  and  O_19
REMARK                            x       y       z     vdW  Elec       q    Type
REMARK                         _______ _______ _______ _____ _____    ______ ____
ROOT
ATOM      1  C   UNL     1       4.660   5.061  17.453  0.00  0.00    +0.000 A 
ATOM      2  C   UNL     1       5.635   5.820  18.102  0.00  0.00    +0.000 A 
ATOM      3  C   UNL     1       6.773   6.239  17.416  0.00  0.00    +0.000 A 
ATOM      4 BR   UNL     1       7.959   7.451  18.250  0.00  0.00    +0.000 Br
ATOM      5  C   UNL     1       7.024   5.803  16.126  0.00  0.00    +0.000 A 
ATOM      6  C   UNL     1       6.123   4.928  15.505  0.00  0.00    +0.000 A 
ATOM      7  C   UNL     1       4.926   4.585  16.150  0.00  0.00    +0.000 A 
ENDROOT
BRANCH   1  10
ATOM      8  N   UNL     1       3.268   3.687  19.112  0.00  0.00    +0.000 N 
ATOM      9  C   UNL     1       4.458   3.025  19.649  0.00  0.00    +0.000 C 
ATOM     10  C   UNL     1       3.354   4.674  18.097  0.00  0.00    +0.000 C 
ATOM     11  O   UNL     1       2.376   5.296  17.679  0.00  0.00    +0.000 OA
BRANCH   8  12
ATOM     12  C   UNL     1       1.912   3.319  19.685  0.00  0.00    +0.000 C 
ATOM     13  C   UNL     1       2.001   2.367  20.911  0.00  0.00    +0.000 C 
ATOM     14  C   UNL     1       1.068   2.568  18.629  0.00  0.00    +0.000 C 
BRANCH  12  15
ATOM     15  C   UNL     1       1.110   4.578  20.145  0.00  0.00    +0.000 C 
BRANCH  15  17
ATOM     16  C   UNL     1       1.668   6.777  20.758  0.00  0.00    +0.000 C 
ATOM     17  O   UNL     1       1.883   5.396  21.032  0.00  0.00    +0.000 OA
ENDBRANCH  15  17
ENDBRANCH  12  15
ENDBRANCH   8  12
ENDBRANCH   1  10
BRANCH   6  18
ATOM     18  C   UNL     1       6.476   4.442  14.145  0.00  0.00    +0.000 C 
ATOM     19  O   UNL     1       5.912   3.505  13.617  0.00  0.00    +0.000 OA
BRANCH  18  20
ATOM     20  O   UNL     1       7.422   5.175  13.526  0.00  0.00    +0.000 OA
ATOM     21  H   UNL     1       7.271   5.360  12.576  0.00  0.00    +0.000 HD
ENDBRANCH  18  20
ENDBRANCH   6  18
TORSDOF 6
ENDMDL
MODEL 6
REMARK VINA RESULT:      -6.4      2.602      3.474
REMARK  Name = 
REMARK  10 active torsions:
REMARK  status: ('A' for Active; 'I' for Inactive)
REMARK    1  A    between atoms: C_1  and  O_2
REMARK    2  A    between atoms: O_2  and  C_3
REMARK    3  A    between atoms: C_3  and  C_4
REMARK    4  A    between atoms: C_4  and  C_5
REMARK    5  A    between atoms: C_4  and  C_6
REMARK    6  A    between atoms: C_4  and  N_7
REMARK    7  A    between atoms: N_7  and  C_8
REMARK    8  A    between atoms: C_9  and  C_11
REMARK    9  A    between atoms: C_16  and  C_17
REMARK   10  A    between atoms: C_17  and  O_19
REMARK                            x       y       z     vdW  Elec       q    Type
REMARK                         _______ _______ _______ _____ _____    ______ ____
ROOT
ATOM      1  C   UNL     1       5.075   4.254  17.417  0.00  0.00    +0.000 A 
ATOM      2  C   UNL     1       5.957   5.051  18.149  0.00  0.00    +0.000 A 
ATOM      3  C   UNL     1       6.967   5.760  17.503  0.00  0.00    +0.000 A 
ATOM      4 BR   UNL     1       7.996   7.003  18.487  0.00  0.00    +0.000 Br
ATOM      5  C   UNL     1       7.200   5.587  16.149  0.00  0.00    +0.000 A 
ATOM      6  C   UNL     1       6.412   4.685  15.422  0.00  0.00    +0.000 A 
ATOM      7  C   UNL     1       5.329   4.047  16.043  0.00  0.00    +0.000 A 
ENDROOT
BRANCH   1  10
ATOM      8  N   UNL     1       3.048   4.179  18.986  0.00  0.00    +0.000 N 
ATOM      9  C   UNL     1       3.233   5.576  19.383  0.00  0.00    +0.000 C 
ATOM     10  C   UNL     1       3.893   3.554  18.034  0.00  0.00    +0.000 C 
ATOM     11  O   UNL     1       3.715   2.403  17.630  0.00  0.00    +0.000 OA
BRANCH   8  12
ATOM     12  C   UNL     1       1.900   3.397  19.596  0.00  0.00    +0.000 C 
ATOM     13  C   UNL     1       0.906   2.837  18.540  0.00  0.00    +0.000 C 
ATOM     14  C   UNL     1       1.060   4.309  20.522  0.00  0.00    +0.000 C 
BRANCH  12  15
ATOM     15  C   UNL     1       2.402   2.180  20.437  0.00  0.00    +0.000 C 
BRANCH  15  17
ATOM     16  C   UNL     1       4.648   1.717  20.955  0.00  0.00    +0.000 C 
ATOM     17  O   UNL     1       3.524   2.537  21.256  0.00  0.00    +0.000 OA
ENDBRANCH  15  17
ENDBRANCH  12  15
ENDBRANCH   8  12
ENDBRANCH   1  10
BRANCH   6  18
ATOM     18  C   UNL     1       6.749   4.492  13.987  0.00  0.00    +0.000 C 
ATOM     19  O   UNL     1       7.443   5.272  13.366  0.00  0.00    +0.000 OA
BRANCH  18  20
ATOM     20  O   UNL     1       6.278   3.345  13.460  0.00  0.00    +0.000 OA
ATOM     21  H   UNL     1       6.907   2.833  12.910  0.00  0.00    +0.000 HD
ENDBRANCH  18  20
ENDBRANCH   6  18
TORSDOF 6
ENDMDL
MODEL 7
REMARK VINA RESULT:      -6.4      2.523      3.034
REMARK  Name = 
REMARK  10 active torsions:
REMARK  status: ('A' for Active; 'I' for Inactive)
REMARK    1  A    between atoms: C_1  and  O_2
REMARK    2  A    between atoms: O_2  and  C_3
REMARK    3  A    between atoms: C_3  and  C_4
REMARK    4  A    between atoms: C_4  and  C_5
REMARK    5  A    between atoms: C_4  and  C_6
REMARK    6  A    between atoms: C_4  and  N_7
REMARK    7  A    between atoms: N_7  and  C_8
REMARK    8  A    between atoms: C_9  and  C_11
REMARK    9  A    between atoms: C_16  and  C_17
REMARK   10  A    between atoms: C_17  and  O_19
REMARK                            x       y       z     vdW  Elec       q    Type
REMARK                         _______ _______ _______ _____ _____    ______ ____
ROOT
ATOM      1  C   UNL     1       5.567   4.662  17.831  0.00  0.00    +0.000 A 
ATOM      2  C   UNL     1       6.332   5.737  18.285  0.00  0.00    +0.000 A 
ATOM      3  C   UNL     1       7.102   6.481  17.393  0.00  0.00    +0.000 A 
ATOM      4 BR   UNL     1       7.943   8.062  17.994  0.00  0.00    +0.000 Br
ATOM      5  C   UNL     1       7.229   6.089  16.070  0.00  0.00    +0.000 A 
ATOM      6  C   UNL     1       6.577   4.932  15.626  0.00  0.00    +0.000 A 
ATOM      7  C   UNL     1       5.719   4.238  16.492  0.00  0.00    +0.000 A 
ENDROOT
BRANCH   1  10
ATOM      8  N   UNL     1       3.222   4.098  18.703  0.00  0.00    +0.000 N 
ATOM      9  C   UNL     1       2.590   5.036  17.773  0.00  0.00    +0.000 C 
ATOM     10  C   UNL     1       4.624   3.890  18.717  0.00  0.00    +0.000 C 
ATOM     11  O   UNL     1       5.173   3.056  19.440  0.00  0.00    +0.000 OA
BRANCH   8  12
ATOM     12  C   UNL     1       2.338   3.314  19.654  0.00  0.00    +0.000 C 
ATOM     13  C   UNL     1       3.101   2.766  20.892  0.00  0.00    +0.000 C 
ATOM     14  C   UNL     1       1.747   2.074  18.941  0.00  0.00    +0.000 C 
BRANCH  12  15
ATOM     15  C   UNL     1       1.152   4.175  20.196  0.00  0.00    +0.000 C 
BRANCH  15  17
ATOM     16  C   UNL     1       1.539   6.428  20.741  0.00  0.00    +0.000 C 
ATOM     17  O   UNL     1       1.589   5.085  21.213  0.00  0.00    +0.000 OA
ENDBRANCH  15  17
ENDBRANCH  12  15
ENDBRANCH   8  12
ENDBRANCH   1  10
BRANCH   6  18
ATOM     18  C   UNL     1       6.801   4.525  14.214  0.00  0.00    +0.000 C 
ATOM     19  O   UNL     1       7.440   5.198  13.431  0.00  0.00    +0.000 OA
BRANCH  18  20
ATOM     20  O   UNL     1       6.295   3.315  13.902  0.00  0.00    +0.000 OA
ATOM     21  H   UNL     1       5.888   2.815  14.639  0.00  0.00    +0.000 HD
ENDBRANCH  18  20
ENDBRANCH   6  18
TORSDOF 6
ENDMDL
MODEL 8
REMARK VINA RESULT:      -6.4      1.514      2.269
REMARK  Name = 
REMARK  10 active torsions:
REMARK  status: ('A' for Active; 'I' for Inactive)
REMARK    1  A    between atoms: C_1  and  O_2
REMARK    2  A    between atoms: O_2  and  C_3
REMARK    3  A    between atoms: C_3  and  C_4
REMARK    4  A    between atoms: C_4  and  C_5
REMARK    5  A    between atoms: C_4  and  C_6
REMARK    6  A    between atoms: C_4  and  N_7
REMARK    7  A    between atoms: N_7  and  C_8
REMARK    8  A    between atoms: C_9  and  C_11
REMARK    9  A    between atoms: C_16  and  C_17
REMARK   10  A    between atoms: C_17  and  O_19
REMARK                            x       y       z     vdW  Elec       q    Type
REMARK                         _______ _______ _______ _____ _____    ______ ____
ROOT
ATOM      1  C   UNL     1       4.987   4.122  17.625  0.00  0.00    +0.000 A 
ATOM      2  C   UNL     1       5.222   4.191  16.251  0.00  0.00    +0.000 A 
ATOM      3  C   UNL     1       6.398   4.760  15.766  0.00  0.00    +0.000 A 
ATOM      4 BR   UNL     1       6.791   4.633  13.922  0.00  0.00    +0.000 Br
ATOM      5  C   UNL     1       7.289   5.385  16.622  0.00  0.00    +0.000 A 
ATOM      6  C   UNL     1       7.003   5.447  17.992  0.00  0.00    +0.000 A 
ATOM      7  C   UNL     1       5.874   4.787  18.500  0.00  0.00    +0.000 A 
ENDROOT
BRANCH   1  10
ATOM      8  N   UNL     1       2.868   4.076  19.069  0.00  0.00    +0.000 N 
ATOM      9  C   UNL     1       2.971   5.505  19.366  0.00  0.00    +0.000 C 
ATOM     10  C   UNL     1       3.796   3.419  18.222  0.00  0.00    +0.000 C 
ATOM     11  O   UNL     1       3.691   2.233  17.900  0.00  0.00    +0.000 OA
BRANCH   8  12
ATOM     12  C   UNL     1       1.715   3.292  19.668  0.00  0.00    +0.000 C 
ATOM     13  C   UNL     1       0.765   2.681  18.600  0.00  0.00    +0.000 C 
ATOM     14  C   UNL     1       0.831   4.216  20.539  0.00  0.00    +0.000 C 
BRANCH  12  15
ATOM     15  C   UNL     1       2.213   2.111  20.562  0.00  0.00    +0.000 C 
BRANCH  15  17
ATOM     16  C   UNL     1       4.459   1.770  21.163  0.00  0.00    +0.000 C 
ATOM     17  O   UNL     1       3.279   2.523  21.426  0.00  0.00    +0.000 OA
ENDBRANCH  15  17
ENDBRANCH  12  15
ENDBRANCH   8  12
ENDBRANCH   1  10
BRANCH   6  18
ATOM     18  C   UNL     1       7.963   6.185  18.854  0.00  0.00    +0.000 C 
ATOM     19  O   UNL     1       8.309   7.326  18.621  0.00  0.00    +0.000 OA
BRANCH  18  20
ATOM     20  O   UNL     1       8.356   5.506  19.949  0.00  0.00    +0.000 OA
ATOM     21  H   UNL     1       8.973   4.761  19.795  0.00  0.00    +0.000 HD
ENDBRANCH  18  20
ENDBRANCH   6  18
TORSDOF 6
ENDMDL
MODEL 9
REMARK VINA RESULT:      -6.4      2.663      3.588
REMARK  Name = 
REMARK  10 active torsions:
REMARK  status: ('A' for Active; 'I' for Inactive)
REMARK    1  A    between atoms: C_1  and  O_2
REMARK    2  A    between atoms: O_2  and  C_3
REMARK    3  A    between atoms: C_3  and  C_4
REMARK    4  A    between atoms: C_4  and  C_5
REMARK    5  A    between atoms: C_4  and  C_6
REMARK    6  A    between atoms: C_4  and  N_7
REMARK    7  A    between atoms: N_7  and  C_8
REMARK    8  A    between atoms: C_9  and  C_11
REMARK    9  A    between atoms: C_16  and  C_17
REMARK   10  A    between atoms: C_17  and  O_19
REMARK                            x       y       z     vdW  Elec       q    Type
REMARK                         _______ _______ _______ _____ _____    ______ ____
ROOT
ATOM      1  C   UNL     1       5.529   4.779  18.253  0.00  0.00    +0.000 A 
ATOM      2  C   UNL     1       6.389   5.775  18.717  0.00  0.00    +0.000 A 
ATOM      3  C   UNL     1       7.219   6.458  17.831  0.00  0.00    +0.000 A 
ATOM      4 BR   UNL     1       8.200   7.950  18.449  0.00  0.00    +0.000 Br
ATOM      5  C   UNL     1       7.306   6.075  16.503  0.00  0.00    +0.000 A 
ATOM      6  C   UNL     1       6.552   4.986  16.047  0.00  0.00    +0.000 A 
ATOM      7  C   UNL     1       5.638   4.361  16.908  0.00  0.00    +0.000 A 
ENDROOT
BRANCH   1  10
ATOM      8  N   UNL     1       3.184   4.532  19.264  0.00  0.00    +0.000 N 
ATOM      9  C   UNL     1       2.672   5.668  18.495  0.00  0.00    +0.000 C 
ATOM     10  C   UNL     1       4.523   4.083  19.133  0.00  0.00    +0.000 C 
ATOM     11  O   UNL     1       4.959   3.087  19.714  0.00  0.00    +0.000 OA
BRANCH   8  12
ATOM     12  C   UNL     1       2.239   3.805  20.202  0.00  0.00    +0.000 C 
ATOM     13  C   UNL     1       0.805   4.406  20.217  0.00  0.00    +0.000 C 
ATOM     14  C   UNL     1       2.750   3.899  21.659  0.00  0.00    +0.000 C 
BRANCH  12  15
ATOM     15  C   UNL     1       2.095   2.295  19.832  0.00  0.00    +0.000 C 
BRANCH  15  17
ATOM     16  C   UNL     1       2.428   1.931  17.534  0.00  0.00    +0.000 C 
ATOM     17  O   UNL     1       1.459   2.125  18.559  0.00  0.00    +0.000 OA
ENDBRANCH  15  17
ENDBRANCH  12  15
ENDBRANCH   8  12
ENDBRANCH   1  10
BRANCH   6  18
ATOM     18  C   UNL     1       6.734   4.579  14.629  0.00  0.00    +0.000 C 
ATOM     19  O   UNL     1       7.343   5.256  13.826  0.00  0.00    +0.000 OA
BRANCH  18  20
ATOM     20  O   UNL     1       6.227   3.366  14.334  0.00  0.00    +0.000 OA
ATOM     21  H   UNL     1       6.647   2.603  14.784  0.00  0.00    +0.000 HD
ENDBRANCH  18  20
ENDBRANCH   6  18
TORSDOF 6
ENDMDL
