MODEL 1
REMARK VINA RESULT:      -9.0      0.000      0.000
REMARK  Name = 
REMARK  6 active torsions:
REMARK  status: ('A' for Active; 'I' for Inactive)
REMARK    1  A    between atoms: C_2  and  C_3
REMARK    2  A    between atoms: C_8  and  C_10
REMARK    3  A    between atoms: C_14  and  O_15
REMARK    4  A    between atoms: N_19  and  C_20
REMARK    5  A    between atoms: N_23  and  C_24
REMARK    6  A    between atoms: C_24  and  C_25
REMARK                            x       y       z     vdW  Elec       q    Type
REMARK                         _______ _______ _______ _____ _____    ______ ____
ROOT
ATOM      1  O   UNL     1       3.062   8.971  17.216  0.00  0.00    +0.000 OA
ATOM      2  C   UNL     1       2.001   8.626  17.710  0.00  0.00    +0.000 C 
ATOM      3  N   UNL     1       1.700   7.348  18.105  0.00  0.00    +0.000 N 
ATOM      4  H   UNL     1       0.871   7.190  18.660  0.00  0.00    +0.000 HD
ENDROOT
BRANCH   2   5
ATOM      5  C   UNL     1       0.844   9.540  17.900  0.00  0.00    +0.000 C 
ATOM      6  C   UNL     1       0.269   9.878  19.069  0.00  0.00    +0.000 C 
ATOM      7  C   UNL     1       0.600   9.321  20.439  0.00  0.00    +0.000 C 
ATOM      8  C   UNL     1       0.877  10.450  21.442  0.00  0.00    +0.000 C 
ATOM      9  N   UNL     1      -0.230  11.414  21.476  0.00  0.00    +0.000 N 
ATOM     10  C   UNL     1      -0.899  11.626  22.685  0.00  0.00    +0.000 C 
ATOM     11  O   UNL     1      -0.661  10.956  23.691  0.00  0.00    +0.000 OA
ATOM     12  C   UNL     1      -0.559  11.992  20.165  0.00  0.00    +0.000 C 
ATOM     13  C   UNL     1      -0.828  10.918  19.106  0.00  0.00    +0.000 C 
BRANCH  10  14
ATOM     14  C   UNL     1      -1.961  12.660  22.808  0.00  0.00    +0.000 A 
ATOM     15  C   UNL     1      -3.299  12.277  22.615  0.00  0.00    +0.000 A 
ATOM     16  C   UNL     1      -4.320  13.231  22.669  0.00  0.00    +0.000 A 
ATOM     17  C   UNL     1      -4.009  14.573  22.893  0.00  0.00    +0.000 A 
ATOM     18  C   UNL     1      -2.687  14.933  23.133  0.00  0.00    +0.000 A 
ATOM     19  C   UNL     1      -1.677  13.982  23.152  0.00  0.00    +0.000 A 
BRANCH  18  20
ATOM     20  O   UNL     1      -2.323  16.231  23.335  0.00  0.00    +0.000 OA
ATOM     21  H   UNL     1      -1.505  16.247  23.859  0.00  0.00    +0.000 HD
ENDBRANCH  18  20
ENDBRANCH  10  14
ENDBRANCH   2   5
BRANCH   3  22
ATOM     22  C   UNL     1       2.624   6.236  17.913  0.00  0.00    +0.000 C 
ATOM     23  C   UNL     1       1.842   4.931  17.927  0.00  0.00    +0.000 C 
ATOM     24  C   UNL     1       1.915   4.523  19.389  0.00  0.00    +0.000 C 
ATOM     25  N   UNL     1       3.296   4.831  19.798  0.00  0.00    +0.000 NA
ATOM     26  C   UNL     1       3.635   6.083  19.070  0.00  0.00    +0.000 C 
BRANCH  25  27
ATOM     27  C   UNL     1       4.188   3.713  19.438  0.00  0.00    +0.000 C 
BRANCH  27  28
ATOM     28  C   UNL     1       5.109   3.998  18.273  0.00  0.00    +0.000 A 
ATOM     29  C   UNL     1       6.313   4.681  18.485  0.00  0.00    +0.000 A 
ATOM     30  C   UNL     1       7.131   5.028  17.411  0.00  0.00    +0.000 A 
ATOM     31  C   UNL     1       6.766   4.697  16.100  0.00  0.00    +0.000 A 
ATOM     32  C   UNL     1       7.562   5.075  15.010  0.00  0.00    +0.000 A 
ATOM     33  C   UNL     1       7.190   4.719  13.720  0.00  0.00    +0.000 A 
ATOM     34  F   UNL     1       7.956   5.095  12.687  0.00  0.00    +0.000 F 
ATOM     35  C   UNL     1       6.037   3.981  13.484  0.00  0.00    +0.000 A 
ATOM     36  C   UNL     1       5.228   3.608  14.558  0.00  0.00    +0.000 A 
ATOM     37  C   UNL     1       5.572   3.969  15.872  0.00  0.00    +0.000 A 
ATOM     38  C   UNL     1       4.755   3.634  16.965  0.00  0.00    +0.000 A 
ENDBRANCH  27  28
ENDBRANCH  25  27
ENDBRANCH   3  22
TORSDOF 6
ENDMDL
MODEL 2
REMARK VINA RESULT:      -9.0      1.675      2.257
REMARK  Name = 
REMARK  6 active torsions:
REMARK  status: ('A' for Active; 'I' for Inactive)
REMARK    1  A    between atoms: C_2  and  C_3
REMARK    2  A    between atoms: C_8  and  C_10
REMARK    3  A    between atoms: C_14  and  O_15
REMARK    4  A    between atoms: N_19  and  C_20
REMARK    5  A    between atoms: N_23  and  C_24
REMARK    6  A    between atoms: C_24  and  C_25
REMARK                            x       y       z     vdW  Elec       q    Type
REMARK                         _______ _______ _______ _____ _____    ______ ____
ROOT
ATOM      1  O   UNL     1       1.539   8.485  19.506  0.00  0.00    +0.000 OA
ATOM      2  C   UNL     1       1.317   7.955  20.583  0.00  0.00    +0.000 C 
ATOM      3  N   UNL     1       1.453   6.614  20.838  0.00  0.00    +0.000 N 
ATOM      4  H   UNL     1       1.418   6.293  21.795  0.00  0.00    +0.000 HD
ENDROOT
BRANCH   2   5
ATOM      5  C   UNL     1       0.797   8.684  21.770  0.00  0.00    +0.000 C 
ATOM      6  C   UNL     1       0.452   9.984  21.827  0.00  0.00    +0.000 C 
ATOM      7  C   UNL     1       0.621  11.018  20.733  0.00  0.00    +0.000 C 
ATOM      8  C   UNL     1      -0.700  11.754  20.461  0.00  0.00    +0.000 C 
ATOM      9  N   UNL     1      -1.255  12.323  21.696  0.00  0.00    +0.000 N 
ATOM     10  C   UNL     1      -1.457  13.704  21.767  0.00  0.00    +0.000 C 
ATOM     11  O   UNL     1      -1.091  14.467  20.873  0.00  0.00    +0.000 OA
ATOM     12  C   UNL     1      -1.452  11.339  22.771  0.00  0.00    +0.000 C 
ATOM     13  C   UNL     1      -0.176  10.550  23.081  0.00  0.00    +0.000 C 
BRANCH  10  14
ATOM     14  C   UNL     1      -2.108  14.328  22.951  0.00  0.00    +0.000 A 
ATOM     15  C   UNL     1      -1.294  14.805  23.993  0.00  0.00    +0.000 A 
ATOM     16  C   UNL     1      -1.870  15.349  25.144  0.00  0.00    +0.000 A 
ATOM     17  C   UNL     1      -3.259  15.398  25.272  0.00  0.00    +0.000 A 
ATOM     18  C   UNL     1      -4.054  14.970  24.215  0.00  0.00    +0.000 A 
ATOM     19  C   UNL     1      -3.490  14.495  23.039  0.00  0.00    +0.000 A 
BRANCH  18  20
ATOM     20  O   UNL     1      -5.415  14.974  24.294  0.00  0.00    +0.000 OA
ATOM     21  H   UNL     1      -5.714  14.091  24.565  0.00  0.00    +0.000 HD
ENDBRANCH  18  20
ENDBRANCH  10  14
ENDBRANCH   2   5
BRANCH   3  22
ATOM     22  C   UNL     1       1.834   5.659  19.804  0.00  0.00    +0.000 C 
ATOM     23  C   UNL     1       1.344   4.275  20.200  0.00  0.00    +0.000 C 
ATOM     24  C   UNL     1       2.544   3.703  20.935  0.00  0.00    +0.000 C 
ATOM     25  N   UNL     1       3.710   4.129  20.144  0.00  0.00    +0.000 NA
ATOM     26  C   UNL     1       3.362   5.494  19.665  0.00  0.00    +0.000 C 
BRANCH  25  27
ATOM     27  C   UNL     1       3.936   3.185  19.034  0.00  0.00    +0.000 C 
BRANCH  27  28
ATOM     28  C   UNL     1       4.945   3.654  18.010  0.00  0.00    +0.000 A 
ATOM     29  C   UNL     1       6.088   4.350  18.422  0.00  0.00    +0.000 A 
ATOM     30  C   UNL     1       6.983   4.865  17.484  0.00  0.00    +0.000 A 
ATOM     31  C   UNL     1       6.757   4.691  16.113  0.00  0.00    +0.000 A 
ATOM     32  C   UNL     1       7.630   5.237  15.162  0.00  0.00    +0.000 A 
ATOM     33  C   UNL     1       7.397   5.036  13.807  0.00  0.00    +0.000 A 
ATOM     34  F   UNL     1       8.235   5.571  12.909  0.00  0.00    +0.000 F 
ATOM     35  C   UNL     1       6.311   4.290  13.370  0.00  0.00    +0.000 A 
ATOM     36  C   UNL     1       5.426   3.751  14.305  0.00  0.00    +0.000 A 
ATOM     37  C   UNL     1       5.629   3.952  15.681  0.00  0.00    +0.000 A 
ATOM     38  C   UNL     1       4.732   3.448  16.638  0.00  0.00    +0.000 A 
ENDBRANCH  27  28
ENDBRANCH  25  27
ENDBRANCH   3  22
TORSDOF 6
ENDMDL
MODEL 3
REMARK VINA RESULT:      -8.8      7.169      9.349
REMARK  Name = 
REMARK  6 active torsions:
REMARK  status: ('A' for Active; 'I' for Inactive)
REMARK    1  A    between atoms: C_2  and  C_3
REMARK    2  A    between atoms: C_8  and  C_10
REMARK    3  A    between atoms: C_14  and  O_15
REMARK    4  A    between atoms: N_19  and  C_20
REMARK    5  A    between atoms: N_23  and  C_24
REMARK    6  A    between atoms: C_24  and  C_25
REMARK                            x       y       z     vdW  Elec       q    Type
REMARK                         _______ _______ _______ _____ _____    ______ ____
ROOT
ATOM      1  O   UNL     1       8.710   7.652  18.908  0.00  0.00    +0.000 OA
ATOM      2  C   UNL     1       8.067   8.240  18.053  0.00  0.00    +0.000 C 
ATOM      3  N   UNL     1       7.031   7.695  17.339  0.00  0.00    +0.000 N 
ATOM      4  H   UNL     1       6.447   8.302  16.783  0.00  0.00    +0.000 HD
ENDROOT
BRANCH   2   5
ATOM      5  C   UNL     1       8.358   9.630  17.612  0.00  0.00    +0.000 C 
ATOM      6  C   UNL     1       8.622  10.686  18.404  0.00  0.00    +0.000 C 
ATOM      7  C   UNL     1       8.572  10.722  19.919  0.00  0.00    +0.000 C 
ATOM      8  C   UNL     1       9.879  11.281  20.500  0.00  0.00    +0.000 C 
ATOM      9  N   UNL     1      10.206  12.587  19.914  0.00  0.00    +0.000 N 
ATOM     10  C   UNL     1      10.324  13.692  20.762  0.00  0.00    +0.000 C 
ATOM     11  O   UNL     1      10.061  13.628  21.963  0.00  0.00    +0.000 OA
ATOM     12  C   UNL     1      10.285  12.580  18.446  0.00  0.00    +0.000 C 
ATOM     13  C   UNL     1       9.018  12.013  17.796  0.00  0.00    +0.000 C 
BRANCH  10  14
ATOM     14  C   UNL     1      10.749  15.020  20.243  0.00  0.00    +0.000 A 
ATOM     15  C   UNL     1      11.866  15.084  19.392  0.00  0.00    +0.000 A 
ATOM     16  C   UNL     1      12.328  16.319  18.928  0.00  0.00    +0.000 A 
ATOM     17  C   UNL     1      11.694  17.496  19.328  0.00  0.00    +0.000 A 
ATOM     18  C   UNL     1      10.560  17.418  20.129  0.00  0.00    +0.000 A 
ATOM     19  C   UNL     1      10.052  16.192  20.536  0.00  0.00    +0.000 A 
BRANCH  18  20
ATOM     20  O   UNL     1       9.914  18.535  20.568  0.00  0.00    +0.000 OA
ATOM     21  H   UNL     1      10.560  19.120  20.998  0.00  0.00    +0.000 HD
ENDBRANCH  18  20
ENDBRANCH  10  14
ENDBRANCH   2   5
BRANCH   3  22
ATOM     22  C   UNL     1       6.626   6.302  17.496  0.00  0.00    +0.000 C 
ATOM     23  C   UNL     1       7.485   5.429  16.595  0.00  0.00    +0.000 C 
ATOM     24  C   UNL     1       6.654   5.354  15.325  0.00  0.00    +0.000 C 
ATOM     25  N   UNL     1       5.266   5.196  15.791  0.00  0.00    +0.000 NA
ATOM     26  C   UNL     1       5.183   6.035  17.017  0.00  0.00    +0.000 C 
BRANCH  25  27
ATOM     27  C   UNL     1       4.986   3.774  16.062  0.00  0.00    +0.000 C 
BRANCH  27  28
ATOM     28  C   UNL     1       3.957   3.535  17.145  0.00  0.00    +0.000 A 
ATOM     29  C   UNL     1       2.616   3.872  16.921  0.00  0.00    +0.000 A 
ATOM     30  C   UNL     1       1.672   3.739  17.939  0.00  0.00    +0.000 A 
ATOM     31  C   UNL     1       2.046   3.263  19.202  0.00  0.00    +0.000 A 
ATOM     32  C   UNL     1       1.113   3.163  20.242  0.00  0.00    +0.000 A 
ATOM     33  C   UNL     1       1.502   2.670  21.481  0.00  0.00    +0.000 A 
ATOM     34  F   UNL     1       0.601   2.588  22.469  0.00  0.00    +0.000 F 
ATOM     35  C   UNL     1       2.809   2.263  21.712  0.00  0.00    +0.000 A 
ATOM     36  C   UNL     1       3.753   2.369  20.689  0.00  0.00    +0.000 A 
ATOM     37  C   UNL     1       3.390   2.879  19.431  0.00  0.00    +0.000 A 
ATOM     38  C   UNL     1       4.331   3.026  18.398  0.00  0.00    +0.000 A 
ENDBRANCH  27  28
ENDBRANCH  25  27
ENDBRANCH   3  22
TORSDOF 6
ENDMDL
MODEL 4
REMARK VINA RESULT:      -8.8      2.758      5.116
REMARK  Name = 
REMARK  6 active torsions:
REMARK  status: ('A' for Active; 'I' for Inactive)
REMARK    1  A    between atoms: C_2  and  C_3
REMARK    2  A    between atoms: C_8  and  C_10
REMARK    3  A    between atoms: C_14  and  O_15
REMARK    4  A    between atoms: N_19  and  C_20
REMARK    5  A    between atoms: N_23  and  C_24
REMARK    6  A    between atoms: C_24  and  C_25
REMARK                            x       y       z     vdW  Elec       q    Type
REMARK                         _______ _______ _______ _____ _____    ______ ____
ROOT
ATOM      1  O   UNL     1       0.640   9.825  23.414  0.00  0.00    +0.000 OA
ATOM      2  C   UNL     1      -0.193  10.316  22.670  0.00  0.00    +0.000 C 
ATOM      3  N   UNL     1      -0.040  10.470  21.316  0.00  0.00    +0.000 N 
ATOM      4  H   UNL     1      -0.842  10.722  20.758  0.00  0.00    +0.000 HD
ENDROOT
BRANCH   2   5
ATOM      5  C   UNL     1      -1.485  10.884  23.138  0.00  0.00    +0.000 C 
ATOM      6  C   UNL     1      -1.842  12.181  23.130  0.00  0.00    +0.000 C 
ATOM      7  C   UNL     1      -0.972  13.362  22.749  0.00  0.00    +0.000 C 
ATOM      8  C   UNL     1      -1.664  14.241  21.697  0.00  0.00    +0.000 C 
ATOM      9  N   UNL     1      -3.004  14.646  22.141  0.00  0.00    +0.000 N 
ATOM     10  C   UNL     1      -3.286  16.010  22.264  0.00  0.00    +0.000 C 
ATOM     11  O   UNL     1      -2.422  16.874  22.114  0.00  0.00    +0.000 OA
ATOM     12  C   UNL     1      -3.881  13.522  22.496  0.00  0.00    +0.000 C 
ATOM     13  C   UNL     1      -3.244  12.587  23.530  0.00  0.00    +0.000 C 
BRANCH  10  14
ATOM     14  C   UNL     1      -4.652  16.486  22.613  0.00  0.00    +0.000 A 
ATOM     15  C   UNL     1      -4.919  16.846  23.944  0.00  0.00    +0.000 A 
ATOM     16  C   UNL     1      -6.205  17.248  24.321  0.00  0.00    +0.000 A 
ATOM     17  C   UNL     1      -7.233  17.269  23.377  0.00  0.00    +0.000 A 
ATOM     18  C   UNL     1      -6.946  16.958  22.053  0.00  0.00    +0.000 A 
ATOM     19  C   UNL     1      -5.658  16.628  21.656  0.00  0.00    +0.000 A 
BRANCH  18  20
ATOM     20  O   UNL     1      -7.915  16.940  21.094  0.00  0.00    +0.000 OA
ATOM     21  H   UNL     1      -8.582  16.277  21.337  0.00  0.00    +0.000 HD
ENDBRANCH  18  20
ENDBRANCH  10  14
ENDBRANCH   2   5
BRANCH   3  22
ATOM     22  C   UNL     1       1.192  10.104  20.625  0.00  0.00    +0.000 C 
ATOM     23  C   UNL     1       1.362  10.994  19.404  0.00  0.00    +0.000 C 
ATOM     24  C   UNL     1       0.700  10.175  18.309  0.00  0.00    +0.000 C 
ATOM     25  N   UNL     1       1.126   8.790  18.565  0.00  0.00    +0.000 NA
ATOM     26  C   UNL     1       1.159   8.673  20.047  0.00  0.00    +0.000 C 
BRANCH  25  27
ATOM     27  C   UNL     1       2.446   8.548  17.953  0.00  0.00    +0.000 C 
BRANCH  27  28
ATOM     28  C   UNL     1       2.930   7.119  18.053  0.00  0.00    +0.000 A 
ATOM     29  C   UNL     1       4.301   6.840  17.997  0.00  0.00    +0.000 A 
ATOM     30  C   UNL     1       4.758   5.522  18.000  0.00  0.00    +0.000 A 
ATOM     31  C   UNL     1       3.854   4.454  18.064  0.00  0.00    +0.000 A 
ATOM     32  C   UNL     1       4.301   3.126  18.028  0.00  0.00    +0.000 A 
ATOM     33  C   UNL     1       3.388   2.083  18.112  0.00  0.00    +0.000 A 
ATOM     34  F   UNL     1       3.829   0.818  18.068  0.00  0.00    +0.000 F 
ATOM     35  C   UNL     1       2.027   2.329  18.239  0.00  0.00    +0.000 A 
ATOM     36  C   UNL     1       1.567   3.646  18.262  0.00  0.00    +0.000 A 
ATOM     37  C   UNL     1       2.467   4.721  18.163  0.00  0.00    +0.000 A 
ATOM     38  C   UNL     1       2.022   6.053  18.150  0.00  0.00    +0.000 A 
ENDBRANCH  27  28
ENDBRANCH  25  27
ENDBRANCH   3  22
TORSDOF 6
ENDMDL
MODEL 5
REMARK VINA RESULT:      -8.7      1.866      2.707
REMARK  Name = 
REMARK  6 active torsions:
REMARK  status: ('A' for Active; 'I' for Inactive)
REMARK    1  A    between atoms: C_2  and  C_3
REMARK    2  A    between atoms: C_8  and  C_10
REMARK    3  A    between atoms: C_14  and  O_15
REMARK    4  A    between atoms: N_19  and  C_20
REMARK    5  A    between atoms: N_23  and  C_24
REMARK    6  A    between atoms: C_24  and  C_25
REMARK                            x       y       z     vdW  Elec       q    Type
REMARK                         _______ _______ _______ _____ _____    ______ ____
ROOT
ATOM      1  O   UNL     1       1.724   8.297  19.734  0.00  0.00    +0.000 OA
ATOM      2  C   UNL     1       1.395   7.829  20.812  0.00  0.00    +0.000 C 
ATOM      3  N   UNL     1       1.412   6.494  21.124  0.00  0.00    +0.000 N 
ATOM      4  H   UNL     1       1.292   6.214  22.086  0.00  0.00    +0.000 HD
ENDROOT
BRANCH   2   5
ATOM      5  C   UNL     1       0.859   8.642  21.935  0.00  0.00    +0.000 C 
ATOM      6  C   UNL     1       0.416   9.912  21.869  0.00  0.00    +0.000 C 
ATOM      7  C   UNL     1       0.468  10.831  20.665  0.00  0.00    +0.000 C 
ATOM      8  C   UNL     1      -0.913  11.434  20.371  0.00  0.00    +0.000 C 
ATOM      9  N   UNL     1      -1.470  12.091  21.561  0.00  0.00    +0.000 N 
ATOM     10  C   UNL     1      -1.777  13.452  21.494  0.00  0.00    +0.000 C 
ATOM     11  O   UNL     1      -1.500  14.139  20.509  0.00  0.00    +0.000 OA
ATOM     12  C   UNL     1      -1.557  11.217  22.740  0.00  0.00    +0.000 C 
ATOM     13  C   UNL     1      -0.213  10.562  23.080  0.00  0.00    +0.000 C 
BRANCH  10  14
ATOM     14  C   UNL     1      -2.436  14.152  22.630  0.00  0.00    +0.000 A 
ATOM     15  C   UNL     1      -1.636  14.886  23.522  0.00  0.00    +0.000 A 
ATOM     16  C   UNL     1      -2.212  15.512  24.632  0.00  0.00    +0.000 A 
ATOM     17  C   UNL     1      -3.582  15.389  24.869  0.00  0.00    +0.000 A 
ATOM     18  C   UNL     1      -4.371  14.703  23.953  0.00  0.00    +0.000 A 
ATOM     19  C   UNL     1      -3.819  14.139  22.811  0.00  0.00    +0.000 A 
BRANCH  18  20
ATOM     20  O   UNL     1      -5.709  14.532  24.145  0.00  0.00    +0.000 OA
ATOM     21  H   UNL     1      -5.997  15.114  24.868  0.00  0.00    +0.000 HD
ENDBRANCH  18  20
ENDBRANCH  10  14
ENDBRANCH   2   5
BRANCH   3  22
ATOM     22  C   UNL     1       1.783   5.472  20.151  0.00  0.00    +0.000 C 
ATOM     23  C   UNL     1       0.873   4.266  20.325  0.00  0.00    +0.000 C 
ATOM     24  C   UNL     1       1.664   3.398  21.290  0.00  0.00    +0.000 C 
ATOM     25  N   UNL     1       3.060   3.501  20.833  0.00  0.00    +0.000 NA
ATOM     26  C   UNL     1       3.203   4.909  20.375  0.00  0.00    +0.000 C 
BRANCH  25  27
ATOM     27  C   UNL     1       3.308   2.531  19.751  0.00  0.00    +0.000 C 
BRANCH  27  28
ATOM     28  C   UNL     1       3.861   3.137  18.481  0.00  0.00    +0.000 A 
ATOM     29  C   UNL     1       3.056   3.223  17.339  0.00  0.00    +0.000 A 
ATOM     30  C   UNL     1       3.578   3.700  16.136  0.00  0.00    +0.000 A 
ATOM     31  C   UNL     1       4.916   4.105  16.051  0.00  0.00    +0.000 A 
ATOM     32  C   UNL     1       5.460   4.548  14.837  0.00  0.00    +0.000 A 
ATOM     33  C   UNL     1       6.785   4.963  14.780  0.00  0.00    +0.000 A 
ATOM     34  F   UNL     1       7.294   5.377  13.612  0.00  0.00    +0.000 F 
ATOM     35  C   UNL     1       7.588   4.956  15.912  0.00  0.00    +0.000 A 
ATOM     36  C   UNL     1       7.063   4.504  17.124  0.00  0.00    +0.000 A 
ATOM     37  C   UNL     1       5.732   4.064  17.207  0.00  0.00    +0.000 A 
ATOM     38  C   UNL     1       5.193   3.573  18.409  0.00  0.00    +0.000 A 
ENDBRANCH  27  28
ENDBRANCH  25  27
ENDBRANCH   3  22
TORSDOF 6
ENDMDL
MODEL 6
REMARK VINA RESULT:      -8.7      2.687      5.190
REMARK  Name = 
REMARK  6 active torsions:
REMARK  status: ('A' for Active; 'I' for Inactive)
REMARK    1  A    between atoms: C_2  and  C_3
REMARK    2  A    between atoms: C_8  and  C_10
REMARK    3  A    between atoms: C_14  and  O_15
REMARK    4  A    between atoms: N_19  and  C_20
REMARK    5  A    between atoms: N_23  and  C_24
REMARK    6  A    between atoms: C_24  and  C_25
REMARK                            x       y       z     vdW  Elec       q    Type
REMARK                         _______ _______ _______ _____ _____    ______ ____
ROOT
ATOM      1  O   UNL     1       0.592   9.861  22.991  0.00  0.00    +0.000 OA
ATOM      2  C   UNL     1      -0.165  10.619  22.407  0.00  0.00    +0.000 C 
ATOM      3  N   UNL     1       0.005  11.057  21.119  0.00  0.00    +0.000 N 
ATOM      4  H   UNL     1      -0.755  11.537  20.661  0.00  0.00    +0.000 HD
ENDROOT
BRANCH   2   5
ATOM      5  C   UNL     1      -1.363  11.236  23.036  0.00  0.00    +0.000 C 
ATOM      6  C   UNL     1      -1.607  12.551  23.183  0.00  0.00    +0.000 C 
ATOM      7  C   UNL     1      -0.669  13.693  22.842  0.00  0.00    +0.000 C 
ATOM      8  C   UNL     1      -1.362  14.726  21.941  0.00  0.00    +0.000 C 
ATOM      9  N   UNL     1      -2.623  15.188  22.535  0.00  0.00    +0.000 N 
ATOM     10  C   UNL     1      -2.777  16.549  22.811  0.00  0.00    +0.000 C 
ATOM     11  O   UNL     1      -1.855  17.354  22.670  0.00  0.00    +0.000 OA
ATOM     12  C   UNL     1      -3.565  14.105  22.855  0.00  0.00    +0.000 C 
ATOM     13  C   UNL     1      -2.932  13.023  23.737  0.00  0.00    +0.000 C 
BRANCH  10  14
ATOM     14  C   UNL     1      -4.065  17.093  23.319  0.00  0.00    +0.000 A 
ATOM     15  C   UNL     1      -5.140  17.224  22.424  0.00  0.00    +0.000 A 
ATOM     16  C   UNL     1      -6.349  17.781  22.852  0.00  0.00    +0.000 A 
ATOM     17  C   UNL     1      -6.483  18.230  24.167  0.00  0.00    +0.000 A 
ATOM     18  C   UNL     1      -5.430  18.050  25.057  0.00  0.00    +0.000 A 
ATOM     19  C   UNL     1      -4.252  17.433  24.659  0.00  0.00    +0.000 A 
BRANCH  18  20
ATOM     20  O   UNL     1      -5.497  18.490  26.345  0.00  0.00    +0.000 OA
ATOM     21  H   UNL     1      -6.312  18.149  26.749  0.00  0.00    +0.000 HD
ENDBRANCH  18  20
ENDBRANCH  10  14
ENDBRANCH   2   5
BRANCH   3  22
ATOM     22  C   UNL     1       1.171  10.693  20.321  0.00  0.00    +0.000 C 
ATOM     23  C   UNL     1       1.080  11.378  18.966  0.00  0.00    +0.000 C 
ATOM     24  C   UNL     1       0.380  10.330  18.118  0.00  0.00    +0.000 C 
ATOM     25  N   UNL     1       0.990   9.051  18.519  0.00  0.00    +0.000 NA
ATOM     26  C   UNL     1       1.227   9.189  19.981  0.00  0.00    +0.000 C 
BRANCH  25  27
ATOM     27  C   UNL     1       2.239   8.832  17.765  0.00  0.00    +0.000 C 
BRANCH  27  28
ATOM     28  C   UNL     1       2.755   7.412  17.811  0.00  0.00    +0.000 A 
ATOM     29  C   UNL     1       4.094   7.144  17.499  0.00  0.00    +0.000 A 
ATOM     30  C   UNL     1       4.563   5.832  17.451  0.00  0.00    +0.000 A 
ATOM     31  C   UNL     1       3.705   4.757  17.719  0.00  0.00    +0.000 A 
ATOM     32  C   UNL     1       4.158   3.433  17.636  0.00  0.00    +0.000 A 
ATOM     33  C   UNL     1       3.294   2.384  17.924  0.00  0.00    +0.000 A 
ATOM     34  F   UNL     1       3.738   1.123  17.832  0.00  0.00    +0.000 F 
ATOM     35  C   UNL     1       1.980   2.621  18.305  0.00  0.00    +0.000 A 
ATOM     36  C   UNL     1       1.512   3.934  18.379  0.00  0.00    +0.000 A 
ATOM     37  C   UNL     1       2.360   5.013  18.077  0.00  0.00    +0.000 A 
ATOM     38  C   UNL     1       1.900   6.340  18.113  0.00  0.00    +0.000 A 
ENDBRANCH  27  28
ENDBRANCH  25  27
ENDBRANCH   3  22
TORSDOF 6
ENDMDL
MODEL 7
REMARK VINA RESULT:      -8.6      1.655      2.353
REMARK  Name = 
REMARK  6 active torsions:
REMARK  status: ('A' for Active; 'I' for Inactive)
REMARK    1  A    between atoms: C_2  and  C_3
REMARK    2  A    between atoms: C_8  and  C_10
REMARK    3  A    between atoms: C_14  and  O_15
REMARK    4  A    between atoms: N_19  and  C_20
REMARK    5  A    between atoms: N_23  and  C_24
REMARK    6  A    between atoms: C_24  and  C_25
REMARK                            x       y       z     vdW  Elec       q    Type
REMARK                         _______ _______ _______ _____ _____    ______ ____
ROOT
ATOM      1  O   UNL     1       2.110   7.896  19.328  0.00  0.00    +0.000 OA
ATOM      2  C   UNL     1       1.804   7.349  20.375  0.00  0.00    +0.000 C 
ATOM      3  N   UNL     1       1.800   5.992  20.576  0.00  0.00    +0.000 N 
ATOM      4  H   UNL     1       1.704   5.638  21.517  0.00  0.00    +0.000 HD
ENDROOT
BRANCH   2   5
ATOM      5  C   UNL     1       1.326   8.078  21.578  0.00  0.00    +0.000 C 
ATOM      6  C   UNL     1       0.873   9.345  21.623  0.00  0.00    +0.000 C 
ATOM      7  C   UNL     1       0.855  10.345  20.484  0.00  0.00    +0.000 C 
ATOM      8  C   UNL     1      -0.544  10.954  20.307  0.00  0.00    +0.000 C 
ATOM      9  N   UNL     1      -1.039  11.523  21.567  0.00  0.00    +0.000 N 
ATOM     10  C   UNL     1      -1.357  12.883  21.610  0.00  0.00    +0.000 C 
ATOM     11  O   UNL     1      -1.137  13.638  20.662  0.00  0.00    +0.000 OA
ATOM     12  C   UNL     1      -1.057  10.570  22.687  0.00  0.00    +0.000 C 
ATOM     13  C   UNL     1       0.307   9.906  22.909  0.00  0.00    +0.000 C 
BRANCH  10  14
ATOM     14  C   UNL     1      -1.956  13.497  22.825  0.00  0.00    +0.000 A 
ATOM     15  C   UNL     1      -1.195  14.425  23.556  0.00  0.00    +0.000 A 
ATOM     16  C   UNL     1      -1.704  14.983  24.733  0.00  0.00    +0.000 A 
ATOM     17  C   UNL     1      -2.963  14.600  25.198  0.00  0.00    +0.000 A 
ATOM     18  C   UNL     1      -3.728  13.719  24.441  0.00  0.00    +0.000 A 
ATOM     19  C   UNL     1      -3.260  13.216  23.236  0.00  0.00    +0.000 A 
BRANCH  18  20
ATOM     20  O   UNL     1      -4.954  13.294  24.859  0.00  0.00    +0.000 OA
ATOM     21  H   UNL     1      -5.618  13.568  24.205  0.00  0.00    +0.000 HD
ENDBRANCH  18  20
ENDBRANCH  10  14
ENDBRANCH   2   5
BRANCH   3  22
ATOM     22  C   UNL     1       2.113   5.046  19.512  0.00  0.00    +0.000 C 
ATOM     23  C   UNL     1       2.445   3.696  20.128  0.00  0.00    +0.000 C 
ATOM     24  C   UNL     1       3.955   3.769  20.280  0.00  0.00    +0.000 C 
ATOM     25  N   UNL     1       4.428   4.412  19.043  0.00  0.00    +0.000 NA
ATOM     26  C   UNL     1       3.384   5.422  18.722  0.00  0.00    +0.000 C 
BRANCH  25  27
ATOM     27  C   UNL     1       4.581   3.404  17.979  0.00  0.00    +0.000 C 
BRANCH  27  28
ATOM     28  C   UNL     1       5.432   3.851  16.811  0.00  0.00    +0.000 A 
ATOM     29  C   UNL     1       6.482   4.753  17.018  0.00  0.00    +0.000 A 
ATOM     30  C   UNL     1       7.220   5.242  15.940  0.00  0.00    +0.000 A 
ATOM     31  C   UNL     1       6.926   4.836  14.632  0.00  0.00    +0.000 A 
ATOM     32  C   UNL     1       7.636   5.351  13.539  0.00  0.00    +0.000 A 
ATOM     33  C   UNL     1       7.341   4.919  12.251  0.00  0.00    +0.000 A 
ATOM     34  F   UNL     1       8.022   5.427  11.215  0.00  0.00    +0.000 F 
ATOM     35  C   UNL     1       6.352   3.972  12.022  0.00  0.00    +0.000 A 
ATOM     36  C   UNL     1       5.628   3.461  13.100  0.00  0.00    +0.000 A 
ATOM     37  C   UNL     1       5.895   3.891  14.411  0.00  0.00    +0.000 A 
ATOM     38  C   UNL     1       5.155   3.415  15.506  0.00  0.00    +0.000 A 
ENDBRANCH  27  28
ENDBRANCH  25  27
ENDBRANCH   3  22
TORSDOF 6
ENDMDL
MODEL 8
REMARK VINA RESULT:      -8.6      1.702      2.137
REMARK  Name = 
REMARK  6 active torsions:
REMARK  status: ('A' for Active; 'I' for Inactive)
REMARK    1  A    between atoms: C_2  and  C_3
REMARK    2  A    between atoms: C_8  and  C_10
REMARK    3  A    between atoms: C_14  and  O_15
REMARK    4  A    between atoms: N_19  and  C_20
REMARK    5  A    between atoms: N_23  and  C_24
REMARK    6  A    between atoms: C_24  and  C_25
REMARK                            x       y       z     vdW  Elec       q    Type
REMARK                         _______ _______ _______ _____ _____    ______ ____
ROOT
ATOM      1  O   UNL     1       2.021   8.186  19.951  0.00  0.00    +0.000 OA
ATOM      2  C   UNL     1       1.383   7.631  20.832  0.00  0.00    +0.000 C 
ATOM      3  N   UNL     1       1.108   6.289  20.872  0.00  0.00    +0.000 N 
ATOM      4  H   UNL     1       0.729   5.892  21.719  0.00  0.00    +0.000 HD
ENDROOT
BRANCH   2   5
ATOM      5  C   UNL     1       0.750   8.350  21.969  0.00  0.00    +0.000 C 
ATOM      6  C   UNL     1       0.491   9.668  22.042  0.00  0.00    +0.000 C 
ATOM      7  C   UNL     1       0.885  10.730  21.035  0.00  0.00    +0.000 C 
ATOM      8  C   UNL     1      -0.330  11.573  20.618  0.00  0.00    +0.000 C 
ATOM      9  N   UNL     1      -1.016  12.132  21.790  0.00  0.00    +0.000 N 
ATOM     10  C   UNL     1      -1.132  13.520  21.901  0.00  0.00    +0.000 C 
ATOM     11  O   UNL     1      -0.589  14.289  21.105  0.00  0.00    +0.000 OA
ATOM     12  C   UNL     1      -1.432  11.124  22.776  0.00  0.00    +0.000 C 
ATOM     13  C   UNL     1      -0.271  10.230  23.222  0.00  0.00    +0.000 C 
BRANCH  10  14
ATOM     14  C   UNL     1      -1.901  14.144  23.011  0.00  0.00    +0.000 A 
ATOM     15  C   UNL     1      -3.288  14.309  22.860  0.00  0.00    +0.000 A 
ATOM     16  C   UNL     1      -4.035  14.939  23.860  0.00  0.00    +0.000 A 
ATOM     17  C   UNL     1      -3.400  15.428  25.002  0.00  0.00    +0.000 A 
ATOM     18  C   UNL     1      -2.035  15.216  25.164  0.00  0.00    +0.000 A 
ATOM     19  C   UNL     1      -1.298  14.528  24.210  0.00  0.00    +0.000 A 
BRANCH  18  20
ATOM     20  O   UNL     1      -1.359  15.691  26.247  0.00  0.00    +0.000 OA
ATOM     21  H   UNL     1      -1.747  15.305  27.050  0.00  0.00    +0.000 HD
ENDBRANCH  18  20
ENDBRANCH  10  14
ENDBRANCH   2   5
BRANCH   3  22
ATOM     22  C   UNL     1       1.514   5.378  19.806  0.00  0.00    +0.000 C 
ATOM     23  C   UNL     1       1.262   3.947  20.252  0.00  0.00    +0.000 C 
ATOM     24  C   UNL     1       2.596   3.557  20.866  0.00  0.00    +0.000 C 
ATOM     25  N   UNL     1       3.608   4.126  19.962  0.00  0.00    +0.000 NA
ATOM     26  C   UNL     1       3.029   5.422  19.517  0.00  0.00    +0.000 C 
BRANCH  25  27
ATOM     27  C   UNL     1       3.853   3.205  18.837  0.00  0.00    +0.000 C 
BRANCH  27  28
ATOM     28  C   UNL     1       4.908   3.675  17.862  0.00  0.00    +0.000 A 
ATOM     29  C   UNL     1       6.025   4.379  18.327  0.00  0.00    +0.000 A 
ATOM     30  C   UNL     1       6.963   4.895  17.432  0.00  0.00    +0.000 A 
ATOM     31  C   UNL     1       6.805   4.714  16.052  0.00  0.00    +0.000 A 
ATOM     32  C   UNL     1       7.721   5.262  15.142  0.00  0.00    +0.000 A 
ATOM     33  C   UNL     1       7.555   5.054  13.778  0.00  0.00    +0.000 A 
ATOM     34  F   UNL     1       8.433   5.591  12.920  0.00  0.00    +0.000 F 
ATOM     35  C   UNL     1       6.495   4.300  13.292  0.00  0.00    +0.000 A 
ATOM     36  C   UNL     1       5.569   3.760  14.185  0.00  0.00    +0.000 A 
ATOM     37  C   UNL     1       5.703   3.968  15.568  0.00  0.00    +0.000 A 
ATOM     38  C   UNL     1       4.764   3.462  16.482  0.00  0.00    +0.000 A 
ENDBRANCH  27  28
ENDBRANCH  25  27
ENDBRANCH   3  22
TORSDOF 6
ENDMDL
MODEL 9
REMARK VINA RESULT:      -8.5      1.771      2.293
REMARK  Name = 
REMARK  6 active torsions:
REMARK  status: ('A' for Active; 'I' for Inactive)
REMARK    1  A    between atoms: C_2  and  C_3
REMARK    2  A    between atoms: C_8  and  C_10
REMARK    3  A    between atoms: C_14  and  O_15
REMARK    4  A    between atoms: N_19  and  C_20
REMARK    5  A    between atoms: N_23  and  C_24
REMARK    6  A    between atoms: C_24  and  C_25
REMARK                            x       y       z     vdW  Elec       q    Type
REMARK                         _______ _______ _______ _____ _____    ______ ____
ROOT
ATOM      1  O   UNL     1       1.971   9.332  17.168  0.00  0.00    +0.000 OA
ATOM      2  C   UNL     1       1.940   9.205  18.381  0.00  0.00    +0.000 C 
ATOM      3  N   UNL     1       2.204   8.039  19.054  0.00  0.00    +0.000 N 
ATOM      4  H   UNL     1       2.327   8.069  20.055  0.00  0.00    +0.000 HD
ENDROOT
BRANCH   2   5
ATOM      5  C   UNL     1       1.545  10.293  19.315  0.00  0.00    +0.000 C 
ATOM      6  C   UNL     1       0.380  10.966  19.317  0.00  0.00    +0.000 C 
ATOM      7  C   UNL     1      -0.741  10.847  18.304  0.00  0.00    +0.000 C 
ATOM      8  C   UNL     1      -2.087  10.590  18.998  0.00  0.00    +0.000 C 
ATOM      9  N   UNL     1      -2.358  11.605  20.024  0.00  0.00    +0.000 N 
ATOM     10  C   UNL     1      -3.509  12.389  19.905  0.00  0.00    +0.000 C 
ATOM     11  O   UNL     1      -4.244  12.328  18.918  0.00  0.00    +0.000 OA
ATOM     12  C   UNL     1      -1.299  11.729  21.036  0.00  0.00    +0.000 C 
ATOM     13  C   UNL     1       0.080  11.966  20.411  0.00  0.00    +0.000 C 
BRANCH  10  14
ATOM     14  C   UNL     1      -3.890  13.364  20.962  0.00  0.00    +0.000 A 
ATOM     15  C   UNL     1      -3.496  14.704  20.815  0.00  0.00    +0.000 A 
ATOM     16  C   UNL     1      -3.789  15.639  21.813  0.00  0.00    +0.000 A 
ATOM     17  C   UNL     1      -4.457  15.236  22.970  0.00  0.00    +0.000 A 
ATOM     18  C   UNL     1      -4.887  13.918  23.083  0.00  0.00    +0.000 A 
ATOM     19  C   UNL     1      -4.663  13.001  22.066  0.00  0.00    +0.000 A 
BRANCH  18  20
ATOM     20  O   UNL     1      -5.523  13.464  24.200  0.00  0.00    +0.000 OA
ATOM     21  H   UNL     1      -4.858  13.284  24.885  0.00  0.00    +0.000 HD
ENDBRANCH  18  20
ENDBRANCH  10  14
ENDBRANCH   2   5
BRANCH   3  22
ATOM     22  C   UNL     1       2.499   6.790  18.360  0.00  0.00    +0.000 C 
ATOM     23  C   UNL     1       2.058   5.623  19.229  0.00  0.00    +0.000 C 
ATOM     24  C   UNL     1       3.324   5.297  20.004  0.00  0.00    +0.000 C 
ATOM     25  N   UNL     1       4.411   5.416  19.019  0.00  0.00    +0.000 NA
ATOM     26  C   UNL     1       4.010   6.556  18.151  0.00  0.00    +0.000 C 
BRANCH  25  27
ATOM     27  C   UNL     1       4.546   4.156  18.264  0.00  0.00    +0.000 C 
BRANCH  27  28
ATOM     28  C   UNL     1       5.363   4.270  16.997  0.00  0.00    +0.000 A 
ATOM     29  C   UNL     1       6.623   4.881  17.031  0.00  0.00    +0.000 A 
ATOM     30  C   UNL     1       7.351   5.072  15.857  0.00  0.00    +0.000 A 
ATOM     31  C   UNL     1       6.838   4.652  14.623  0.00  0.00    +0.000 A 
ATOM     32  C   UNL     1       7.544   4.875  13.433  0.00  0.00    +0.000 A 
ATOM     33  C   UNL     1       7.024   4.433  12.223  0.00  0.00    +0.000 A 
ATOM     34  F   UNL     1       7.707   4.660  11.093  0.00  0.00    +0.000 F 
ATOM     35  C   UNL     1       5.810   3.762  12.166  0.00  0.00    +0.000 A 
ATOM     36  C   UNL     1       5.089   3.546  13.342  0.00  0.00    +0.000 A 
ATOM     37  C   UNL     1       5.584   3.995  14.578  0.00  0.00    +0.000 A 
ATOM     38  C   UNL     1       4.859   3.818  15.768  0.00  0.00    +0.000 A 
ENDBRANCH  27  28
ENDBRANCH  25  27
ENDBRANCH   3  22
TORSDOF 6
ENDMDL
