MODEL 1
REMARK VINA RESULT:      -7.8      0.000      0.000
REMARK  Name = 
REMARK  7 active torsions:
REMARK  status: ('A' for Active; 'I' for Inactive)
REMARK    1  A    between atoms: C_1  and  O_2
REMARK    2  A    between atoms: O_2  and  C_3
REMARK    3  A    between atoms: C_7  and  C_8
REMARK    4  A    between atoms: C_8  and  N_9
REMARK    5  A    between atoms: N_9  and  C_10
REMARK    6  A    between atoms: C_10  and  C_11
REMARK    7  A    between atoms: N_23  and  C_24
REMARK                            x       y       z     vdW  Elec       q    Type
REMARK                         _______ _______ _______ _____ _____    ______ ____
ROOT
ATOM      1  C   UNL     1       1.889   7.430  19.530  0.00  0.00    +0.000 A 
ATOM      2  C   UNL     1       2.720   7.109  18.464  0.00  0.00    +0.000 A 
ATOM      3  C   UNL     1       2.695   8.179  17.559  0.00  0.00    +0.000 A 
ATOM      4  C   UNL     1       1.907   9.154  18.120  0.00  0.00    +0.000 A 
ATOM      5  N   UNL     1       1.452   8.748  19.375  0.00  0.00    +0.000 N 
ATOM      6  C   UNL     1       0.707   9.525  20.282  0.00  0.00    +0.000 A 
ATOM      7  N   UNL     1       0.370   9.166  21.498  0.00  0.00    +0.000 NA
ATOM      8  N   UNL     1      -0.303  10.183  22.159  0.00  0.00    +0.000 NA
ATOM      9  C   UNL     1      -0.480  11.264  21.422  0.00  0.00    +0.000 A 
ATOM     10  N   UNL     1      -1.065  12.426  21.842  0.00  0.00    +0.000 N 
ATOM     11  C   UNL     1      -1.834  13.272  20.903  0.00  0.00    +0.000 C 
ATOM     12  C   UNL     1      -3.347  12.982  21.002  0.00  0.00    +0.000 C 
ATOM     13  N   UNL     1      -3.828  13.082  22.389  0.00  0.00    +0.000 N 
ATOM     14  C   UNL     1      -3.061  12.262  23.357  0.00  0.00    +0.000 C 
ATOM     15  C   UNL     1      -1.540  12.526  23.236  0.00  0.00    +0.000 C 
ATOM     16  S   UNL     1       0.223  11.095  19.849  0.00  0.00    +0.000 S 
ENDROOT
BRANCH  13  17
ATOM     17  C   UNL     1      -4.587  14.153  22.833  0.00  0.00    +0.000 A 
ATOM     18  C   UNL     1      -4.056  15.454  22.808  0.00  0.00    +0.000 A 
ATOM     19  C   UNL     1      -4.769  16.556  23.296  0.00  0.00    +0.000 A 
ATOM     20  C   UNL     1      -6.043  16.381  23.819  0.00  0.00    +0.000 A 
ATOM     21  C   UNL     1      -6.600  15.107  23.851  0.00  0.00    +0.000 A 
ATOM     22  C   UNL     1      -5.875  14.009  23.368  0.00  0.00    +0.000 A 
ENDBRANCH  13  17
BRANCH   1  23
ATOM     23  C   UNL     1       1.438   6.512  20.620  0.00  0.00    +0.000 C 
BRANCH  23  24
ATOM     24  N   UNL     1       2.568   5.738  21.137  0.00  0.00    +0.000 NA
ATOM     25  H   UNL     1       3.335   5.794  20.468  0.00  0.00    +0.000 HD
BRANCH  24  26
ATOM     26  C   UNL     1       2.226   4.329  21.335  0.00  0.00    +0.000 C 
BRANCH  26  31
ATOM     27  C   UNL     1       3.481   3.080  17.964  0.00  0.00    +0.000 A 
ATOM     28  C   UNL     1       2.455   2.202  17.606  0.00  0.00    +0.000 A 
ATOM     29  C   UNL     1       1.376   1.982  18.463  0.00  0.00    +0.000 A 
ATOM     30  C   UNL     1       1.315   2.644  19.686  0.00  0.00    +0.000 A 
ATOM     31  C   UNL     1       2.336   3.529  20.061  0.00  0.00    +0.000 A 
ATOM     32  C   UNL     1       3.419   3.736  19.194  0.00  0.00    +0.000 A 
BRANCH  27  34
ATOM     33  C   UNL     1       5.312   4.364  17.168  0.00  0.00    +0.000 C 
ATOM     34  O   UNL     1       4.472   3.225  17.032  0.00  0.00    +0.000 OA
ENDBRANCH  27  34
ENDBRANCH  26  31
ENDBRANCH  24  26
ENDBRANCH  23  24
ENDBRANCH   1  23
TORSDOF 6
ENDMDL
MODEL 2
REMARK VINA RESULT:      -7.8      0.836      1.112
REMARK  Name = 
REMARK  7 active torsions:
REMARK  status: ('A' for Active; 'I' for Inactive)
REMARK    1  A    between atoms: C_1  and  O_2
REMARK    2  A    between atoms: O_2  and  C_3
REMARK    3  A    between atoms: C_7  and  C_8
REMARK    4  A    between atoms: C_8  and  N_9
REMARK    5  A    between atoms: N_9  and  C_10
REMARK    6  A    between atoms: C_10  and  C_11
REMARK    7  A    between atoms: N_23  and  C_24
REMARK                            x       y       z     vdW  Elec       q    Type
REMARK                         _______ _______ _______ _____ _____    ______ ____
ROOT
ATOM      1  C   UNL     1       1.847   7.582  19.604  0.00  0.00    +0.000 A 
ATOM      2  C   UNL     1       2.700   7.285  18.550  0.00  0.00    +0.000 A 
ATOM      3  C   UNL     1       2.674   8.363  17.655  0.00  0.00    +0.000 A 
ATOM      4  C   UNL     1       1.861   9.320  18.211  0.00  0.00    +0.000 A 
ATOM      5  N   UNL     1       1.391   8.895  19.454  0.00  0.00    +0.000 N 
ATOM      6  C   UNL     1       0.618   9.651  20.355  0.00  0.00    +0.000 A 
ATOM      7  N   UNL     1       0.266   9.275  21.561  0.00  0.00    +0.000 NA
ATOM      8  N   UNL     1      -0.435  10.274  22.221  0.00  0.00    +0.000 NA
ATOM      9  C   UNL     1      -0.616  11.360  21.491  0.00  0.00    +0.000 A 
ATOM     10  N   UNL     1      -1.226  12.508  21.912  0.00  0.00    +0.000 N 
ATOM     11  C   UNL     1      -1.992  13.351  20.967  0.00  0.00    +0.000 C 
ATOM     12  C   UNL     1      -3.502  13.037  21.037  0.00  0.00    +0.000 C 
ATOM     13  N   UNL     1      -4.008  13.116  22.417  0.00  0.00    +0.000 N 
ATOM     14  C   UNL     1      -3.245  12.298  23.390  0.00  0.00    +0.000 C 
ATOM     15  C   UNL     1      -1.726  12.587  23.298  0.00  0.00    +0.000 C 
ATOM     16  S   UNL     1       0.117  11.217  19.929  0.00  0.00    +0.000 S 
ENDROOT
BRANCH  13  17
ATOM     17  C   UNL     1      -4.792  14.170  22.858  0.00  0.00    +0.000 A 
ATOM     18  C   UNL     1      -4.272  15.475  22.882  0.00  0.00    +0.000 A 
ATOM     19  C   UNL     1      -5.010  16.560  23.369  0.00  0.00    +0.000 A 
ATOM     20  C   UNL     1      -6.301  16.364  23.841  0.00  0.00    +0.000 A 
ATOM     21  C   UNL     1      -6.848  15.085  23.825  0.00  0.00    +0.000 A 
ATOM     22  C   UNL     1      -6.097  14.003  23.343  0.00  0.00    +0.000 A 
ENDBRANCH  13  17
BRANCH   1  23
ATOM     23  C   UNL     1       1.391   6.647  20.678  0.00  0.00    +0.000 C 
BRANCH  23  24
ATOM     24  N   UNL     1       2.461   5.709  21.026  0.00  0.00    +0.000 NA
ATOM     25  H   UNL     1       3.338   6.056  20.639  0.00  0.00    +0.000 HD
BRANCH  24  26
ATOM     26  C   UNL     1       2.215   4.370  20.494  0.00  0.00    +0.000 C 
BRANCH  26  31
ATOM     27  C   UNL     1       5.290   4.065  18.269  0.00  0.00    +0.000 A 
ATOM     28  C   UNL     1       4.709   3.669  17.063  0.00  0.00    +0.000 A 
ATOM     29  C   UNL     1       3.332   3.463  16.970  0.00  0.00    +0.000 A 
ATOM     30  C   UNL     1       2.525   3.657  18.088  0.00  0.00    +0.000 A 
ATOM     31  C   UNL     1       3.091   4.055  19.307  0.00  0.00    +0.000 A 
ATOM     32  C   UNL     1       4.479   4.252  19.389  0.00  0.00    +0.000 A 
BRANCH  27  34
ATOM     33  C   UNL     1       7.128   5.182  17.265  0.00  0.00    +0.000 C 
ATOM     34  O   UNL     1       6.645   4.253  18.226  0.00  0.00    +0.000 OA
ENDBRANCH  27  34
ENDBRANCH  26  31
ENDBRANCH  24  26
ENDBRANCH  23  24
ENDBRANCH   1  23
TORSDOF 6
ENDMDL
MODEL 3
REMARK VINA RESULT:      -7.6      5.183      9.708
REMARK  Name = 
REMARK  7 active torsions:
REMARK  status: ('A' for Active; 'I' for Inactive)
REMARK    1  A    between atoms: C_1  and  O_2
REMARK    2  A    between atoms: O_2  and  C_3
REMARK    3  A    between atoms: C_7  and  C_8
REMARK    4  A    between atoms: C_8  and  N_9
REMARK    5  A    between atoms: N_9  and  C_10
REMARK    6  A    between atoms: C_10  and  C_11
REMARK    7  A    between atoms: N_23  and  C_24
REMARK                            x       y       z     vdW  Elec       q    Type
REMARK                         _______ _______ _______ _____ _____    ______ ____
ROOT
ATOM      1  C   UNL     1       2.483  15.689  20.790  0.00  0.00    +0.000 A 
ATOM      2  C   UNL     1       2.621  16.896  20.119  0.00  0.00    +0.000 A 
ATOM      3  C   UNL     1       2.565  16.635  18.743  0.00  0.00    +0.000 A 
ATOM      4  C   UNL     1       2.330  15.290  18.604  0.00  0.00    +0.000 A 
ATOM      5  N   UNL     1       2.201  14.688  19.857  0.00  0.00    +0.000 N 
ATOM      6  C   UNL     1       1.856  13.346  20.104  0.00  0.00    +0.000 A 
ATOM      7  N   UNL     1       1.642  12.818  21.286  0.00  0.00    +0.000 NA
ATOM      8  N   UNL     1       1.253  11.490  21.186  0.00  0.00    +0.000 NA
ATOM      9  C   UNL     1       1.211  11.045  19.944  0.00  0.00    +0.000 A 
ATOM     10  N   UNL     1       0.812   9.796  19.559  0.00  0.00    +0.000 N 
ATOM     11  C   UNL     1       1.403   9.142  18.370  0.00  0.00    +0.000 C 
ATOM     12  C   UNL     1       2.545   8.184  18.769  0.00  0.00    +0.000 C 
ATOM     13  N   UNL     1       2.110   7.222  19.795  0.00  0.00    +0.000 N 
ATOM     14  C   UNL     1       1.494   7.847  20.989  0.00  0.00    +0.000 C 
ATOM     15  C   UNL     1       0.371   8.836  20.589  0.00  0.00    +0.000 C 
ATOM     16  S   UNL     1       1.622  12.280  18.802  0.00  0.00    +0.000 S 
ENDROOT
BRANCH  13  17
ATOM     17  C   UNL     1       1.866   5.890  19.504  0.00  0.00    +0.000 A 
ATOM     18  C   UNL     1       2.033   5.411  18.193  0.00  0.00    +0.000 A 
ATOM     19  C   UNL     1       1.747   4.086  17.845  0.00  0.00    +0.000 A 
ATOM     20  C   UNL     1       1.290   3.199  18.809  0.00  0.00    +0.000 A 
ATOM     21  C   UNL     1       1.121   3.639  20.118  0.00  0.00    +0.000 A 
ATOM     22  C   UNL     1       1.402   4.970  20.455  0.00  0.00    +0.000 A 
ENDBRANCH  13  17
BRANCH   1  23
ATOM     23  C   UNL     1       2.695  15.447  22.250  0.00  0.00    +0.000 C 
BRANCH  23  24
ATOM     24  N   UNL     1       3.766  14.470  22.456  0.00  0.00    +0.000 NA
ATOM     25  H   UNL     1       3.841  14.273  23.453  0.00  0.00    +0.000 HD
BRANCH  24  26
ATOM     26  C   UNL     1       5.058  14.960  21.980  0.00  0.00    +0.000 C 
BRANCH  26  31
ATOM     27  C   UNL     1       8.445  13.223  21.851  0.00  0.00    +0.000 A 
ATOM     28  C   UNL     1       8.215  12.128  22.687  0.00  0.00    +0.000 A 
ATOM     29  C   UNL     1       6.983  11.964  23.324  0.00  0.00    +0.000 A 
ATOM     30  C   UNL     1       5.969  12.898  23.122  0.00  0.00    +0.000 A 
ATOM     31  C   UNL     1       6.183  14.003  22.286  0.00  0.00    +0.000 A 
ATOM     32  C   UNL     1       7.428  14.159  21.658  0.00  0.00    +0.000 A 
BRANCH  27  34
ATOM     33  C   UNL     1      10.251  12.010  20.903  0.00  0.00    +0.000 C 
ATOM     34  O   UNL     1       9.683  13.260  21.272  0.00  0.00    +0.000 OA
ENDBRANCH  27  34
ENDBRANCH  26  31
ENDBRANCH  24  26
ENDBRANCH  23  24
ENDBRANCH   1  23
TORSDOF 6
ENDMDL
MODEL 4
REMARK VINA RESULT:      -7.6      1.231      1.566
REMARK  Name = 
REMARK  7 active torsions:
REMARK  status: ('A' for Active; 'I' for Inactive)
REMARK    1  A    between atoms: C_1  and  O_2
REMARK    2  A    between atoms: O_2  and  C_3
REMARK    3  A    between atoms: C_7  and  C_8
REMARK    4  A    between atoms: C_8  and  N_9
REMARK    5  A    between atoms: N_9  and  C_10
REMARK    6  A    between atoms: C_10  and  C_11
REMARK    7  A    between atoms: N_23  and  C_24
REMARK                            x       y       z     vdW  Elec       q    Type
REMARK                         _______ _______ _______ _____ _____    ______ ____
ROOT
ATOM      1  C   UNL     1       1.781   7.971  19.814  0.00  0.00    +0.000 A 
ATOM      2  C   UNL     1       2.573   7.620  18.729  0.00  0.00    +0.000 A 
ATOM      3  C   UNL     1       2.361   8.565  17.715  0.00  0.00    +0.000 A 
ATOM      4  C   UNL     1       1.499   9.505  18.224  0.00  0.00    +0.000 A 
ATOM      5  N   UNL     1       1.179   9.203  19.548  0.00  0.00    +0.000 N 
ATOM      6  C   UNL     1       0.406   9.995  20.419  0.00  0.00    +0.000 A 
ATOM      7  N   UNL     1       0.194   9.748  21.690  0.00  0.00    +0.000 NA
ATOM      8  N   UNL     1      -0.553  10.754  22.285  0.00  0.00    +0.000 NA
ATOM      9  C   UNL     1      -0.905  11.713  21.449  0.00  0.00    +0.000 A 
ATOM     10  N   UNL     1      -1.598  12.844  21.781  0.00  0.00    +0.000 N 
ATOM     11  C   UNL     1      -2.522  13.480  20.817  0.00  0.00    +0.000 C 
ATOM     12  C   UNL     1      -3.980  13.036  21.066  0.00  0.00    +0.000 C 
ATOM     13  N   UNL     1      -4.378  13.247  22.467  0.00  0.00    +0.000 N 
ATOM     14  C   UNL     1      -3.457  12.639  23.457  0.00  0.00    +0.000 C 
ATOM     15  C   UNL     1      -1.990  13.056  23.188  0.00  0.00    +0.000 C 
ATOM     16  S   UNL     1      -0.291  11.437  19.853  0.00  0.00    +0.000 S 
ENDROOT
BRANCH  13  17
ATOM     17  C   UNL     1      -5.230  14.271  22.847  0.00  0.00    +0.000 A 
ATOM     18  C   UNL     1      -6.508  14.377  22.272  0.00  0.00    +0.000 A 
ATOM     19  C   UNL     1      -7.380  15.425  22.588  0.00  0.00    +0.000 A 
ATOM     20  C   UNL     1      -6.994  16.398  23.500  0.00  0.00    +0.000 A 
ATOM     21  C   UNL     1      -5.738  16.318  24.093  0.00  0.00    +0.000 A 
ATOM     22  C   UNL     1      -4.868  15.269  23.763  0.00  0.00    +0.000 A 
ENDBRANCH  13  17
BRANCH   1  23
ATOM     23  C   UNL     1       1.515   7.145  21.031  0.00  0.00    +0.000 C 
BRANCH  23  24
ATOM     24  N   UNL     1       2.164   5.838  20.914  0.00  0.00    +0.000 NA
ATOM     25  H   UNL     1       2.964   5.926  20.288  0.00  0.00    +0.000 HD
BRANCH  24  26
ATOM     26  C   UNL     1       1.262   4.821  20.374  0.00  0.00    +0.000 C 
BRANCH  26  31
ATOM     27  C   UNL     1       3.992   2.267  19.650  0.00  0.00    +0.000 A 
ATOM     28  C   UNL     1       3.496   1.667  18.490  0.00  0.00    +0.000 A 
ATOM     29  C   UNL     1       2.265   2.057  17.958  0.00  0.00    +0.000 A 
ATOM     30  C   UNL     1       1.524   3.055  18.585  0.00  0.00    +0.000 A 
ATOM     31  C   UNL     1       2.007   3.668  19.749  0.00  0.00    +0.000 A 
ATOM     32  C   UNL     1       3.242   3.262  20.278  0.00  0.00    +0.000 A 
BRANCH  27  34
ATOM     33  C   UNL     1       5.249   1.090  21.283  0.00  0.00    +0.000 C 
ATOM     34  O   UNL     1       5.216   1.813  20.059  0.00  0.00    +0.000 OA
ENDBRANCH  27  34
ENDBRANCH  26  31
ENDBRANCH  24  26
ENDBRANCH  23  24
ENDBRANCH   1  23
TORSDOF 6
ENDMDL
MODEL 5
REMARK VINA RESULT:      -7.5      3.709      5.434
REMARK  Name = 
REMARK  7 active torsions:
REMARK  status: ('A' for Active; 'I' for Inactive)
REMARK    1  A    between atoms: C_1  and  O_2
REMARK    2  A    between atoms: O_2  and  C_3
REMARK    3  A    between atoms: C_7  and  C_8
REMARK    4  A    between atoms: C_8  and  N_9
REMARK    5  A    between atoms: N_9  and  C_10
REMARK    6  A    between atoms: C_10  and  C_11
REMARK    7  A    between atoms: N_23  and  C_24
REMARK                            x       y       z     vdW  Elec       q    Type
REMARK                         _______ _______ _______ _____ _____    ______ ____
ROOT
ATOM      1  C   UNL     1       3.008   5.195  18.813  0.00  0.00    +0.000 A 
ATOM      2  C   UNL     1       3.055   3.984  19.490  0.00  0.00    +0.000 A 
ATOM      3  C   UNL     1       2.549   4.190  20.781  0.00  0.00    +0.000 A 
ATOM      4  C   UNL     1       2.144   5.500  20.843  0.00  0.00    +0.000 A 
ATOM      5  N   UNL     1       2.348   6.130  19.614  0.00  0.00    +0.000 N 
ATOM      6  C   UNL     1       1.959   7.440  19.275  0.00  0.00    +0.000 A 
ATOM      7  N   UNL     1       2.069   7.986  18.088  0.00  0.00    +0.000 NA
ATOM      8  N   UNL     1       1.533   9.265  18.065  0.00  0.00    +0.000 NA
ATOM      9  C   UNL     1       1.061   9.659  19.233  0.00  0.00    +0.000 A 
ATOM     10  N   UNL     1       0.436  10.850  19.478  0.00  0.00    +0.000 N 
ATOM     11  C   UNL     1       0.557  11.516  20.793  0.00  0.00    +0.000 C 
ATOM     12  C   UNL     1       1.661  12.595  20.773  0.00  0.00    +0.000 C 
ATOM     13  N   UNL     1       1.468  13.545  19.665  0.00  0.00    +0.000 N 
ATOM     14  C   UNL     1       1.321  12.904  18.337  0.00  0.00    +0.000 C 
ATOM     15  C   UNL     1       0.238  11.797  18.364  0.00  0.00    +0.000 C 
ATOM     16  S   UNL     1       1.224   8.431  20.443  0.00  0.00    +0.000 S 
ENDROOT
BRANCH  13  17
ATOM     17  C   UNL     1       1.009  14.836  19.870  0.00  0.00    +0.000 A 
ATOM     18  C   UNL     1      -0.176  15.270  19.252  0.00  0.00    +0.000 A 
ATOM     19  C   UNL     1      -0.647  16.581  19.389  0.00  0.00    +0.000 A 
ATOM     20  C   UNL     1       0.060  17.495  20.159  0.00  0.00    +0.000 A 
ATOM     21  C   UNL     1       1.233  17.095  20.789  0.00  0.00    +0.000 A 
ATOM     22  C   UNL     1       1.702  15.782  20.639  0.00  0.00    +0.000 A 
ENDBRANCH  13  17
BRANCH   1  23
ATOM     23  C   UNL     1       3.636   5.507  17.492  0.00  0.00    +0.000 C 
BRANCH  23  24
ATOM     24  N   UNL     1       4.168   4.288  16.879  0.00  0.00    +0.000 NA
ATOM     25  H   UNL     1       4.210   3.558  17.589  0.00  0.00    +0.000 HD
BRANCH  24  26
ATOM     26  C   UNL     1       5.510   4.486  16.334  0.00  0.00    +0.000 C 
BRANCH  26  31
ATOM     27  C   UNL     1       7.459   7.503  17.600  0.00  0.00    +0.000 A 
ATOM     28  C   UNL     1       8.091   6.961  18.722  0.00  0.00    +0.000 A 
ATOM     29  C   UNL     1       7.864   5.635  19.095  0.00  0.00    +0.000 A 
ATOM     30  C   UNL     1       7.003   4.840  18.343  0.00  0.00    +0.000 A 
ATOM     31  C   UNL     1       6.361   5.368  17.214  0.00  0.00    +0.000 A 
ATOM     32  C   UNL     1       6.592   6.704  16.853  0.00  0.00    +0.000 A 
BRANCH  27  34
ATOM     33  C   UNL     1       8.616   9.465  18.268  0.00  0.00    +0.000 C 
ATOM     34  O   UNL     1       7.778   8.805  17.328  0.00  0.00    +0.000 OA
ENDBRANCH  27  34
ENDBRANCH  26  31
ENDBRANCH  24  26
ENDBRANCH  23  24
ENDBRANCH   1  23
TORSDOF 6
ENDMDL
MODEL 6
REMARK VINA RESULT:      -7.5      1.212      1.408
REMARK  Name = 
REMARK  7 active torsions:
REMARK  status: ('A' for Active; 'I' for Inactive)
REMARK    1  A    between atoms: C_1  and  O_2
REMARK    2  A    between atoms: O_2  and  C_3
REMARK    3  A    between atoms: C_7  and  C_8
REMARK    4  A    between atoms: C_8  and  N_9
REMARK    5  A    between atoms: N_9  and  C_10
REMARK    6  A    between atoms: C_10  and  C_11
REMARK    7  A    between atoms: N_23  and  C_24
REMARK                            x       y       z     vdW  Elec       q    Type
REMARK                         _______ _______ _______ _____ _____    ______ ____
ROOT
ATOM      1  C   UNL     1       2.351   7.109  19.439  0.00  0.00    +0.000 A 
ATOM      2  C   UNL     1       3.136   6.760  18.349  0.00  0.00    +0.000 A 
ATOM      3  C   UNL     1       3.004   7.766  17.381  0.00  0.00    +0.000 A 
ATOM      4  C   UNL     1       2.197   8.735  17.924  0.00  0.00    +0.000 A 
ATOM      5  N   UNL     1       1.836   8.391  19.227  0.00  0.00    +0.000 N 
ATOM      6  C   UNL     1       1.101   9.188  20.126  0.00  0.00    +0.000 A 
ATOM      7  N   UNL     1       0.853   8.894  21.380  0.00  0.00    +0.000 NA
ATOM      8  N   UNL     1       0.164   9.918  22.015  0.00  0.00    +0.000 NA
ATOM      9  C   UNL     1      -0.111  10.937  21.222  0.00  0.00    +0.000 A 
ATOM     10  N   UNL     1      -0.734  12.094  21.602  0.00  0.00    +0.000 N 
ATOM     11  C   UNL     1      -1.599  12.836  20.658  0.00  0.00    +0.000 C 
ATOM     12  C   UNL     1      -3.086  12.478  20.865  0.00  0.00    +0.000 C 
ATOM     13  N   UNL     1      -3.493  12.646  22.270  0.00  0.00    +0.000 N 
ATOM     14  C   UNL     1      -2.630  11.931  23.240  0.00  0.00    +0.000 C 
ATOM     15  C   UNL     1      -1.134  12.262  23.012  0.00  0.00    +0.000 C 
ATOM     16  S   UNL     1       0.510  10.699  19.624  0.00  0.00    +0.000 S 
ENDROOT
BRANCH  13  17
ATOM     17  C   UNL     1      -4.282  13.704  22.689  0.00  0.00    +0.000 A 
ATOM     18  C   UNL     1      -3.770  14.656  23.587  0.00  0.00    +0.000 A 
ATOM     19  C   UNL     1      -4.549  15.709  24.077  0.00  0.00    +0.000 A 
ATOM     20  C   UNL     1      -5.871  15.841  23.672  0.00  0.00    +0.000 A 
ATOM     21  C   UNL     1      -6.407  14.920  22.779  0.00  0.00    +0.000 A 
ATOM     22  C   UNL     1      -5.620  13.862  22.300  0.00  0.00    +0.000 A 
ENDBRANCH  13  17
BRANCH   1  23
ATOM     23  C   UNL     1       2.012   6.244  20.611  0.00  0.00    +0.000 C 
BRANCH  23  24
ATOM     24  N   UNL     1       0.776   5.501  20.355  0.00  0.00    +0.000 NA
ATOM     25  H   UNL     1       0.032   5.898  20.929  0.00  0.00    +0.000 HD
BRANCH  24  26
ATOM     26  C   UNL     1       0.909   4.082  20.683  0.00  0.00    +0.000 C 
BRANCH  26  31
ATOM     27  C   UNL     1       3.873   2.106  19.336  0.00  0.00    +0.000 A 
ATOM     28  C   UNL     1       3.640   2.179  17.961  0.00  0.00    +0.000 A 
ATOM     29  C   UNL     1       2.510   2.832  17.464  0.00  0.00    +0.000 A 
ATOM     30  C   UNL     1       1.606   3.421  18.345  0.00  0.00    +0.000 A 
ATOM     31  C   UNL     1       1.825   3.358  19.728  0.00  0.00    +0.000 A 
ATOM     32  C   UNL     1       2.961   2.692  20.215  0.00  0.00    +0.000 A 
BRANCH  27  34
ATOM     33  C   UNL     1       5.237   1.267  21.088  0.00  0.00    +0.000 C 
ATOM     34  O   UNL     1       5.023   1.458  19.695  0.00  0.00    +0.000 OA
ENDBRANCH  27  34
ENDBRANCH  26  31
ENDBRANCH  24  26
ENDBRANCH  23  24
ENDBRANCH   1  23
TORSDOF 6
ENDMDL
MODEL 7
REMARK VINA RESULT:      -7.4      1.284      1.447
REMARK  Name = 
REMARK  7 active torsions:
REMARK  status: ('A' for Active; 'I' for Inactive)
REMARK    1  A    between atoms: C_1  and  O_2
REMARK    2  A    between atoms: O_2  and  C_3
REMARK    3  A    between atoms: C_7  and  C_8
REMARK    4  A    between atoms: C_8  and  N_9
REMARK    5  A    between atoms: N_9  and  C_10
REMARK    6  A    between atoms: C_10  and  C_11
REMARK    7  A    between atoms: N_23  and  C_24
REMARK                            x       y       z     vdW  Elec       q    Type
REMARK                         _______ _______ _______ _____ _____    ______ ____
ROOT
ATOM      1  C   UNL     1       1.613   8.421  19.578  0.00  0.00    +0.000 A 
ATOM      2  C   UNL     1       2.290   7.980  18.449  0.00  0.00    +0.000 A 
ATOM      3  C   UNL     1       2.229   8.995  17.484  0.00  0.00    +0.000 A 
ATOM      4  C   UNL     1       1.575  10.054  18.064  0.00  0.00    +0.000 A 
ATOM      5  N   UNL     1       1.246   9.755  19.387  0.00  0.00    +0.000 N 
ATOM      6  C   UNL     1       0.663  10.635  20.319  0.00  0.00    +0.000 A 
ATOM      7  N   UNL     1       0.448  10.372  21.586  0.00  0.00    +0.000 NA
ATOM      8  N   UNL     1      -0.077  11.470  22.251  0.00  0.00    +0.000 NA
ATOM      9  C   UNL     1      -0.269  12.517  21.469  0.00  0.00    +0.000 A 
ATOM     10  N   UNL     1      -0.725  13.740  21.875  0.00  0.00    +0.000 N 
ATOM     11  C   UNL     1      -1.543  14.582  20.975  0.00  0.00    +0.000 C 
ATOM     12  C   UNL     1      -3.050  14.407  21.263  0.00  0.00    +0.000 C 
ATOM     13  N   UNL     1      -3.357  14.621  22.686  0.00  0.00    +0.000 N 
ATOM     14  C   UNL     1      -2.537  13.806  23.613  0.00  0.00    +0.000 C 
ATOM     15  C   UNL     1      -1.026  13.954  23.304  0.00  0.00    +0.000 C 
ATOM     16  S   UNL     1       0.233  12.207  19.841  0.00  0.00    +0.000 S 
ENDROOT
BRANCH  13  17
ATOM     17  C   UNL     1      -3.990  15.767  23.142  0.00  0.00    +0.000 A 
ATOM     18  C   UNL     1      -4.229  15.944  24.515  0.00  0.00    +0.000 A 
ATOM     19  C   UNL     1      -4.911  17.060  25.012  0.00  0.00    +0.000 A 
ATOM     20  C   UNL     1      -5.369  18.038  24.140  0.00  0.00    +0.000 A 
ATOM     21  C   UNL     1      -5.141  17.898  22.775  0.00  0.00    +0.000 A 
ATOM     22  C   UNL     1      -4.465  16.771  22.286  0.00  0.00    +0.000 A 
ENDBRANCH  13  17
BRANCH   1  23
ATOM     23  C   UNL     1       1.234   7.602  20.770  0.00  0.00    +0.000 C 
BRANCH  23  24
ATOM     24  N   UNL     1       2.074   6.405  20.855  0.00  0.00    +0.000 NA
ATOM     25  H   UNL     1       2.697   6.386  20.049  0.00  0.00    +0.000 HD
BRANCH  24  26
ATOM     26  C   UNL     1       1.281   5.176  20.860  0.00  0.00    +0.000 C 
BRANCH  26  31
ATOM     27  C   UNL     1       2.968   3.759  17.754  0.00  0.00    +0.000 A 
ATOM     28  C   UNL     1       2.415   2.477  17.711  0.00  0.00    +0.000 A 
ATOM     29  C   UNL     1       1.527   2.052  18.700  0.00  0.00    +0.000 A 
ATOM     30  C   UNL     1       1.183   2.912  19.740  0.00  0.00    +0.000 A 
ATOM     31  C   UNL     1       1.728   4.202  19.798  0.00  0.00    +0.000 A 
ATOM     32  C   UNL     1       2.625   4.615  18.801  0.00  0.00    +0.000 A 
BRANCH  27  34
ATOM     33  C   UNL     1       5.202   3.941  16.971  0.00  0.00    +0.000 C 
ATOM     34  O   UNL     1       3.808   4.064  16.717  0.00  0.00    +0.000 OA
ENDBRANCH  27  34
ENDBRANCH  26  31
ENDBRANCH  24  26
ENDBRANCH  23  24
ENDBRANCH   1  23
TORSDOF 6
ENDMDL
MODEL 8
REMARK VINA RESULT:      -7.4      2.875      5.468
REMARK  Name = 
REMARK  7 active torsions:
REMARK  status: ('A' for Active; 'I' for Inactive)
REMARK    1  A    between atoms: C_1  and  O_2
REMARK    2  A    between atoms: O_2  and  C_3
REMARK    3  A    between atoms: C_7  and  C_8
REMARK    4  A    between atoms: C_8  and  N_9
REMARK    5  A    between atoms: N_9  and  C_10
REMARK    6  A    between atoms: C_10  and  C_11
REMARK    7  A    between atoms: N_23  and  C_24
REMARK                            x       y       z     vdW  Elec       q    Type
REMARK                         _______ _______ _______ _____ _____    ______ ____
ROOT
ATOM      1  C   UNL     1       4.547   4.166  19.170  0.00  0.00    +0.000 A 
ATOM      2  C   UNL     1       4.711   2.796  19.319  0.00  0.00    +0.000 A 
ATOM      3  C   UNL     1       3.714   2.333  20.190  0.00  0.00    +0.000 A 
ATOM      4  C   UNL     1       2.926   3.413  20.500  0.00  0.00    +0.000 A 
ATOM      5  N   UNL     1       3.373   4.550  19.825  0.00  0.00    +0.000 N 
ATOM      6  C   UNL     1       2.752   5.813  19.820  0.00  0.00    +0.000 A 
ATOM      7  N   UNL     1       3.128   6.846  19.103  0.00  0.00    +0.000 NA
ATOM      8  N   UNL     1       2.268   7.921  19.272  0.00  0.00    +0.000 NA
ATOM      9  C   UNL     1       1.289   7.684  20.125  0.00  0.00    +0.000 A 
ATOM     10  N   UNL     1       0.277   8.549  20.436  0.00  0.00    +0.000 N 
ATOM     11  C   UNL     1      -0.327   8.557  21.786  0.00  0.00    +0.000 C 
ATOM     12  C   UNL     1       0.300   9.654  22.672  0.00  0.00    +0.000 C 
ATOM     13  N   UNL     1       0.256  10.971  22.016  0.00  0.00    +0.000 N 
ATOM     14  C   UNL     1       0.835  10.988  20.652  0.00  0.00    +0.000 C 
ATOM     15  C   UNL     1       0.232   9.866  19.771  0.00  0.00    +0.000 C 
ATOM     16  S   UNL     1       1.357   6.071  20.753  0.00  0.00    +0.000 S 
ENDROOT
BRANCH  13  17
ATOM     17  C   UNL     1      -0.627  11.964  22.409  0.00  0.00    +0.000 A 
ATOM     18  C   UNL     1      -1.843  11.623  23.026  0.00  0.00    +0.000 A 
ATOM     19  C   UNL     1      -2.787  12.590  23.390  0.00  0.00    +0.000 A 
ATOM     20  C   UNL     1      -2.532  13.934  23.150  0.00  0.00    +0.000 A 
ATOM     21  C   UNL     1      -1.334  14.305  22.547  0.00  0.00    +0.000 A 
ATOM     22  C   UNL     1      -0.399  13.328  22.178  0.00  0.00    +0.000 A 
ENDBRANCH  13  17
BRANCH   1  23
ATOM     23  C   UNL     1       5.497   5.115  18.514  0.00  0.00    +0.000 C 
BRANCH  23  24
ATOM     24  N   UNL     1       5.928   4.591  17.216  0.00  0.00    +0.000 NA
ATOM     25  H   UNL     1       6.936   4.721  17.130  0.00  0.00    +0.000 HD
BRANCH  24  26
ATOM     26  C   UNL     1       5.274   5.275  16.102  0.00  0.00    +0.000 C 
BRANCH  26  31
ATOM     27  C   UNL     1       5.845   3.572  12.744  0.00  0.00    +0.000 A 
ATOM     28  C   UNL     1       7.096   4.085  12.394  0.00  0.00    +0.000 A 
ATOM     29  C   UNL     1       7.743   5.008  13.218  0.00  0.00    +0.000 A 
ATOM     30  C   UNL     1       7.140   5.420  14.404  0.00  0.00    +0.000 A 
ATOM     31  C   UNL     1       5.885   4.915  14.770  0.00  0.00    +0.000 A 
ATOM     32  C   UNL     1       5.243   3.993  13.930  0.00  0.00    +0.000 A 
BRANCH  27  34
ATOM     33  C   UNL     1       4.142   3.046  11.177  0.00  0.00    +0.000 C 
ATOM     34  O   UNL     1       5.325   2.662  11.865  0.00  0.00    +0.000 OA
ENDBRANCH  27  34
ENDBRANCH  26  31
ENDBRANCH  24  26
ENDBRANCH  23  24
ENDBRANCH   1  23
TORSDOF 6
ENDMDL
MODEL 9
REMARK VINA RESULT:      -7.4      3.226      5.834
REMARK  Name = 
REMARK  7 active torsions:
REMARK  status: ('A' for Active; 'I' for Inactive)
REMARK    1  A    between atoms: C_1  and  O_2
REMARK    2  A    between atoms: O_2  and  C_3
REMARK    3  A    between atoms: C_7  and  C_8
REMARK    4  A    between atoms: C_8  and  N_9
REMARK    5  A    between atoms: N_9  and  C_10
REMARK    6  A    between atoms: C_10  and  C_11
REMARK    7  A    between atoms: N_23  and  C_24
REMARK                            x       y       z     vdW  Elec       q    Type
REMARK                         _______ _______ _______ _____ _____    ______ ____
ROOT
ATOM      1  C   UNL     1       4.550   4.011  19.190  0.00  0.00    +0.000 A 
ATOM      2  C   UNL     1       4.521   2.710  19.673  0.00  0.00    +0.000 A 
ATOM      3  C   UNL     1       3.469   2.613  20.594  0.00  0.00    +0.000 A 
ATOM      4  C   UNL     1       2.838   3.832  20.605  0.00  0.00    +0.000 A 
ATOM      5  N   UNL     1       3.440   4.698  19.690  0.00  0.00    +0.000 N 
ATOM      6  C   UNL     1       3.001   5.993  19.357  0.00  0.00    +0.000 A 
ATOM      7  N   UNL     1       3.518   6.758  18.425  0.00  0.00    +0.000 NA
ATOM      8  N   UNL     1       2.817   7.948  18.297  0.00  0.00    +0.000 NA
ATOM      9  C   UNL     1       1.813   8.061  19.147  0.00  0.00    +0.000 A 
ATOM     10  N   UNL     1       0.931   9.104  19.202  0.00  0.00    +0.000 N 
ATOM     11  C   UNL     1       0.332   9.525  20.488  0.00  0.00    +0.000 C 
ATOM     12  C   UNL     1       1.105  10.711  21.103  0.00  0.00    +0.000 C 
ATOM     13  N   UNL     1       1.246  11.820  20.145  0.00  0.00    +0.000 N 
ATOM     14  C   UNL     1       1.823  11.423  18.839  0.00  0.00    +0.000 C 
ATOM     15  C   UNL     1       1.071  10.211  18.237  0.00  0.00    +0.000 C 
ATOM     16  S   UNL     1       1.654   6.658  20.149  0.00  0.00    +0.000 S 
ENDROOT
BRANCH  13  17
ATOM     17  C   UNL     1       0.509  12.988  20.254  0.00  0.00    +0.000 A 
ATOM     18  C   UNL     1       1.157  14.214  20.484  0.00  0.00    +0.000 A 
ATOM     19  C   UNL     1       0.448  15.408  20.653  0.00  0.00    +0.000 A 
ATOM     20  C   UNL     1      -0.938  15.407  20.589  0.00  0.00    +0.000 A 
ATOM     21  C   UNL     1      -1.611  14.212  20.355  0.00  0.00    +0.000 A 
ATOM     22  C   UNL     1      -0.892  13.018  20.196  0.00  0.00    +0.000 A 
ENDBRANCH  13  17
BRANCH   1  23
ATOM     23  C   UNL     1       5.624   4.633  18.357  0.00  0.00    +0.000 C 
BRANCH  23  24
ATOM     24  N   UNL     1       5.660   4.020  17.028  0.00  0.00    +0.000 NA
ATOM     25  H   UNL     1       6.624   3.775  16.807  0.00  0.00    +0.000 HD
BRANCH  24  26
ATOM     26  C   UNL     1       5.160   4.923  15.992  0.00  0.00    +0.000 C 
BRANCH  26  31
ATOM     27  C   UNL     1       5.764   3.497  12.513  0.00  0.00    +0.000 A 
ATOM     28  C   UNL     1       7.038   4.000  12.236  0.00  0.00    +0.000 A 
ATOM     29  C   UNL     1       7.691   4.827  13.151  0.00  0.00    +0.000 A 
ATOM     30  C   UNL     1       7.071   5.155  14.355  0.00  0.00    +0.000 A 
ATOM     31  C   UNL     1       5.794   4.660  14.648  0.00  0.00    +0.000 A 
ATOM     32  C   UNL     1       5.145   3.834  13.717  0.00  0.00    +0.000 A 
BRANCH  27  34
ATOM     33  C   UNL     1       3.937   3.007  11.080  0.00  0.00    +0.000 C 
ATOM     34  O   UNL     1       5.240   2.683  11.547  0.00  0.00    +0.000 OA
ENDBRANCH  27  34
ENDBRANCH  26  31
ENDBRANCH  24  26
ENDBRANCH  23  24
ENDBRANCH   1  23
TORSDOF 6
ENDMDL
