MODEL 1
REMARK VINA RESULT:      -6.9      0.000      0.000
REMARK  Name = 
REMARK  6 active torsions:
REMARK  status: ('A' for Active; 'I' for Inactive)
REMARK    1  A    between atoms: C_1  and  O_2
REMARK    2  A    between atoms: O_2  and  C_3
REMARK    3  A    between atoms: C_3  and  C_5
REMARK    4  A    between atoms: C_6  and  C_7
REMARK    5  A    between atoms: C_11  and  N_12
REMARK    6  A    between atoms: N_19  and  C_20
REMARK                            x       y       z     vdW  Elec       q    Type
REMARK                         _______ _______ _______ _____ _____    ______ ____
ROOT
ATOM      1  C   UNL     1       5.763   5.167  16.750  0.00  0.00    +0.000 A 
ATOM      2  C   UNL     1       5.588   6.428  17.336  0.00  0.00    +0.000 A 
ATOM      3  C   UNL     1       6.494   7.604  17.091  0.00  0.00    +0.000 C 
ATOM      4  N   UNL     1       4.582   6.721  18.202  0.00  0.00    +0.000 NA
ATOM      5  C   UNL     1       3.736   5.706  18.451  0.00  0.00    +0.000 A 
ATOM      6  C   UNL     1       3.784   4.420  17.931  0.00  0.00    +0.000 A 
ATOM      7  C   UNL     1       4.848   4.119  17.045  0.00  0.00    +0.000 A 
ATOM      8  C   UNL     1       2.655   3.716  18.481  0.00  0.00    +0.000 A 
ATOM      9  C   UNL     1       2.136   2.409  18.332  0.00  0.00    +0.000 A 
ATOM     10  C   UNL     1       0.975   2.026  19.014  0.00  0.00    +0.000 A 
ATOM     11  C   UNL     1       0.321   2.923  19.845  0.00  0.00    +0.000 A 
ATOM     12  C   UNL     1       0.805   4.221  20.018  0.00  0.00    +0.000 A 
ATOM     13  C   UNL     1       1.969   4.600  19.326  0.00  0.00    +0.000 A 
ATOM     14  N   UNL     1       2.658   5.794  19.297  0.00  0.00    +0.000 N 
ATOM     15  C   UNL     1       2.330   6.997  20.029  0.00  0.00    +0.000 C 
ENDROOT
BRANCH   7  16
ATOM     16  N   UNL     1       5.052   2.812  16.549  0.00  0.00    +0.000 N 
ATOM     17  H   UNL     1       5.975   2.440  16.715  0.00  0.00    +0.000 HD
ATOM     18  H   UNL     1       4.319   2.170  16.847  0.00  0.00    +0.000 HD
ENDBRANCH   7  16
BRANCH   1  19
ATOM     19  C   UNL     1       6.901   4.919  15.824  0.00  0.00    +0.000 C 
ATOM     20  O   UNL     1       7.983   4.464  16.151  0.00  0.00    +0.000 OA
BRANCH  19  22
ATOM     21  C   UNL     1       6.445   4.276  13.602  0.00  0.00    +0.000 C 
ATOM     22  O   UNL     1       6.558   5.325  14.570  0.00  0.00    +0.000 OA
ENDBRANCH  19  22
ENDBRANCH   1  19
TORSDOF 3
ENDMDL
MODEL 2
REMARK VINA RESULT:      -6.7      2.831      4.870
REMARK  Name = 
REMARK  6 active torsions:
REMARK  status: ('A' for Active; 'I' for Inactive)
REMARK    1  A    between atoms: C_1  and  O_2
REMARK    2  A    between atoms: O_2  and  C_3
REMARK    3  A    between atoms: C_3  and  C_5
REMARK    4  A    between atoms: C_6  and  C_7
REMARK    5  A    between atoms: C_11  and  N_12
REMARK    6  A    between atoms: N_19  and  C_20
REMARK                            x       y       z     vdW  Elec       q    Type
REMARK                         _______ _______ _______ _____ _____    ______ ____
ROOT
ATOM      1  C   UNL     1       3.499   5.285  19.053  0.00  0.00    +0.000 A 
ATOM      2  C   UNL     1       3.791   6.058  17.921  0.00  0.00    +0.000 A 
ATOM      3  C   UNL     1       4.673   5.600  16.793  0.00  0.00    +0.000 C 
ATOM      4  N   UNL     1       3.313   7.316  17.727  0.00  0.00    +0.000 NA
ATOM      5  C   UNL     1       2.511   7.773  18.704  0.00  0.00    +0.000 A 
ATOM      6  C   UNL     1       2.131   7.112  19.863  0.00  0.00    +0.000 A 
ATOM      7  C   UNL     1       2.650   5.810  20.066  0.00  0.00    +0.000 A 
ATOM      8  C   UNL     1       1.253   8.006  20.574  0.00  0.00    +0.000 A 
ATOM      9  C   UNL     1       0.525   7.924  21.783  0.00  0.00    +0.000 A 
ATOM     10  C   UNL     1      -0.274   8.994  22.202  0.00  0.00    +0.000 A 
ATOM     11  C   UNL     1      -0.360  10.147  21.438  0.00  0.00    +0.000 A 
ATOM     12  C   UNL     1       0.346  10.265  20.239  0.00  0.00    +0.000 A 
ATOM     13  C   UNL     1       1.143   9.185  19.821  0.00  0.00    +0.000 A 
ATOM     14  N   UNL     1       1.928   9.017  18.701  0.00  0.00    +0.000 N 
ATOM     15  C   UNL     1       2.137   9.980  17.643  0.00  0.00    +0.000 C 
ENDROOT
BRANCH   7  16
ATOM     16  N   UNL     1       2.415   5.095  21.262  0.00  0.00    +0.000 N 
ATOM     17  H   UNL     1       1.586   5.375  21.762  0.00  0.00    +0.000 HD
ATOM     18  H   UNL     1       2.458   4.087  21.121  0.00  0.00    +0.000 HD
ENDBRANCH   7  16
BRANCH   1  19
ATOM     19  C   UNL     1       4.075   3.921  19.201  0.00  0.00    +0.000 C 
ATOM     20  O   UNL     1       5.257   3.675  19.362  0.00  0.00    +0.000 OA
BRANCH  19  22
ATOM     21  C   UNL     1       3.063   2.283  17.840  0.00  0.00    +0.000 C 
ATOM     22  O   UNL     1       3.082   2.996  19.081  0.00  0.00    +0.000 OA
ENDBRANCH  19  22
ENDBRANCH   1  19
TORSDOF 3
ENDMDL
MODEL 3
REMARK VINA RESULT:      -6.6      0.566      1.251
REMARK  Name = 
REMARK  6 active torsions:
REMARK  status: ('A' for Active; 'I' for Inactive)
REMARK    1  A    between atoms: C_1  and  O_2
REMARK    2  A    between atoms: O_2  and  C_3
REMARK    3  A    between atoms: C_3  and  C_5
REMARK    4  A    between atoms: C_6  and  C_7
REMARK    5  A    between atoms: C_11  and  N_12
REMARK    6  A    between atoms: N_19  and  C_20
REMARK                            x       y       z     vdW  Elec       q    Type
REMARK                         _______ _______ _______ _____ _____    ______ ____
ROOT
ATOM      1  C   UNL     1       5.804   5.302  16.708  0.00  0.00    +0.000 A 
ATOM      2  C   UNL     1       5.576   6.550  17.305  0.00  0.00    +0.000 A 
ATOM      3  C   UNL     1       6.439   7.761  17.082  0.00  0.00    +0.000 C 
ATOM      4  N   UNL     1       4.551   6.795  18.165  0.00  0.00    +0.000 NA
ATOM      5  C   UNL     1       3.743   5.746  18.395  0.00  0.00    +0.000 A 
ATOM      6  C   UNL     1       3.844   4.468  17.861  0.00  0.00    +0.000 A 
ATOM      7  C   UNL     1       4.927   4.218  16.983  0.00  0.00    +0.000 A 
ATOM      8  C   UNL     1       2.737   3.716  18.393  0.00  0.00    +0.000 A 
ATOM      9  C   UNL     1       2.270   2.392  18.225  0.00  0.00    +0.000 A 
ATOM     10  C   UNL     1       1.118   1.958  18.892  0.00  0.00    +0.000 A 
ATOM     11  C   UNL     1       0.423   2.820  19.725  0.00  0.00    +0.000 A 
ATOM     12  C   UNL     1       0.856   4.133  19.917  0.00  0.00    +0.000 A 
ATOM     13  C   UNL     1       2.011   4.564  19.240  0.00  0.00    +0.000 A 
ATOM     14  N   UNL     1       2.654   5.783  19.231  0.00  0.00    +0.000 N 
ATOM     15  C   UNL     1       2.274   6.964  19.972  0.00  0.00    +0.000 C 
ENDROOT
BRANCH   7  16
ATOM     16  N   UNL     1       5.185   2.925  16.474  0.00  0.00    +0.000 N 
ATOM     17  H   UNL     1       4.363   2.361  16.325  0.00  0.00    +0.000 HD
ATOM     18  H   UNL     1       5.789   2.950  15.653  0.00  0.00    +0.000 HD
ENDBRANCH   7  16
BRANCH   1  19
ATOM     19  C   UNL     1       6.959   5.108  15.790  0.00  0.00    +0.000 C 
ATOM     20  O   UNL     1       7.010   5.500  14.637  0.00  0.00    +0.000 OA
BRANCH  19  22
ATOM     21  C   UNL     1       7.979   4.561  17.844  0.00  0.00    +0.000 C 
ATOM     22  O   UNL     1       7.924   4.386  16.425  0.00  0.00    +0.000 OA
ENDBRANCH  19  22
ENDBRANCH   1  19
TORSDOF 3
ENDMDL
MODEL 4
REMARK VINA RESULT:      -6.4      1.000      1.000
REMARK  Name = 
REMARK  6 active torsions:
REMARK  status: ('A' for Active; 'I' for Inactive)
REMARK    1  A    between atoms: C_1  and  O_2
REMARK    2  A    between atoms: O_2  and  C_3
REMARK    3  A    between atoms: C_3  and  C_5
REMARK    4  A    between atoms: C_6  and  C_7
REMARK    5  A    between atoms: C_11  and  N_12
REMARK    6  A    between atoms: N_19  and  C_20
REMARK                            x       y       z     vdW  Elec       q    Type
REMARK                         _______ _______ _______ _____ _____    ______ ____
ROOT
ATOM      1  C   UNL     1       5.209   4.876  16.135  0.00  0.00    +0.000 A 
ATOM      2  C   UNL     1       4.954   6.234  16.375  0.00  0.00    +0.000 A 
ATOM      3  C   UNL     1       5.582   7.359  15.601  0.00  0.00    +0.000 C 
ATOM      4  N   UNL     1       4.115   6.679  17.349  0.00  0.00    +0.000 NA
ATOM      5  C   UNL     1       3.520   5.712  18.068  0.00  0.00    +0.000 A 
ATOM      6  C   UNL     1       3.670   4.339  17.926  0.00  0.00    +0.000 A 
ATOM      7  C   UNL     1       4.562   3.886  16.923  0.00  0.00    +0.000 A 
ATOM      8  C   UNL     1       2.812   3.731  18.910  0.00  0.00    +0.000 A 
ATOM      9  C   UNL     1       2.497   2.398  19.259  0.00  0.00    +0.000 A 
ATOM     10  C   UNL     1       1.583   2.132  20.285  0.00  0.00    +0.000 A 
ATOM     11  C   UNL     1       0.977   3.172  20.972  0.00  0.00    +0.000 A 
ATOM     12  C   UNL     1       1.265   4.501  20.657  0.00  0.00    +0.000 A 
ATOM     13  C   UNL     1       2.180   4.761  19.622  0.00  0.00    +0.000 A 
ATOM     14  N   UNL     1       2.641   5.950  19.096  0.00  0.00    +0.000 N 
ATOM     15  C   UNL     1       2.278   7.281  19.527  0.00  0.00    +0.000 C 
ENDROOT
BRANCH   7  16
ATOM     16  N   UNL     1       4.871   2.516  16.770  0.00  0.00    +0.000 N 
ATOM     17  H   UNL     1       4.879   2.192  15.816  0.00  0.00    +0.000 HD
ATOM     18  H   UNL     1       5.720   2.257  17.272  0.00  0.00    +0.000 HD
ENDBRANCH   7  16
BRANCH   1  19
ATOM     19  C   UNL     1       6.155   4.468  15.061  0.00  0.00    +0.000 C 
ATOM     20  O   UNL     1       7.368   4.564  15.123  0.00  0.00    +0.000 OA
BRANCH  19  22
ATOM     21  C   UNL     1       6.241   3.639  12.855  0.00  0.00    +0.000 C 
ATOM     22  O   UNL     1       5.449   4.018  13.985  0.00  0.00    +0.000 OA
ENDBRANCH  19  22
ENDBRANCH   1  19
TORSDOF 3
ENDMDL
MODEL 5
REMARK VINA RESULT:      -6.3      2.894      5.452
REMARK  Name = 
REMARK  6 active torsions:
REMARK  status: ('A' for Active; 'I' for Inactive)
REMARK    1  A    between atoms: C_1  and  O_2
REMARK    2  A    between atoms: O_2  and  C_3
REMARK    3  A    between atoms: C_3  and  C_5
REMARK    4  A    between atoms: C_6  and  C_7
REMARK    5  A    between atoms: C_11  and  N_12
REMARK    6  A    between atoms: N_19  and  C_20
REMARK                            x       y       z     vdW  Elec       q    Type
REMARK                         _______ _______ _______ _____ _____    ______ ____
ROOT
ATOM      1  C   UNL     1       2.886   3.685  19.809  0.00  0.00    +0.000 A 
ATOM      2  C   UNL     1       2.530   5.033  19.961  0.00  0.00    +0.000 A 
ATOM      3  C   UNL     1       1.655   5.553  21.068  0.00  0.00    +0.000 C 
ATOM      4  N   UNL     1       2.932   6.016  19.113  0.00  0.00    +0.000 NA
ATOM      5  C   UNL     1       3.724   5.607  18.107  0.00  0.00    +0.000 A 
ATOM      6  C   UNL     1       4.162   4.315  17.849  0.00  0.00    +0.000 A 
ATOM      7  C   UNL     1       3.722   3.295  18.727  0.00  0.00    +0.000 A 
ATOM      8  C   UNL     1       5.000   4.395  16.680  0.00  0.00    +0.000 A 
ATOM      9  C   UNL     1       5.753   3.457  15.937  0.00  0.00    +0.000 A 
ATOM     10  C   UNL     1       6.497   3.868  14.825  0.00  0.00    +0.000 A 
ATOM     11  C   UNL     1       6.503   5.199  14.438  0.00  0.00    +0.000 A 
ATOM     12  C   UNL     1       5.770   6.153  15.146  0.00  0.00    +0.000 A 
ATOM     13  C   UNL     1       5.029   5.734  16.265  0.00  0.00    +0.000 A 
ATOM     14  N   UNL     1       4.235   6.441  17.142  0.00  0.00    +0.000 N 
ATOM     15  C   UNL     1       3.952   7.858  17.100  0.00  0.00    +0.000 C 
ENDROOT
BRANCH   7  16
ATOM     16  N   UNL     1       4.018   1.934  18.490  0.00  0.00    +0.000 N 
ATOM     17  H   UNL     1       3.384   1.471  17.858  0.00  0.00    +0.000 HD
ATOM     18  H   UNL     1       4.993   1.794  18.228  0.00  0.00    +0.000 HD
ENDBRANCH   7  16
BRANCH   1  19
ATOM     19  C   UNL     1       2.392   2.664  20.771  0.00  0.00    +0.000 C 
ATOM     20  O   UNL     1       2.737   2.575  21.936  0.00  0.00    +0.000 OA
BRANCH  19  22
ATOM     21  C   UNL     1       0.550   2.460  19.312  0.00  0.00    +0.000 C 
ATOM     22  O   UNL     1       1.533   1.821  20.132  0.00  0.00    +0.000 OA
ENDBRANCH  19  22
ENDBRANCH   1  19
TORSDOF 3
ENDMDL
MODEL 6
REMARK VINA RESULT:      -6.2      2.879      4.726
REMARK  Name = 
REMARK  6 active torsions:
REMARK  status: ('A' for Active; 'I' for Inactive)
REMARK    1  A    between atoms: C_1  and  O_2
REMARK    2  A    between atoms: O_2  and  C_3
REMARK    3  A    between atoms: C_3  and  C_5
REMARK    4  A    between atoms: C_6  and  C_7
REMARK    5  A    between atoms: C_11  and  N_12
REMARK    6  A    between atoms: N_19  and  C_20
REMARK                            x       y       z     vdW  Elec       q    Type
REMARK                         _______ _______ _______ _____ _____    ______ ____
ROOT
ATOM      1  C   UNL     1       3.728   5.740  18.594  0.00  0.00    +0.000 A 
ATOM      2  C   UNL     1       3.931   6.651  17.548  0.00  0.00    +0.000 A 
ATOM      3  C   UNL     1       4.819   6.390  16.363  0.00  0.00    +0.000 C 
ATOM      4  N   UNL     1       3.350   7.880  17.499  0.00  0.00    +0.000 NA
ATOM      5  C   UNL     1       2.538   8.163  18.533  0.00  0.00    +0.000 A 
ATOM      6  C   UNL     1       2.240   7.352  19.619  0.00  0.00    +0.000 A 
ATOM      7  C   UNL     1       2.865   6.082  19.670  0.00  0.00    +0.000 A 
ATOM      8  C   UNL     1       1.311   8.091  20.435  0.00  0.00    +0.000 A 
ATOM      9  C   UNL     1       0.622   7.821  21.640  0.00  0.00    +0.000 A 
ATOM     10  C   UNL     1      -0.249   8.771  22.185  0.00  0.00    +0.000 A 
ATOM     11  C   UNL     1      -0.445   9.989  21.552  0.00  0.00    +0.000 A 
ATOM     12  C   UNL     1       0.220  10.291  20.363  0.00  0.00    +0.000 A 
ATOM     13  C   UNL     1       1.090   9.330  19.818  0.00  0.00    +0.000 A 
ATOM     14  N   UNL     1       1.859   9.348  18.674  0.00  0.00    +0.000 N 
ATOM     15  C   UNL     1       1.966  10.432  17.724  0.00  0.00    +0.000 C 
ENDROOT
BRANCH   7  16
ATOM     16  N   UNL     1       2.717   5.227  20.786  0.00  0.00    +0.000 N 
ATOM     17  H   UNL     1       3.466   4.564  20.908  0.00  0.00    +0.000 HD
ATOM     18  H   UNL     1       2.517   5.745  21.641  0.00  0.00    +0.000 HD
ENDBRANCH   7  16
BRANCH   1  19
ATOM     19  C   UNL     1       4.414   4.419  18.584  0.00  0.00    +0.000 C 
ATOM     20  O   UNL     1       4.122   3.485  17.858  0.00  0.00    +0.000 OA
BRANCH  19  22
ATOM     21  C   UNL     1       6.493   5.274  19.296  0.00  0.00    +0.000 C 
ATOM     22  O   UNL     1       5.382   4.406  19.542  0.00  0.00    +0.000 OA
ENDBRANCH  19  22
ENDBRANCH   1  19
TORSDOF 3
ENDMDL
MODEL 7
REMARK VINA RESULT:      -6.2      3.923      6.413
REMARK  Name = 
REMARK  6 active torsions:
REMARK  status: ('A' for Active; 'I' for Inactive)
REMARK    1  A    between atoms: C_1  and  O_2
REMARK    2  A    between atoms: O_2  and  C_3
REMARK    3  A    between atoms: C_3  and  C_5
REMARK    4  A    between atoms: C_6  and  C_7
REMARK    5  A    between atoms: C_11  and  N_12
REMARK    6  A    between atoms: N_19  and  C_20
REMARK                            x       y       z     vdW  Elec       q    Type
REMARK                         _______ _______ _______ _____ _____    ______ ____
ROOT
ATOM      1  C   UNL     1       1.137   9.150  19.778  0.00  0.00    +0.000 A 
ATOM      2  C   UNL     1       0.752   8.364  20.873  0.00  0.00    +0.000 A 
ATOM      3  C   UNL     1      -0.179   8.830  21.958  0.00  0.00    +0.000 C 
ATOM      4  N   UNL     1       1.193   7.095  21.079  0.00  0.00    +0.000 NA
ATOM      5  C   UNL     1       2.025   6.625  20.133  0.00  0.00    +0.000 A 
ATOM      6  C   UNL     1       2.472   7.286  18.997  0.00  0.00    +0.000 A 
ATOM      7  C   UNL     1       2.023   8.615  18.803  0.00  0.00    +0.000 A 
ATOM      8  C   UNL     1       3.321   6.360  18.294  0.00  0.00    +0.000 A 
ATOM      9  C   UNL     1       4.050   6.409  17.083  0.00  0.00    +0.000 A 
ATOM     10  C   UNL     1       4.789   5.299  16.656  0.00  0.00    +0.000 A 
ATOM     11  C   UNL     1       4.817   4.140  17.415  0.00  0.00    +0.000 A 
ATOM     12  C   UNL     1       4.112   4.055  18.617  0.00  0.00    +0.000 A 
ATOM     13  C   UNL     1       3.367   5.172  19.038  0.00  0.00    +0.000 A 
ATOM     14  N   UNL     1       2.582   5.370  20.154  0.00  0.00    +0.000 N 
ATOM     15  C   UNL     1       2.343   4.423  21.219  0.00  0.00    +0.000 C 
ENDROOT
BRANCH   7  16
ATOM     16  N   UNL     1       2.505   9.413  17.741  0.00  0.00    +0.000 N 
ATOM     17  H   UNL     1       2.042   9.262  16.859  0.00  0.00    +0.000 HD
ATOM     18  H   UNL     1       2.544  10.401  17.991  0.00  0.00    +0.000 HD
ENDBRANCH   7  16
BRANCH   1  19
ATOM     19  C   UNL     1       0.624  10.539  19.632  0.00  0.00    +0.000 C 
ATOM     20  O   UNL     1       0.987  11.493  20.298  0.00  0.00    +0.000 OA
BRANCH  19  22
ATOM     21  C   UNL     1      -1.561  11.214  19.057  0.00  0.00    +0.000 C 
ATOM     22  O   UNL     1      -0.344  10.565  18.674  0.00  0.00    +0.000 OA
ENDBRANCH  19  22
ENDBRANCH   1  19
TORSDOF 3
ENDMDL
MODEL 8
REMARK VINA RESULT:      -6.2      4.034      6.608
REMARK  Name = 
REMARK  6 active torsions:
REMARK  status: ('A' for Active; 'I' for Inactive)
REMARK    1  A    between atoms: C_1  and  O_2
REMARK    2  A    between atoms: O_2  and  C_3
REMARK    3  A    between atoms: C_3  and  C_5
REMARK    4  A    between atoms: C_6  and  C_7
REMARK    5  A    between atoms: C_11  and  N_12
REMARK    6  A    between atoms: N_19  and  C_20
REMARK                            x       y       z     vdW  Elec       q    Type
REMARK                         _______ _______ _______ _____ _____    ______ ____
ROOT
ATOM      1  C   UNL     1       0.974   9.327  19.880  0.00  0.00    +0.000 A 
ATOM      2  C   UNL     1       0.634   8.473  20.938  0.00  0.00    +0.000 A 
ATOM      3  C   UNL     1      -0.307   8.844  22.051  0.00  0.00    +0.000 C 
ATOM      4  N   UNL     1       1.131   7.215  21.077  0.00  0.00    +0.000 NA
ATOM      5  C   UNL     1       1.974   6.829  20.104  0.00  0.00    +0.000 A 
ATOM      6  C   UNL     1       2.382   7.564  18.999  0.00  0.00    +0.000 A 
ATOM      7  C   UNL     1       1.874   8.880  18.874  0.00  0.00    +0.000 A 
ATOM      8  C   UNL     1       3.264   6.711  18.246  0.00  0.00    +0.000 A 
ATOM      9  C   UNL     1       3.979   6.851  17.034  0.00  0.00    +0.000 A 
ATOM     10  C   UNL     1       4.762   5.797  16.548  0.00  0.00    +0.000 A 
ATOM     11  C   UNL     1       4.847   4.604  17.249  0.00  0.00    +0.000 A 
ATOM     12  C   UNL     1       4.157   4.430  18.450  0.00  0.00    +0.000 A 
ATOM     13  C   UNL     1       3.368   5.491  18.930  0.00  0.00    +0.000 A 
ATOM     14  N   UNL     1       2.585   5.600  20.060  0.00  0.00    +0.000 N 
ATOM     15  C   UNL     1       2.397   4.592  21.079  0.00  0.00    +0.000 C 
ENDROOT
BRANCH   7  16
ATOM     16  N   UNL     1       2.312   9.749  17.849  0.00  0.00    +0.000 N 
ATOM     17  H   UNL     1       3.201   9.504  17.443  0.00  0.00    +0.000 HD
ATOM     18  H   UNL     1       1.594   9.900  17.142  0.00  0.00    +0.000 HD
ENDBRANCH   7  16
BRANCH   1  19
ATOM     19  C   UNL     1       0.401  10.698  19.806  0.00  0.00    +0.000 C 
ATOM     20  O   UNL     1      -0.615  11.000  19.205  0.00  0.00    +0.000 OA
BRANCH  19  22
ATOM     21  C   UNL     1       1.557  12.752  19.753  0.00  0.00    +0.000 C 
ATOM     22  O   UNL     1       1.213  11.564  20.473  0.00  0.00    +0.000 OA
ENDBRANCH  19  22
ENDBRANCH   1  19
TORSDOF 3
ENDMDL
MODEL 9
REMARK VINA RESULT:      -6.1      1.571      3.262
REMARK  Name = 
REMARK  6 active torsions:
REMARK  status: ('A' for Active; 'I' for Inactive)
REMARK    1  A    between atoms: C_1  and  O_2
REMARK    2  A    between atoms: O_2  and  C_3
REMARK    3  A    between atoms: C_3  and  C_5
REMARK    4  A    between atoms: C_6  and  C_7
REMARK    5  A    between atoms: C_11  and  N_12
REMARK    6  A    between atoms: N_19  and  C_20
REMARK                            x       y       z     vdW  Elec       q    Type
REMARK                         _______ _______ _______ _____ _____    ______ ____
ROOT
ATOM      1  C   UNL     1       4.918   5.575  16.558  0.00  0.00    +0.000 A 
ATOM      2  C   UNL     1       5.386   4.304  16.193  0.00  0.00    +0.000 A 
ATOM      3  C   UNL     1       6.372   4.057  15.085  0.00  0.00    +0.000 C 
ATOM      4  N   UNL     1       4.986   3.154  16.798  0.00  0.00    +0.000 NA
ATOM      5  C   UNL     1       4.109   3.319  17.803  0.00  0.00    +0.000 A 
ATOM      6  C   UNL     1       3.579   4.512  18.274  0.00  0.00    +0.000 A 
ATOM      7  C   UNL     1       3.986   5.703  17.624  0.00  0.00    +0.000 A 
ATOM      8  C   UNL     1       2.708   4.167  19.368  0.00  0.00    +0.000 A 
ATOM      9  C   UNL     1       1.906   4.909  20.266  0.00  0.00    +0.000 A 
ATOM     10  C   UNL     1       1.167   4.256  21.259  0.00  0.00    +0.000 A 
ATOM     11  C   UNL     1       1.210   2.876  21.374  0.00  0.00    +0.000 A 
ATOM     12  C   UNL     1       1.989   2.110  20.505  0.00  0.00    +0.000 A 
ATOM     13  C   UNL     1       2.734   2.772  19.512  0.00  0.00    +0.000 A 
ATOM     14  N   UNL     1       3.581   2.287  18.539  0.00  0.00    +0.000 N 
ATOM     15  C   UNL     1       3.906   0.900  18.292  0.00  0.00    +0.000 C 
ENDROOT
BRANCH   7  16
ATOM     16  N   UNL     1       3.422   6.957  17.952  0.00  0.00    +0.000 N 
ATOM     17  H   UNL     1       2.416   6.988  17.909  0.00  0.00    +0.000 HD
ATOM     18  H   UNL     1       3.781   7.319  18.834  0.00  0.00    +0.000 HD
ENDBRANCH   7  16
BRANCH   1  19
ATOM     19  C   UNL     1       5.390   6.786  15.836  0.00  0.00    +0.000 C 
ATOM     20  O   UNL     1       5.151   7.043  14.669  0.00  0.00    +0.000 OA
BRANCH  19  22
ATOM     21  C   UNL     1       7.365   6.893  17.121  0.00  0.00    +0.000 C 
ATOM     22  O   UNL     1       6.168   7.534  16.668  0.00  0.00    +0.000 OA
ENDBRANCH  19  22
ENDBRANCH   1  19
TORSDOF 3
ENDMDL
