MODEL 1
REMARK VINA RESULT:      -8.7      0.000      0.000
REMARK  Name = 
REMARK  5 active torsions:
REMARK  status: ('A' for Active; 'I' for Inactive)
REMARK    1  A    between atoms: C_1  and  C_2
REMARK    2  A    between atoms: C_6  and  C_7
REMARK    3  A    between atoms: C_7  and  C_8
REMARK    4  A    between atoms: C_17  and  C_18
REMARK    5  A    between atoms: N_24  and  C_25
REMARK                            x       y       z     vdW  Elec       q    Type
REMARK                         _______ _______ _______ _____ _____    ______ ____
ROOT
ATOM      1  C   UNL     1       2.102   6.279  19.373  0.00  0.00    +0.000 A 
ATOM      2  C   UNL     1       1.808   4.947  19.819  0.00  0.00    +0.000 A 
ATOM      3  C   UNL     1       0.815   4.332  20.541  0.00  0.00    +0.000 A 
ATOM      4  C   UNL     1       1.100   2.935  20.507  0.00  0.00    +0.000 A 
ATOM      5  C   UNL     1       2.314   2.768  19.888  0.00  0.00    +0.000 A 
ATOM      6  N   UNL     1       2.762   4.009  19.526  0.00  0.00    +0.000 N 
ATOM      7  C   UNL     1       3.871   4.405  18.782  0.00  0.00    +0.000 A 
ATOM      8  C   UNL     1       5.163   3.987  19.050  0.00  0.00    +0.000 A 
ATOM      9  C   UNL     1       6.179   4.432  18.207  0.00  0.00    +0.000 A 
ATOM     10  C   UNL     1       5.863   5.091  17.006  0.00  0.00    +0.000 A 
ATOM     11  C   UNL     1       4.556   5.573  16.815  0.00  0.00    +0.000 A 
ATOM     12  C   UNL     1       3.631   5.426  17.845  0.00  0.00    +0.000 A 
ATOM     13  N   UNL     1       2.693   6.474  18.219  0.00  0.00    +0.000 N 
ATOM     14  C   UNL     1       2.842   7.777  17.525  0.00  0.00    +0.000 C 
ENDROOT
BRANCH  10  15
ATOM     15  C   UNL     1       6.916   5.304  15.938  0.00  0.00    +0.000 C 
ATOM     16  F   UNL     1       6.409   5.428  14.689  0.00  0.00    +0.000 F 
ATOM     17  F   UNL     1       7.654   6.418  16.185  0.00  0.00    +0.000 F 
ATOM     18  F   UNL     1       7.799   4.268  15.898  0.00  0.00    +0.000 F 
ENDBRANCH  10  15
BRANCH   1  19
ATOM     19  C   UNL     1       2.208   7.392  20.411  0.00  0.00    +0.000 C 
BRANCH  19  25
ATOM     20  C   UNL     1      -0.811  10.169  23.247  0.00  0.00    +0.000 C 
ATOM     21  C   UNL     1      -0.209   9.896  21.897  0.00  0.00    +0.000 A 
ATOM     22  C   UNL     1      -0.587  10.650  20.775  0.00  0.00    +0.000 A 
ATOM     23  C   UNL     1      -0.051  10.357  19.522  0.00  0.00    +0.000 A 
ATOM     24  C   UNL     1       0.854   9.300  19.354  0.00  0.00    +0.000 A 
ATOM     25  C   UNL     1       1.228   8.529  20.452  0.00  0.00    +0.000 A 
ATOM     26  C   UNL     1       0.689   8.854  21.724  0.00  0.00    +0.000 A 
ENDBRANCH  19  25
ENDBRANCH   1  19
TORSDOF 3
ENDMDL
MODEL 2
REMARK VINA RESULT:      -8.5      3.699      6.534
REMARK  Name = 
REMARK  5 active torsions:
REMARK  status: ('A' for Active; 'I' for Inactive)
REMARK    1  A    between atoms: C_1  and  C_2
REMARK    2  A    between atoms: C_6  and  C_7
REMARK    3  A    between atoms: C_7  and  C_8
REMARK    4  A    between atoms: C_17  and  C_18
REMARK    5  A    between atoms: N_24  and  C_25
REMARK                            x       y       z     vdW  Elec       q    Type
REMARK                         _______ _______ _______ _____ _____    ______ ____
ROOT
ATOM      1  C   UNL     1      -0.112  11.406  20.276  0.00  0.00    +0.000 A 
ATOM      2  C   UNL     1       0.760  12.215  19.474  0.00  0.00    +0.000 A 
ATOM      3  C   UNL     1       0.908  13.552  19.196  0.00  0.00    +0.000 A 
ATOM      4  C   UNL     1       2.079  13.668  18.390  0.00  0.00    +0.000 A 
ATOM      5  C   UNL     1       2.517  12.399  18.099  0.00  0.00    +0.000 A 
ATOM      6  N   UNL     1       1.669  11.523  18.718  0.00  0.00    +0.000 N 
ATOM      7  C   UNL     1       1.711  10.136  18.844  0.00  0.00    +0.000 A 
ATOM      8  C   UNL     1       1.865   9.273  17.772  0.00  0.00    +0.000 A 
ATOM      9  C   UNL     1       1.924   7.906  18.039  0.00  0.00    +0.000 A 
ATOM     10  C   UNL     1       2.051   7.451  19.363  0.00  0.00    +0.000 A 
ATOM     11  C   UNL     1       1.802   8.344  20.420  0.00  0.00    +0.000 A 
ATOM     12  C   UNL     1       1.388   9.639  20.119  0.00  0.00    +0.000 A 
ATOM     13  N   UNL     1       0.342  10.325  20.863  0.00  0.00    +0.000 N 
ATOM     14  C   UNL     1      -0.363   9.535  21.901  0.00  0.00    +0.000 C 
ENDROOT
BRANCH  10  15
ATOM     15  C   UNL     1       2.427   6.012  19.655  0.00  0.00    +0.000 C 
ATOM     16  F   UNL     1       3.759   5.813  19.786  0.00  0.00    +0.000 F 
ATOM     17  F   UNL     1       1.839   5.569  20.797  0.00  0.00    +0.000 F 
ATOM     18  F   UNL     1       2.004   5.179  18.665  0.00  0.00    +0.000 F 
ENDBRANCH  10  15
BRANCH   1  19
ATOM     19  C   UNL     1      -1.617  11.493  20.038  0.00  0.00    +0.000 C 
BRANCH  19  25
ATOM     20  C   UNL     1      -5.458  12.078  16.912  0.00  0.00    +0.000 C 
ATOM     21  C   UNL     1      -4.123  11.452  17.203  0.00  0.00    +0.000 A 
ATOM     22  C   UNL     1      -3.543  10.543  16.304  0.00  0.00    +0.000 A 
ATOM     23  C   UNL     1      -2.324   9.939  16.608  0.00  0.00    +0.000 A 
ATOM     24  C   UNL     1      -1.666  10.211  17.815  0.00  0.00    +0.000 A 
ATOM     25  C   UNL     1      -2.233  11.097  18.727  0.00  0.00    +0.000 A 
ATOM     26  C   UNL     1      -3.464  11.718  18.393  0.00  0.00    +0.000 A 
ENDBRANCH  19  25
ENDBRANCH   1  19
TORSDOF 3
ENDMDL
MODEL 3
REMARK VINA RESULT:      -8.5      4.034      7.337
REMARK  Name = 
REMARK  5 active torsions:
REMARK  status: ('A' for Active; 'I' for Inactive)
REMARK    1  A    between atoms: C_1  and  C_2
REMARK    2  A    between atoms: C_6  and  C_7
REMARK    3  A    between atoms: C_7  and  C_8
REMARK    4  A    between atoms: C_17  and  C_18
REMARK    5  A    between atoms: N_24  and  C_25
REMARK                            x       y       z     vdW  Elec       q    Type
REMARK                         _______ _______ _______ _____ _____    ______ ____
ROOT
ATOM      1  C   UNL     1       4.988   6.860  17.573  0.00  0.00    +0.000 A 
ATOM      2  C   UNL     1       6.231   6.500  18.193  0.00  0.00    +0.000 A 
ATOM      3  C   UNL     1       7.536   6.924  18.132  0.00  0.00    +0.000 A 
ATOM      4  C   UNL     1       8.245   6.186  19.126  0.00  0.00    +0.000 A 
ATOM      5  C   UNL     1       7.383   5.255  19.653  0.00  0.00    +0.000 A 
ATOM      6  N   UNL     1       6.176   5.420  19.033  0.00  0.00    +0.000 N 
ATOM      7  C   UNL     1       4.937   4.823  19.258  0.00  0.00    +0.000 A 
ATOM      8  C   UNL     1       4.747   3.453  19.325  0.00  0.00    +0.000 A 
ATOM      9  C   UNL     1       3.460   2.987  19.590  0.00  0.00    +0.000 A 
ATOM     10  C   UNL     1       2.454   3.881  19.996  0.00  0.00    +0.000 A 
ATOM     11  C   UNL     1       2.660   5.262  19.830  0.00  0.00    +0.000 A 
ATOM     12  C   UNL     1       3.835   5.696  19.220  0.00  0.00    +0.000 A 
ATOM     13  N   UNL     1       3.866   6.776  18.246  0.00  0.00    +0.000 N 
ATOM     14  C   UNL     1       2.555   7.331  17.827  0.00  0.00    +0.000 C 
ENDROOT
BRANCH  10  15
ATOM     15  C   UNL     1       1.154   3.371  20.583  0.00  0.00    +0.000 C 
ATOM     16  F   UNL     1       1.282   2.863  21.831  0.00  0.00    +0.000 F 
ATOM     17  F   UNL     1       0.218   4.354  20.643  0.00  0.00    +0.000 F 
ATOM     18  F   UNL     1       0.617   2.384  19.814  0.00  0.00    +0.000 F 
ENDBRANCH  10  15
BRANCH   1  19
ATOM     19  C   UNL     1       4.895   6.835  16.050  0.00  0.00    +0.000 C 
BRANCH  19  25
ATOM     20  C   UNL     1       8.064   5.295  12.522  0.00  0.00    +0.000 C 
ATOM     21  C   UNL     1       7.010   4.955  13.537  0.00  0.00    +0.000 A 
ATOM     22  C   UNL     1       6.535   3.641  13.671  0.00  0.00    +0.000 A 
ATOM     23  C   UNL     1       5.526   3.351  14.588  0.00  0.00    +0.000 A 
ATOM     24  C   UNL     1       4.956   4.360  15.376  0.00  0.00    +0.000 A 
ATOM     25  C   UNL     1       5.401   5.672  15.247  0.00  0.00    +0.000 A 
ATOM     26  C   UNL     1       6.443   5.947  14.323  0.00  0.00    +0.000 A 
ENDBRANCH  19  25
ENDBRANCH   1  19
TORSDOF 3
ENDMDL
MODEL 4
REMARK VINA RESULT:      -8.4      0.338      1.332
REMARK  Name = 
REMARK  5 active torsions:
REMARK  status: ('A' for Active; 'I' for Inactive)
REMARK    1  A    between atoms: C_1  and  C_2
REMARK    2  A    between atoms: C_6  and  C_7
REMARK    3  A    between atoms: C_7  and  C_8
REMARK    4  A    between atoms: C_17  and  C_18
REMARK    5  A    between atoms: N_24  and  C_25
REMARK                            x       y       z     vdW  Elec       q    Type
REMARK                         _______ _______ _______ _____ _____    ______ ____
ROOT
ATOM      1  C   UNL     1       2.157   6.374  19.480  0.00  0.00    +0.000 A 
ATOM      2  C   UNL     1       1.811   5.039  19.878  0.00  0.00    +0.000 A 
ATOM      3  C   UNL     1       0.804   4.440  20.594  0.00  0.00    +0.000 A 
ATOM      4  C   UNL     1       1.026   3.034  20.499  0.00  0.00    +0.000 A 
ATOM      5  C   UNL     1       2.221   2.839  19.851  0.00  0.00    +0.000 A 
ATOM      6  N   UNL     1       2.717   4.072  19.531  0.00  0.00    +0.000 N 
ATOM      7  C   UNL     1       3.830   4.449  18.782  0.00  0.00    +0.000 A 
ATOM      8  C   UNL     1       5.107   3.964  19.008  0.00  0.00    +0.000 A 
ATOM      9  C   UNL     1       6.127   4.398  18.165  0.00  0.00    +0.000 A 
ATOM     10  C   UNL     1       5.820   5.118  16.997  0.00  0.00    +0.000 A 
ATOM     11  C   UNL     1       4.533   5.665  16.850  0.00  0.00    +0.000 A 
ATOM     12  C   UNL     1       3.620   5.517  17.891  0.00  0.00    +0.000 A 
ATOM     13  N   UNL     1       2.736   6.590  18.324  0.00  0.00    +0.000 N 
ATOM     14  C   UNL     1       2.931   7.911  17.680  0.00  0.00    +0.000 C 
ENDROOT
BRANCH  10  15
ATOM     15  C   UNL     1       6.864   5.328  15.918  0.00  0.00    +0.000 C 
ATOM     16  F   UNL     1       6.342   5.493  14.680  0.00  0.00    +0.000 F 
ATOM     17  F   UNL     1       7.634   6.416  16.179  0.00  0.00    +0.000 F 
ATOM     18  F   UNL     1       7.718   4.270  15.843  0.00  0.00    +0.000 F 
ENDBRANCH  10  15
BRANCH   1  19
ATOM     19  C   UNL     1       2.330   7.438  20.559  0.00  0.00    +0.000 C 
BRANCH  19  25
ATOM     20  C   UNL     1      -0.491  11.120  18.730  0.00  0.00    +0.000 C 
ATOM     21  C   UNL     1      -0.134  10.230  19.886  0.00  0.00    +0.000 A 
ATOM     22  C   UNL     1      -0.754  10.390  21.136  0.00  0.00    +0.000 A 
ATOM     23  C   UNL     1      -0.381   9.584  22.211  0.00  0.00    +0.000 A 
ATOM     24  C   UNL     1       0.625   8.618  22.072  0.00  0.00    +0.000 A 
ATOM     25  C   UNL     1       1.262   8.454  20.845  0.00  0.00    +0.000 A 
ATOM     26  C   UNL     1       0.857   9.270  19.757  0.00  0.00    +0.000 A 
ENDBRANCH  19  25
ENDBRANCH   1  19
TORSDOF 3
ENDMDL
MODEL 5
REMARK VINA RESULT:      -7.9      4.047      7.336
REMARK  Name = 
REMARK  5 active torsions:
REMARK  status: ('A' for Active; 'I' for Inactive)
REMARK    1  A    between atoms: C_1  and  C_2
REMARK    2  A    between atoms: C_6  and  C_7
REMARK    3  A    between atoms: C_7  and  C_8
REMARK    4  A    between atoms: C_17  and  C_18
REMARK    5  A    between atoms: N_24  and  C_25
REMARK                            x       y       z     vdW  Elec       q    Type
REMARK                         _______ _______ _______ _____ _____    ______ ____
ROOT
ATOM      1  C   UNL     1       4.913   6.829  17.396  0.00  0.00    +0.000 A 
ATOM      2  C   UNL     1       6.179   6.563  18.016  0.00  0.00    +0.000 A 
ATOM      3  C   UNL     1       7.460   7.049  17.919  0.00  0.00    +0.000 A 
ATOM      4  C   UNL     1       8.216   6.396  18.937  0.00  0.00    +0.000 A 
ATOM      5  C   UNL     1       7.409   5.449  19.518  0.00  0.00    +0.000 A 
ATOM      6  N   UNL     1       6.188   5.522  18.906  0.00  0.00    +0.000 N 
ATOM      7  C   UNL     1       4.984   4.874  19.175  0.00  0.00    +0.000 A 
ATOM      8  C   UNL     1       4.865   3.501  19.309  0.00  0.00    +0.000 A 
ATOM      9  C   UNL     1       3.607   2.983  19.611  0.00  0.00    +0.000 A 
ATOM     10  C   UNL     1       2.561   3.843  19.988  0.00  0.00    +0.000 A 
ATOM     11  C   UNL     1       2.693   5.223  19.755  0.00  0.00    +0.000 A 
ATOM     12  C   UNL     1       3.838   5.687  19.111  0.00  0.00    +0.000 A 
ATOM     13  N   UNL     1       3.803   6.720  18.086  0.00  0.00    +0.000 N 
ATOM     14  C   UNL     1       2.462   7.186  17.659  0.00  0.00    +0.000 C 
ENDROOT
BRANCH  10  15
ATOM     15  C   UNL     1       1.295   3.295  20.615  0.00  0.00    +0.000 C 
ATOM     16  F   UNL     1       1.434   2.958  21.918  0.00  0.00    +0.000 F 
ATOM     17  F   UNL     1       0.276   4.191  20.537  0.00  0.00    +0.000 F 
ATOM     18  F   UNL     1       0.865   2.178  19.967  0.00  0.00    +0.000 F 
ENDBRANCH  10  15
BRANCH   1  19
ATOM     19  C   UNL     1       4.805   6.727  15.877  0.00  0.00    +0.000 C 
BRANCH  19  25
ATOM     20  C   UNL     1       4.606   3.371  12.195  0.00  0.00    +0.000 C 
ATOM     21  C   UNL     1       5.413   4.071  13.251  0.00  0.00    +0.000 A 
ATOM     22  C   UNL     1       6.751   3.718  13.487  0.00  0.00    +0.000 A 
ATOM     23  C   UNL     1       7.474   4.348  14.499  0.00  0.00    +0.000 A 
ATOM     24  C   UNL     1       6.878   5.326  15.308  0.00  0.00    +0.000 A 
ATOM     25  C   UNL     1       5.547   5.678  15.101  0.00  0.00    +0.000 A 
ATOM     26  C   UNL     1       4.833   5.041  14.054  0.00  0.00    +0.000 A 
ENDBRANCH  19  25
ENDBRANCH   1  19
TORSDOF 3
ENDMDL
MODEL 6
REMARK VINA RESULT:      -7.8      7.805     10.156
REMARK  Name = 
REMARK  5 active torsions:
REMARK  status: ('A' for Active; 'I' for Inactive)
REMARK    1  A    between atoms: C_1  and  C_2
REMARK    2  A    between atoms: C_6  and  C_7
REMARK    3  A    between atoms: C_7  and  C_8
REMARK    4  A    between atoms: C_17  and  C_18
REMARK    5  A    between atoms: N_24  and  C_25
REMARK                            x       y       z     vdW  Elec       q    Type
REMARK                         _______ _______ _______ _____ _____    ______ ____
ROOT
ATOM      1  C   UNL     1       0.197  12.277  20.692  0.00  0.00    +0.000 A 
ATOM      2  C   UNL     1       0.251  10.978  21.299  0.00  0.00    +0.000 A 
ATOM      3  C   UNL     1       0.881   9.784  21.048  0.00  0.00    +0.000 A 
ATOM      4  C   UNL     1       0.573   8.928  22.147  0.00  0.00    +0.000 A 
ATOM      5  C   UNL     1      -0.332   9.581  22.948  0.00  0.00    +0.000 A 
ATOM      6  N   UNL     1      -0.563  10.807  22.387  0.00  0.00    +0.000 N 
ATOM      7  C   UNL     1      -1.302  11.899  22.837  0.00  0.00    +0.000 A 
ATOM      8  C   UNL     1      -2.617  11.814  23.261  0.00  0.00    +0.000 A 
ATOM      9  C   UNL     1      -3.230  12.978  23.718  0.00  0.00    +0.000 A 
ATOM     10  C   UNL     1      -2.466  14.135  23.950  0.00  0.00    +0.000 A 
ATOM     11  C   UNL     1      -1.163  14.209  23.427  0.00  0.00    +0.000 A 
ATOM     12  C   UNL     1      -0.692  13.152  22.652  0.00  0.00    +0.000 A 
ATOM     13  N   UNL     1       0.083  13.350  21.435  0.00  0.00    +0.000 N 
ATOM     14  C   UNL     1       0.253  14.750  20.977  0.00  0.00    +0.000 C 
ENDROOT
BRANCH  10  15
ATOM     15  C   UNL     1      -3.040  15.300  24.731  0.00  0.00    +0.000 C 
ATOM     16  F   UNL     1      -4.345  15.542  24.469  0.00  0.00    +0.000 F 
ATOM     17  F   UNL     1      -2.929  15.100  26.070  0.00  0.00    +0.000 F 
ATOM     18  F   UNL     1      -2.369  16.454  24.464  0.00  0.00    +0.000 F 
ENDBRANCH  10  15
BRANCH   1  19
ATOM     19  C   UNL     1      -0.241  12.385  19.234  0.00  0.00    +0.000 C 
BRANCH  19  25
ATOM     20  C   UNL     1      -5.209  12.034  18.973  0.00  0.00    +0.000 C 
ATOM     21  C   UNL     1      -3.861  11.508  18.566  0.00  0.00    +0.000 A 
ATOM     22  C   UNL     1      -3.748  10.355  17.772  0.00  0.00    +0.000 A 
ATOM     23  C   UNL     1      -2.491   9.855  17.439  0.00  0.00    +0.000 A 
ATOM     24  C   UNL     1      -1.322  10.477  17.900  0.00  0.00    +0.000 A 
ATOM     25  C   UNL     1      -1.413  11.612  18.702  0.00  0.00    +0.000 A 
ATOM     26  C   UNL     1      -2.701  12.119  19.015  0.00  0.00    +0.000 A 
ENDBRANCH  19  25
ENDBRANCH   1  19
TORSDOF 3
ENDMDL
MODEL 7
REMARK VINA RESULT:      -7.8      2.455      4.429
REMARK  Name = 
REMARK  5 active torsions:
REMARK  status: ('A' for Active; 'I' for Inactive)
REMARK    1  A    between atoms: C_1  and  C_2
REMARK    2  A    between atoms: C_6  and  C_7
REMARK    3  A    between atoms: C_7  and  C_8
REMARK    4  A    between atoms: C_17  and  C_18
REMARK    5  A    between atoms: N_24  and  C_25
REMARK                            x       y       z     vdW  Elec       q    Type
REMARK                         _______ _______ _______ _____ _____    ______ ____
ROOT
ATOM      1  C   UNL     1       4.798   4.060  18.381  0.00  0.00    +0.000 A 
ATOM      2  C   UNL     1       5.936   4.871  18.705  0.00  0.00    +0.000 A 
ATOM      3  C   UNL     1       6.530   5.348  19.848  0.00  0.00    +0.000 A 
ATOM      4  C   UNL     1       7.725   6.008  19.435  0.00  0.00    +0.000 A 
ATOM      5  C   UNL     1       7.742   6.027  18.062  0.00  0.00    +0.000 A 
ATOM      6  N   UNL     1       6.616   5.381  17.631  0.00  0.00    +0.000 N 
ATOM      7  C   UNL     1       6.194   5.022  16.353  0.00  0.00    +0.000 A 
ATOM      8  C   UNL     1       6.127   5.908  15.290  0.00  0.00    +0.000 A 
ATOM      9  C   UNL     1       5.719   5.411  14.054  0.00  0.00    +0.000 A 
ATOM     10  C   UNL     1       5.604   4.024  13.852  0.00  0.00    +0.000 A 
ATOM     11  C   UNL     1       5.593   3.170  14.969  0.00  0.00    +0.000 A 
ATOM     12  C   UNL     1       5.645   3.733  16.243  0.00  0.00    +0.000 A 
ATOM     13  N   UNL     1       4.835   3.249  17.352  0.00  0.00    +0.000 N 
ATOM     14  C   UNL     1       3.845   2.191  17.039  0.00  0.00    +0.000 C 
ENDROOT
BRANCH  10  15
ATOM     15  C   UNL     1       5.470   3.452  12.456  0.00  0.00    +0.000 C 
ATOM     16  F   UNL     1       5.652   2.113  12.396  0.00  0.00    +0.000 F 
ATOM     17  F   UNL     1       4.246   3.716  11.928  0.00  0.00    +0.000 F 
ATOM     18  F   UNL     1       6.375   4.007  11.604  0.00  0.00    +0.000 F 
ENDBRANCH  10  15
BRANCH   1  19
ATOM     19  C   UNL     1       3.423   4.496  18.880  0.00  0.00    +0.000 C 
BRANCH  19  25
ATOM     20  C   UNL     1       1.135   8.276  21.190  0.00  0.00    +0.000 C 
ATOM     21  C   UNL     1       1.871   7.766  19.983  0.00  0.00    +0.000 A 
ATOM     22  C   UNL     1       2.068   8.585  18.860  0.00  0.00    +0.000 A 
ATOM     23  C   UNL     1       2.717   8.083  17.733  0.00  0.00    +0.000 A 
ATOM     24  C   UNL     1       3.165   6.756  17.691  0.00  0.00    +0.000 A 
ATOM     25  C   UNL     1       2.965   5.923  18.788  0.00  0.00    +0.000 A 
ATOM     26  C   UNL     1       2.321   6.456  19.935  0.00  0.00    +0.000 A 
ENDBRANCH  19  25
ENDBRANCH   1  19
TORSDOF 3
ENDMDL
MODEL 8
REMARK VINA RESULT:      -7.8      7.810     10.256
REMARK  Name = 
REMARK  5 active torsions:
REMARK  status: ('A' for Active; 'I' for Inactive)
REMARK    1  A    between atoms: C_1  and  C_2
REMARK    2  A    between atoms: C_6  and  C_7
REMARK    3  A    between atoms: C_7  and  C_8
REMARK    4  A    between atoms: C_17  and  C_18
REMARK    5  A    between atoms: N_24  and  C_25
REMARK                            x       y       z     vdW  Elec       q    Type
REMARK                         _______ _______ _______ _____ _____    ______ ____
ROOT
ATOM      1  C   UNL     1       0.112  12.279  20.596  0.00  0.00    +0.000 A 
ATOM      2  C   UNL     1       0.154  10.975  21.192  0.00  0.00    +0.000 A 
ATOM      3  C   UNL     1       0.759   9.772  20.921  0.00  0.00    +0.000 A 
ATOM      4  C   UNL     1       0.456   8.914  22.019  0.00  0.00    +0.000 A 
ATOM      5  C   UNL     1      -0.424   9.575  22.840  0.00  0.00    +0.000 A 
ATOM      6  N   UNL     1      -0.644  10.809  22.292  0.00  0.00    +0.000 N 
ATOM      7  C   UNL     1      -1.356  11.910  22.763  0.00  0.00    +0.000 A 
ATOM      8  C   UNL     1      -2.666  11.843  23.209  0.00  0.00    +0.000 A 
ATOM      9  C   UNL     1      -3.251  13.015  23.686  0.00  0.00    +0.000 A 
ATOM     10  C   UNL     1      -2.463  14.157  23.913  0.00  0.00    +0.000 A 
ATOM     11  C   UNL     1      -1.168  14.213  23.369  0.00  0.00    +0.000 A 
ATOM     12  C   UNL     1      -0.728  13.154  22.578  0.00  0.00    +0.000 A 
ATOM     13  N   UNL     1       0.029  13.349  21.350  0.00  0.00    +0.000 N 
ATOM     14  C   UNL     1       0.216  14.749  20.900  0.00  0.00    +0.000 C 
ENDROOT
BRANCH  10  15
ATOM     15  C   UNL     1      -3.004  15.324  24.713  0.00  0.00    +0.000 C 
ATOM     16  F   UNL     1      -2.504  16.523  24.333  0.00  0.00    +0.000 F 
ATOM     17  F   UNL     1      -4.357  15.405  24.619  0.00  0.00    +0.000 F 
ATOM     18  F   UNL     1      -2.725  15.189  26.039  0.00  0.00    +0.000 F 
ENDBRANCH  10  15
BRANCH   1  19
ATOM     19  C   UNL     1      -0.349  12.407  19.147  0.00  0.00    +0.000 C 
BRANCH  19  25
ATOM     20  C   UNL     1      -3.027   9.845  15.811  0.00  0.00    +0.000 C 
ATOM     21  C   UNL     1      -2.989  10.663  17.071  0.00  0.00    +0.000 A 
ATOM     22  C   UNL     1      -4.172  11.002  17.746  0.00  0.00    +0.000 A 
ATOM     23  C   UNL     1      -4.123  11.797  18.890  0.00  0.00    +0.000 A 
ATOM     24  C   UNL     1      -2.902  12.285  19.376  0.00  0.00    +0.000 A 
ATOM     25  C   UNL     1      -1.719  11.973  18.712  0.00  0.00    +0.000 A 
ATOM     26  C   UNL     1      -1.785  11.147  17.561  0.00  0.00    +0.000 A 
ENDBRANCH  19  25
ENDBRANCH   1  19
TORSDOF 3
ENDMDL
MODEL 9
REMARK VINA RESULT:      -7.8      6.732      8.918
REMARK  Name = 
REMARK  5 active torsions:
REMARK  status: ('A' for Active; 'I' for Inactive)
REMARK    1  A    between atoms: C_1  and  C_2
REMARK    2  A    between atoms: C_6  and  C_7
REMARK    3  A    between atoms: C_7  and  C_8
REMARK    4  A    between atoms: C_17  and  C_18
REMARK    5  A    between atoms: N_24  and  C_25
REMARK                            x       y       z     vdW  Elec       q    Type
REMARK                         _______ _______ _______ _____ _____    ______ ____
ROOT
ATOM      1  C   UNL     1       0.439  10.802  19.693  0.00  0.00    +0.000 A 
ATOM      2  C   UNL     1      -0.149  10.867  20.999  0.00  0.00    +0.000 A 
ATOM      3  C   UNL     1      -0.545   9.971  21.962  0.00  0.00    +0.000 A 
ATOM      4  C   UNL     1      -0.948  10.746  23.090  0.00  0.00    +0.000 A 
ATOM      5  C   UNL     1      -0.912  12.070  22.727  0.00  0.00    +0.000 A 
ATOM      6  N   UNL     1      -0.479  12.125  21.430  0.00  0.00    +0.000 N 
ATOM      7  C   UNL     1      -0.160  13.207  20.613  0.00  0.00    +0.000 A 
ATOM      8  C   UNL     1      -1.001  14.287  20.407  0.00  0.00    +0.000 A 
ATOM      9  C   UNL     1      -0.546  15.320  19.590  0.00  0.00    +0.000 A 
ATOM     10  C   UNL     1       0.799  15.359  19.184  0.00  0.00    +0.000 A 
ATOM     11  C   UNL     1       1.593  14.209  19.337  0.00  0.00    +0.000 A 
ATOM     12  C   UNL     1       1.004  13.051  19.838  0.00  0.00    +0.000 A 
ATOM     13  N   UNL     1       1.280  11.727  19.299  0.00  0.00    +0.000 N 
ATOM     14  C   UNL     1       2.140  11.668  18.092  0.00  0.00    +0.000 C 
ENDROOT
BRANCH  10  15
ATOM     15  C   UNL     1       1.387  16.613  18.568  0.00  0.00    +0.000 C 
ATOM     16  F   UNL     1       1.916  17.468  19.473  0.00  0.00    +0.000 F 
ATOM     17  F   UNL     1       2.367  16.313  17.676  0.00  0.00    +0.000 F 
ATOM     18  F   UNL     1       0.447  17.312  17.875  0.00  0.00    +0.000 F 
ENDBRANCH  10  15
BRANCH   1  19
ATOM     19  C   UNL     1      -0.271   9.995  18.609  0.00  0.00    +0.000 C 
BRANCH  19  25
ATOM     20  C   UNL     1      -3.176   9.969  14.557  0.00  0.00    +0.000 C 
ATOM     21  C   UNL     1      -2.970  10.384  15.986  0.00  0.00    +0.000 A 
ATOM     22  C   UNL     1      -3.918  11.181  16.648  0.00  0.00    +0.000 A 
ATOM     23  C   UNL     1      -3.692  11.593  17.960  0.00  0.00    +0.000 A 
ATOM     24  C   UNL     1      -2.515  11.240  18.634  0.00  0.00    +0.000 A 
ATOM     25  C   UNL     1      -1.555  10.464  17.989  0.00  0.00    +0.000 A 
ATOM     26  C   UNL     1      -1.810  10.036  16.661  0.00  0.00    +0.000 A 
ENDBRANCH  19  25
ENDBRANCH   1  19
TORSDOF 3
ENDMDL
