MODEL 1
REMARK VINA RESULT:      -6.8      0.000      0.000
REMARK  Name = 
REMARK  5 active torsions:
REMARK  status: ('A' for Active; 'I' for Inactive)
REMARK    1  A    between atoms: C_1  and  O_2
REMARK    2  A    between atoms: O_2  and  C_3
REMARK    3  A    between atoms: C_8  and  O_9
REMARK    4  A    between atoms: O_9  and  C_10
REMARK    5  A    between atoms: C_18  and  C_19
REMARK                            x       y       z     vdW  Elec       q    Type
REMARK                         _______ _______ _______ _____ _____    ______ ____
ROOT
ATOM      1  C   UNL     1       1.739   7.003  20.255  0.00  0.00    +0.000 A 
ATOM      2  C   UNL     1       1.829   5.727  20.843  0.00  0.00    +0.000 A 
ATOM      3  C   UNL     1       2.669   4.726  20.333  0.00  0.00    +0.000 A 
ATOM      4  C   UNL     1       3.495   5.019  19.217  0.00  0.00    +0.000 A 
ATOM      5  C   UNL     1       3.438   6.324  18.674  0.00  0.00    +0.000 A 
ATOM      6  C   UNL     1       2.586   7.311  19.167  0.00  0.00    +0.000 A 
ATOM      7  C   UNL     1       4.395   3.923  18.605  0.00  0.00    +0.000 C 
ATOM      8  C   UNL     1       3.729   3.404  17.305  0.00  0.00    +0.000 C 
ATOM      9  C   UNL     1       4.307   4.285  16.206  0.00  0.00    +0.000 C 
ATOM     10  C   UNL     1       5.778   4.282  16.592  0.00  0.00    +0.000 C 
ATOM     11  C   UNL     1       5.784   4.450  18.120  0.00  0.00    +0.000 C 
ATOM     12  C   UNL     1       4.590   2.785  19.627  0.00  0.00    +0.000 C 
ATOM     13  N   UNL     1       3.296   2.329  20.116  0.00  0.00    +0.000 NA
ATOM     14  C   UNL     1       2.666   3.337  20.984  0.00  0.00    +0.000 C 
ATOM     15  C   UNL     1       1.247   2.839  21.315  0.00  0.00    +0.000 C 
ATOM     16  H   UNL     1       3.439   1.453  20.672  0.00  0.00    +0.000 HD
ENDROOT
BRANCH   1  18
ATOM     17  C   UNL     1       1.067   8.814  21.735  0.00  0.00    +0.000 C 
ATOM     18  O   UNL     1       0.841   7.903  20.721  0.00  0.00    +0.000 OA
ENDBRANCH   1  18
BRANCH   6  19
ATOM     19  O   UNL     1       2.619   8.501  18.494  0.00  0.00    +0.000 OA
ATOM     20  C   UNL     1       1.668   9.184  17.762  0.00  0.00    +0.000 C 
ENDBRANCH   6  19
TORSDOF 2
ENDMDL
MODEL 2
REMARK VINA RESULT:      -6.8      3.884      6.271
REMARK  Name = 
REMARK  5 active torsions:
REMARK  status: ('A' for Active; 'I' for Inactive)
REMARK    1  A    between atoms: C_1  and  O_2
REMARK    2  A    between atoms: O_2  and  C_3
REMARK    3  A    between atoms: C_8  and  O_9
REMARK    4  A    between atoms: O_9  and  C_10
REMARK    5  A    between atoms: C_18  and  C_19
REMARK                            x       y       z     vdW  Elec       q    Type
REMARK                         _______ _______ _______ _____ _____    ______ ____
ROOT
ATOM      1  C   UNL     1       6.803   4.957  14.466  0.00  0.00    +0.000 A 
ATOM      2  C   UNL     1       7.288   5.202  15.765  0.00  0.00    +0.000 A 
ATOM      3  C   UNL     1       6.565   4.845  16.912  0.00  0.00    +0.000 A 
ATOM      4  C   UNL     1       5.325   4.171  16.767  0.00  0.00    +0.000 A 
ATOM      5  C   UNL     1       4.879   3.878  15.456  0.00  0.00    +0.000 A 
ATOM      6  C   UNL     1       5.587   4.253  14.316  0.00  0.00    +0.000 A 
ATOM      7  C   UNL     1       4.485   3.807  18.011  0.00  0.00    +0.000 C 
ATOM      8  C   UNL     1       3.316   4.819  18.132  0.00  0.00    +0.000 C 
ATOM      9  C   UNL     1       2.176   4.174  17.356  0.00  0.00    +0.000 C 
ATOM     10  C   UNL     1       2.260   2.746  17.873  0.00  0.00    +0.000 C 
ATOM     11  C   UNL     1       3.763   2.425  17.900  0.00  0.00    +0.000 C 
ATOM     12  C   UNL     1       5.382   3.835  19.266  0.00  0.00    +0.000 C 
ATOM     13  N   UNL     1       6.092   5.104  19.340  0.00  0.00    +0.000 NA
ATOM     14  C   UNL     1       7.123   5.204  18.295  0.00  0.00    +0.000 C 
ATOM     15  C   UNL     1       7.702   6.629  18.351  0.00  0.00    +0.000 C 
ATOM     16  H   UNL     1       6.558   5.172  20.276  0.00  0.00    +0.000 HD
ENDROOT
BRANCH   1  18
ATOM     17  C   UNL     1       8.853   5.621  13.336  0.00  0.00    +0.000 C 
ATOM     18  O   UNL     1       7.489   5.409  13.389  0.00  0.00    +0.000 OA
ENDBRANCH   1  18
BRANCH   6  19
ATOM     19  O   UNL     1       4.990   3.938  13.127  0.00  0.00    +0.000 OA
ATOM     20  C   UNL     1       5.372   3.125  12.078  0.00  0.00    +0.000 C 
ENDBRANCH   6  19
TORSDOF 2
ENDMDL
MODEL 3
REMARK VINA RESULT:      -6.6      1.229      3.861
REMARK  Name = 
REMARK  5 active torsions:
REMARK  status: ('A' for Active; 'I' for Inactive)
REMARK    1  A    between atoms: C_1  and  O_2
REMARK    2  A    between atoms: O_2  and  C_3
REMARK    3  A    between atoms: C_8  and  O_9
REMARK    4  A    between atoms: O_9  and  C_10
REMARK    5  A    between atoms: C_18  and  C_19
REMARK                            x       y       z     vdW  Elec       q    Type
REMARK                         _______ _______ _______ _____ _____    ______ ____
ROOT
ATOM      1  C   UNL     1       2.671   7.561  18.585  0.00  0.00    +0.000 A 
ATOM      2  C   UNL     1       3.067   6.569  17.667  0.00  0.00    +0.000 A 
ATOM      3  C   UNL     1       2.923   5.200  17.938  0.00  0.00    +0.000 A 
ATOM      4  C   UNL     1       2.313   4.795  19.154  0.00  0.00    +0.000 A 
ATOM      5  C   UNL     1       1.867   5.805  20.040  0.00  0.00    +0.000 A 
ATOM      6  C   UNL     1       2.031   7.164  19.781  0.00  0.00    +0.000 A 
ATOM      7  C   UNL     1       2.183   3.296  19.500  0.00  0.00    +0.000 C 
ATOM      8  C   UNL     1       3.274   2.932  20.540  0.00  0.00    +0.000 C 
ATOM      9  C   UNL     1       2.599   3.148  21.887  0.00  0.00    +0.000 C 
ATOM     10  C   UNL     1       1.256   2.479  21.636  0.00  0.00    +0.000 C 
ATOM     11  C   UNL     1       0.848   2.932  20.226  0.00  0.00    +0.000 C 
ATOM     12  C   UNL     1       2.332   2.455  18.215  0.00  0.00    +0.000 C 
ATOM     13  N   UNL     1       3.552   2.832  17.514  0.00  0.00    +0.000 NA
ATOM     14  C   UNL     1       3.437   4.174  16.921  0.00  0.00    +0.000 C 
ATOM     15  C   UNL     1       4.817   4.546  16.348  0.00  0.00    +0.000 C 
ATOM     16  H   UNL     1       3.722   2.141  16.745  0.00  0.00    +0.000 HD
ENDROOT
BRANCH   1  18
ATOM     17  C   UNL     1       2.001   9.783  17.855  0.00  0.00    +0.000 C 
ATOM     18  O   UNL     1       2.922   8.866  18.324  0.00  0.00    +0.000 OA
ENDBRANCH   1  18
BRANCH   6  19
ATOM     19  O   UNL     1       1.589   8.005  20.765  0.00  0.00    +0.000 OA
ATOM     20  C   UNL     1       0.326   8.427  21.133  0.00  0.00    +0.000 C 
ENDBRANCH   6  19
TORSDOF 2
ENDMDL
MODEL 4
REMARK VINA RESULT:      -6.6      2.818      4.654
REMARK  Name = 
REMARK  5 active torsions:
REMARK  status: ('A' for Active; 'I' for Inactive)
REMARK    1  A    between atoms: C_1  and  O_2
REMARK    2  A    between atoms: O_2  and  C_3
REMARK    3  A    between atoms: C_8  and  O_9
REMARK    4  A    between atoms: O_9  and  C_10
REMARK    5  A    between atoms: C_18  and  C_19
REMARK                            x       y       z     vdW  Elec       q    Type
REMARK                         _______ _______ _______ _____ _____    ______ ____
ROOT
ATOM      1  C   UNL     1       2.196   3.386  19.224  0.00  0.00    +0.000 A 
ATOM      2  C   UNL     1       1.994   4.755  18.966  0.00  0.00    +0.000 A 
ATOM      3  C   UNL     1       2.890   5.512  18.198  0.00  0.00    +0.000 A 
ATOM      4  C   UNL     1       4.015   4.871  17.616  0.00  0.00    +0.000 A 
ATOM      5  C   UNL     1       4.173   3.482  17.835  0.00  0.00    +0.000 A 
ATOM      6  C   UNL     1       3.294   2.736  18.617  0.00  0.00    +0.000 A 
ATOM      7  C   UNL     1       5.044   5.688  16.804  0.00  0.00    +0.000 C 
ATOM      8  C   UNL     1       6.298   5.921  17.686  0.00  0.00    +0.000 C 
ATOM      9  C   UNL     1       7.207   4.741  17.370  0.00  0.00    +0.000 C 
ATOM     10  C   UNL     1       7.099   4.705  15.853  0.00  0.00    +0.000 C 
ATOM     11  C   UNL     1       5.607   4.929  15.559  0.00  0.00    +0.000 C 
ATOM     12  C   UNL     1       4.412   7.024  16.365  0.00  0.00    +0.000 C 
ATOM     13  N   UNL     1       3.843   7.707  17.519  0.00  0.00    +0.000 NA
ATOM     14  C   UNL     1       2.642   7.014  18.014  0.00  0.00    +0.000 C 
ATOM     15  C   UNL     1       2.212   7.709  19.318  0.00  0.00    +0.000 C 
ATOM     16  H   UNL     1       3.573   8.678  17.233  0.00  0.00    +0.000 HD
ENDROOT
BRANCH   1  18
ATOM     17  C   UNL     1       1.448   2.692  21.433  0.00  0.00    +0.000 C 
ATOM     18  O   UNL     1       1.359   2.720  20.054  0.00  0.00    +0.000 OA
ENDBRANCH   1  18
BRANCH   6  19
ATOM     19  O   UNL     1       3.622   1.416  18.768  0.00  0.00    +0.000 OA
ATOM     20  C   UNL     1       4.600   0.777  19.503  0.00  0.00    +0.000 C 
ENDBRANCH   6  19
TORSDOF 2
ENDMDL
MODEL 5
REMARK VINA RESULT:      -6.4      2.765      4.655
REMARK  Name = 
REMARK  5 active torsions:
REMARK  status: ('A' for Active; 'I' for Inactive)
REMARK    1  A    between atoms: C_1  and  O_2
REMARK    2  A    between atoms: O_2  and  C_3
REMARK    3  A    between atoms: C_8  and  O_9
REMARK    4  A    between atoms: O_9  and  C_10
REMARK    5  A    between atoms: C_18  and  C_19
REMARK                            x       y       z     vdW  Elec       q    Type
REMARK                         _______ _______ _______ _____ _____    ______ ____
ROOT
ATOM      1  C   UNL     1       3.153   3.307  20.471  0.00  0.00    +0.000 A 
ATOM      2  C   UNL     1       2.635   4.531  20.005  0.00  0.00    +0.000 A 
ATOM      3  C   UNL     1       3.256   5.264  18.984  0.00  0.00    +0.000 A 
ATOM      4  C   UNL     1       4.417   4.738  18.360  0.00  0.00    +0.000 A 
ATOM      5  C   UNL     1       4.891   3.478  18.799  0.00  0.00    +0.000 A 
ATOM      6  C   UNL     1       4.287   2.761  19.830  0.00  0.00    +0.000 A 
ATOM      7  C   UNL     1       5.148   5.544  17.265  0.00  0.00    +0.000 C 
ATOM      8  C   UNL     1       6.417   6.185  17.886  0.00  0.00    +0.000 C 
ATOM      9  C   UNL     1       7.513   5.156  17.651  0.00  0.00    +0.000 C 
ATOM     10  C   UNL     1       7.242   4.785  16.201  0.00  0.00    +0.000 C 
ATOM     11  C   UNL     1       5.713   4.661  16.106  0.00  0.00    +0.000 C 
ATOM     12  C   UNL     1       4.199   6.619  16.696  0.00  0.00    +0.000 C 
ATOM     13  N   UNL     1       3.635   7.408  17.781  0.00  0.00    +0.000 NA
ATOM     14  C   UNL     1       2.674   6.623  18.573  0.00  0.00    +0.000 C 
ATOM     15  C   UNL     1       2.259   7.482  19.781  0.00  0.00    +0.000 C 
ATOM     16  H   UNL     1       3.134   8.232  17.371  0.00  0.00    +0.000 HD
ENDROOT
BRANCH   1  18
ATOM     17  C   UNL     1       1.219   2.528  21.725  0.00  0.00    +0.000 C 
ATOM     18  O   UNL     1       2.578   2.684  21.527  0.00  0.00    +0.000 OA
ENDBRANCH   1  18
BRANCH   6  19
ATOM     19  O   UNL     1       4.904   1.586  20.163  0.00  0.00    +0.000 OA
ATOM     20  C   UNL     1       5.408   1.103  21.354  0.00  0.00    +0.000 C 
ENDBRANCH   6  19
TORSDOF 2
ENDMDL
MODEL 6
REMARK VINA RESULT:      -6.1      2.546      4.667
REMARK  Name = 
REMARK  5 active torsions:
REMARK  status: ('A' for Active; 'I' for Inactive)
REMARK    1  A    between atoms: C_1  and  O_2
REMARK    2  A    between atoms: O_2  and  C_3
REMARK    3  A    between atoms: C_8  and  O_9
REMARK    4  A    between atoms: O_9  and  C_10
REMARK    5  A    between atoms: C_18  and  C_19
REMARK                            x       y       z     vdW  Elec       q    Type
REMARK                         _______ _______ _______ _____ _____    ______ ____
ROOT
ATOM      1  C   UNL     1       5.662   6.434  17.382  0.00  0.00    +0.000 A 
ATOM      2  C   UNL     1       4.661   6.987  18.203  0.00  0.00    +0.000 A 
ATOM      3  C   UNL     1       3.685   6.196  18.827  0.00  0.00    +0.000 A 
ATOM      4  C   UNL     1       3.732   4.787  18.669  0.00  0.00    +0.000 A 
ATOM      5  C   UNL     1       4.779   4.241  17.889  0.00  0.00    +0.000 A 
ATOM      6  C   UNL     1       5.735   5.030  17.251  0.00  0.00    +0.000 A 
ATOM      7  C   UNL     1       2.644   3.894  19.306  0.00  0.00    +0.000 C 
ATOM      8  C   UNL     1       1.653   3.454  18.198  0.00  0.00    +0.000 C 
ATOM      9  C   UNL     1       2.221   2.139  17.683  0.00  0.00    +0.000 C 
ATOM     10  C   UNL     1       2.555   1.447  18.996  0.00  0.00    +0.000 C 
ATOM     11  C   UNL     1       3.190   2.542  19.867  0.00  0.00    +0.000 C 
ATOM     12  C   UNL     1       1.923   4.677  20.423  0.00  0.00    +0.000 C 
ATOM     13  N   UNL     1       1.459   5.959  19.911  0.00  0.00    +0.000 NA
ATOM     14  C   UNL     1       2.584   6.872  19.654  0.00  0.00    +0.000 C 
ATOM     15  C   UNL     1       2.012   8.127  18.968  0.00  0.00    +0.000 C 
ATOM     16  H   UNL     1       0.831   6.396  20.626  0.00  0.00    +0.000 HD
ENDROOT
BRANCH   1  18
ATOM     17  C   UNL     1       7.606   7.894  17.277  0.00  0.00    +0.000 C 
ATOM     18  O   UNL     1       6.521   7.246  16.719  0.00  0.00    +0.000 OA
ENDBRANCH   1  18
BRANCH   6  19
ATOM     19  O   UNL     1       6.647   4.345  16.495  0.00  0.00    +0.000 OA
ATOM     20  C   UNL     1       6.708   4.055  15.147  0.00  0.00    +0.000 C 
ENDBRANCH   6  19
TORSDOF 2
ENDMDL
MODEL 7
REMARK VINA RESULT:      -5.9      1.290      1.695
REMARK  Name = 
REMARK  5 active torsions:
REMARK  status: ('A' for Active; 'I' for Inactive)
REMARK    1  A    between atoms: C_1  and  O_2
REMARK    2  A    between atoms: O_2  and  C_3
REMARK    3  A    between atoms: C_8  and  O_9
REMARK    4  A    between atoms: O_9  and  C_10
REMARK    5  A    between atoms: C_18  and  C_19
REMARK                            x       y       z     vdW  Elec       q    Type
REMARK                         _______ _______ _______ _____ _____    ______ ____
ROOT
ATOM      1  C   UNL     1       2.209   7.297  19.284  0.00  0.00    +0.000 A 
ATOM      2  C   UNL     1       2.712   6.120  19.871  0.00  0.00    +0.000 A 
ATOM      3  C   UNL     1       3.769   5.395  19.302  0.00  0.00    +0.000 A 
ATOM      4  C   UNL     1       4.390   5.885  18.123  0.00  0.00    +0.000 A 
ATOM      5  C   UNL     1       3.912   7.101  17.579  0.00  0.00    +0.000 A 
ATOM      6  C   UNL     1       2.847   7.809  18.132  0.00  0.00    +0.000 A 
ATOM      7  C   UNL     1       5.525   5.084  17.449  0.00  0.00    +0.000 C 
ATOM      8  C   UNL     1       4.948   4.357  16.207  0.00  0.00    +0.000 C 
ATOM      9  C   UNL     1       5.160   5.337  15.062  0.00  0.00    +0.000 C 
ATOM     10  C   UNL     1       6.591   5.775  15.333  0.00  0.00    +0.000 C 
ATOM     11  C   UNL     1       6.659   5.980  16.855  0.00  0.00    +0.000 C 
ATOM     12  C   UNL     1       6.120   4.081  18.459  0.00  0.00    +0.000 C 
ATOM     13  N   UNL     1       5.056   3.281  19.050  0.00  0.00    +0.000 NA
ATOM     14  C   UNL     1       4.221   4.084  19.958  0.00  0.00    +0.000 C 
ATOM     15  C   UNL     1       3.039   3.203  20.401  0.00  0.00    +0.000 C 
ATOM     16  H   UNL     1       5.489   2.501  19.597  0.00  0.00    +0.000 HD
ENDROOT
BRANCH   1  18
ATOM     17  C   UNL     1       1.056   8.487  21.067  0.00  0.00    +0.000 C 
ATOM     18  O   UNL     1       1.122   7.908  19.814  0.00  0.00    +0.000 OA
ENDBRANCH   1  18
BRANCH   6  19
ATOM     19  O   UNL     1       2.479   8.938  17.452  0.00  0.00    +0.000 OA
ATOM     20  C   UNL     1       2.111  10.200  17.872  0.00  0.00    +0.000 C 
ENDBRANCH   6  19
TORSDOF 2
ENDMDL
MODEL 8
REMARK VINA RESULT:      -5.8      3.570      4.819
REMARK  Name = 
REMARK  5 active torsions:
REMARK  status: ('A' for Active; 'I' for Inactive)
REMARK    1  A    between atoms: C_1  and  O_2
REMARK    2  A    between atoms: O_2  and  C_3
REMARK    3  A    between atoms: C_8  and  O_9
REMARK    4  A    between atoms: O_9  and  C_10
REMARK    5  A    between atoms: C_18  and  C_19
REMARK                            x       y       z     vdW  Elec       q    Type
REMARK                         _______ _______ _______ _____ _____    ______ ____
ROOT
ATOM      1  C   UNL     1       4.138   3.370  19.585  0.00  0.00    +0.000 A 
ATOM      2  C   UNL     1       5.181   4.292  19.801  0.00  0.00    +0.000 A 
ATOM      3  C   UNL     1       5.836   4.941  18.745  0.00  0.00    +0.000 A 
ATOM      4  C   UNL     1       5.405   4.705  17.413  0.00  0.00    +0.000 A 
ATOM      5  C   UNL     1       4.317   3.822  17.216  0.00  0.00    +0.000 A 
ATOM      6  C   UNL     1       3.682   3.159  18.265  0.00  0.00    +0.000 A 
ATOM      7  C   UNL     1       6.137   5.370  16.227  0.00  0.00    +0.000 C 
ATOM      8  C   UNL     1       7.053   4.314  15.556  0.00  0.00    +0.000 C 
ATOM      9  C   UNL     1       6.182   3.690  14.476  0.00  0.00    +0.000 C 
ATOM     10  C   UNL     1       5.555   4.935  13.868  0.00  0.00    +0.000 C 
ATOM     11  C   UNL     1       5.184   5.816  15.072  0.00  0.00    +0.000 C 
ATOM     12  C   UNL     1       6.951   6.578  16.735  0.00  0.00    +0.000 C 
ATOM     13  N   UNL     1       7.802   6.171  17.845  0.00  0.00    +0.000 NA
ATOM     14  C   UNL     1       7.008   5.882  19.051  0.00  0.00    +0.000 C 
ATOM     15  C   UNL     1       7.968   5.309  20.110  0.00  0.00    +0.000 C 
ATOM     16  H   UNL     1       8.464   6.952  18.062  0.00  0.00    +0.000 HD
ENDROOT
BRANCH   1  18
ATOM     17  C   UNL     1       2.570   3.135  21.430  0.00  0.00    +0.000 C 
ATOM     18  O   UNL     1       3.604   2.692  20.628  0.00  0.00    +0.000 OA
ENDBRANCH   1  18
BRANCH   6  19
ATOM     19  O   UNL     1       2.682   2.302  17.894  0.00  0.00    +0.000 OA
ATOM     20  C   UNL     1       1.349   2.218  18.246  0.00  0.00    +0.000 C 
ENDBRANCH   6  19
TORSDOF 2
ENDMDL
MODEL 9
REMARK VINA RESULT:      -5.8      2.800      4.692
REMARK  Name = 
REMARK  5 active torsions:
REMARK  status: ('A' for Active; 'I' for Inactive)
REMARK    1  A    between atoms: C_1  and  O_2
REMARK    2  A    between atoms: O_2  and  C_3
REMARK    3  A    between atoms: C_8  and  O_9
REMARK    4  A    between atoms: O_9  and  C_10
REMARK    5  A    between atoms: C_18  and  C_19
REMARK                            x       y       z     vdW  Elec       q    Type
REMARK                         _______ _______ _______ _____ _____    ______ ____
ROOT
ATOM      1  C   UNL     1       2.942   4.609  17.728  0.00  0.00    +0.000 A 
ATOM      2  C   UNL     1       3.764   4.023  16.747  0.00  0.00    +0.000 A 
ATOM      3  C   UNL     1       5.118   4.362  16.606  0.00  0.00    +0.000 A 
ATOM      4  C   UNL     1       5.696   5.289  17.511  0.00  0.00    +0.000 A 
ATOM      5  C   UNL     1       4.872   5.824  18.530  0.00  0.00    +0.000 A 
ATOM      6  C   UNL     1       3.521   5.504  18.654  0.00  0.00    +0.000 A 
ATOM      7  C   UNL     1       7.172   5.716  17.353  0.00  0.00    +0.000 C 
ATOM      8  C   UNL     1       7.212   7.127  16.709  0.00  0.00    +0.000 C 
ATOM      9  C   UNL     1       7.218   8.083  17.894  0.00  0.00    +0.000 C 
ATOM     10  C   UNL     1       8.248   7.411  18.788  0.00  0.00    +0.000 C 
ATOM     11  C   UNL     1       7.919   5.912  18.711  0.00  0.00    +0.000 C 
ATOM     12  C   UNL     1       7.918   4.683  16.484  0.00  0.00    +0.000 C 
ATOM     13  N   UNL     1       7.193   4.464  15.240  0.00  0.00    +0.000 NA
ATOM     14  C   UNL     1       5.937   3.734  15.472  0.00  0.00    +0.000 C 
ATOM     15  C   UNL     1       5.171   3.695  14.137  0.00  0.00    +0.000 C 
ATOM     16  H   UNL     1       7.795   3.897  14.597  0.00  0.00    +0.000 HD
ENDROOT
BRANCH   1  18
ATOM     17  C   UNL     1       1.031   3.309  18.490  0.00  0.00    +0.000 C 
ATOM     18  O   UNL     1       1.617   4.326  17.762  0.00  0.00    +0.000 OA
ENDBRANCH   1  18
BRANCH   6  19
ATOM     19  O   UNL     1       2.858   6.150  19.662  0.00  0.00    +0.000 OA
ATOM     20  C   UNL     1       2.219   7.372  19.723  0.00  0.00    +0.000 C 
ENDBRANCH   6  19
TORSDOF 2
ENDMDL
