MODEL 1
REMARK VINA RESULT:      -7.0      0.000      0.000
REMARK  Name = 
REMARK  3 active torsions:
REMARK  status: ('A' for Active; 'I' for Inactive)
REMARK    1  A    between atoms: C_1  and  C_2
REMARK    2  A    between atoms: C_2  and  C_3
REMARK    3  A    between atoms: C_4  and  C_5
REMARK                            x       y       z     vdW  Elec       q    Type
REMARK                         _______ _______ _______ _____ _____    ______ ____
ROOT
ATOM      1  C   UNL     1       5.707   4.578  14.585  0.00  0.00    +0.000 C 
ATOM      2  C   UNL     1       6.714   5.344  15.432  0.00  0.00    +0.000 C 
ATOM      3  C   UNL     1       5.935   6.170  16.415  0.00  0.00    +0.000 C 
ATOM      4  O   UNL     1       6.283   7.289  16.771  0.00  0.00    +0.000 OA
ATOM      5  C   UNL     1       4.755   5.514  17.006  0.00  0.00    +0.000 A 
ATOM      6  C   UNL     1       4.108   6.077  18.111  0.00  0.00    +0.000 A 
ATOM      7  C   UNL     1       3.053   5.387  18.699  0.00  0.00    +0.000 A 
ATOM      8 CL   UNL     1       2.264   6.045  20.080  0.00  0.00    +0.000 Cl
ATOM      9  C   UNL     1       2.645   4.149  18.198  0.00  0.00    +0.000 A 
ATOM     10  C   UNL     1       3.289   3.601  17.085  0.00  0.00    +0.000 A 
ATOM     11  C   UNL     1       4.341   4.289  16.480  0.00  0.00    +0.000 A 
ATOM     12  O   UNL     1       4.937   3.679  15.406  0.00  0.00    +0.000 OA
ENDROOT
BRANCH   1  16
ATOM     13  C   UNL     1       6.815   2.422  11.503  0.00  0.00    +0.000 C 
ATOM     14  C   UNL     1       5.943   3.272  12.388  0.00  0.00    +0.000 C 
ATOM     15  C   UNL     1       4.552   3.557  11.892  0.00  0.00    +0.000 C 
ATOM     16  C   UNL     1       6.423   3.726  13.564  0.00  0.00    +0.000 C 
ENDBRANCH   1  16
TORSDOF 1
ENDMDL
MODEL 2
REMARK VINA RESULT:      -6.9      1.051      1.172
REMARK  Name = 
REMARK  3 active torsions:
REMARK  status: ('A' for Active; 'I' for Inactive)
REMARK    1  A    between atoms: C_1  and  C_2
REMARK    2  A    between atoms: C_2  and  C_3
REMARK    3  A    between atoms: C_4  and  C_5
REMARK                            x       y       z     vdW  Elec       q    Type
REMARK                         _______ _______ _______ _____ _____    ______ ____
ROOT
ATOM      1  C   UNL     1       5.248   4.476  15.034  0.00  0.00    +0.000 C 
ATOM      2  C   UNL     1       5.721   5.735  15.748  0.00  0.00    +0.000 C 
ATOM      3  C   UNL     1       4.659   6.112  16.741  0.00  0.00    +0.000 C 
ATOM      4  O   UNL     1       4.369   7.273  17.000  0.00  0.00    +0.000 OA
ATOM      5  C   UNL     1       4.036   4.989  17.465  0.00  0.00    +0.000 A 
ATOM      6  C   UNL     1       3.230   5.226  18.584  0.00  0.00    +0.000 A 
ATOM      7  C   UNL     1       2.730   4.142  19.297  0.00  0.00    +0.000 A 
ATOM      8 CL   UNL     1       1.764   4.409  20.696  0.00  0.00    +0.000 Cl
ATOM      9  C   UNL     1       3.027   2.835  18.906  0.00  0.00    +0.000 A 
ATOM     10  C   UNL     1       3.823   2.608  17.778  0.00  0.00    +0.000 A 
ATOM     11  C   UNL     1       4.320   3.687  17.049  0.00  0.00    +0.000 A 
ATOM     12  O   UNL     1       5.108   3.388  15.968  0.00  0.00    +0.000 OA
ENDROOT
BRANCH   1  16
ATOM     13  C   UNL     1       7.201   3.206  11.880  0.00  0.00    +0.000 C 
ATOM     14  C   UNL     1       6.041   3.607  12.753  0.00  0.00    +0.000 C 
ATOM     15  C   UNL     1       4.669   3.483  12.152  0.00  0.00    +0.000 C 
ATOM     16  C   UNL     1       6.269   4.040  14.011  0.00  0.00    +0.000 C 
ENDBRANCH   1  16
TORSDOF 1
ENDMDL
MODEL 3
REMARK VINA RESULT:      -6.6      1.687      2.322
REMARK  Name = 
REMARK  3 active torsions:
REMARK  status: ('A' for Active; 'I' for Inactive)
REMARK    1  A    between atoms: C_1  and  C_2
REMARK    2  A    between atoms: C_2  and  C_3
REMARK    3  A    between atoms: C_4  and  C_5
REMARK                            x       y       z     vdW  Elec       q    Type
REMARK                         _______ _______ _______ _____ _____    ______ ____
ROOT
ATOM      1  C   UNL     1       5.004   5.193  15.888  0.00  0.00    +0.000 C 
ATOM      2  C   UNL     1       4.957   6.342  16.885  0.00  0.00    +0.000 C 
ATOM      3  C   UNL     1       3.693   6.191  17.683  0.00  0.00    +0.000 C 
ATOM      4  O   UNL     1       3.026   7.145  18.065  0.00  0.00    +0.000 OA
ATOM      5  C   UNL     1       3.339   4.811  18.062  0.00  0.00    +0.000 A 
ATOM      6  C   UNL     1       2.341   4.570  19.011  0.00  0.00    +0.000 A 
ATOM      7  C   UNL     1       2.093   3.261  19.412  0.00  0.00    +0.000 A 
ATOM      8 CL   UNL     1       0.891   2.944  20.603  0.00  0.00    +0.000 Cl
ATOM      9  C   UNL     1       2.831   2.202  18.880  0.00  0.00    +0.000 A 
ATOM     10  C   UNL     1       3.818   2.452  17.922  0.00  0.00    +0.000 A 
ATOM     11  C   UNL     1       4.067   3.759  17.504  0.00  0.00    +0.000 A 
ATOM     12  O   UNL     1       5.063   3.929  16.577  0.00  0.00    +0.000 OA
ENDROOT
BRANCH   1  16
ATOM     13  C   UNL     1       7.816   4.883  13.173  0.00  0.00    +0.000 C 
ATOM     14  C   UNL     1       6.496   4.672  13.866  0.00  0.00    +0.000 C 
ATOM     15  C   UNL     1       5.516   3.757  13.185  0.00  0.00    +0.000 C 
ATOM     16  C   UNL     1       6.252   5.284  15.043  0.00  0.00    +0.000 C 
ENDBRANCH   1  16
TORSDOF 1
ENDMDL
MODEL 4
REMARK VINA RESULT:      -6.5      2.479      4.092
REMARK  Name = 
REMARK  3 active torsions:
REMARK  status: ('A' for Active; 'I' for Inactive)
REMARK    1  A    between atoms: C_1  and  C_2
REMARK    2  A    between atoms: C_2  and  C_3
REMARK    3  A    between atoms: C_4  and  C_5
REMARK                            x       y       z     vdW  Elec       q    Type
REMARK                         _______ _______ _______ _____ _____    ______ ____
ROOT
ATOM      1  C   UNL     1       4.264   4.799  17.644  0.00  0.00    +0.000 C 
ATOM      2  C   UNL     1       3.333   3.809  18.332  0.00  0.00    +0.000 C 
ATOM      3  C   UNL     1       2.872   4.444  19.612  0.00  0.00    +0.000 C 
ATOM      4  O   UNL     1       2.686   3.810  20.643  0.00  0.00    +0.000 OA
ATOM      5  C   UNL     1       2.565   5.884  19.536  0.00  0.00    +0.000 A 
ATOM      6  C   UNL     1       1.890   6.522  20.582  0.00  0.00    +0.000 A 
ATOM      7  C   UNL     1       1.537   7.860  20.441  0.00  0.00    +0.000 A 
ATOM      8 CL   UNL     1       0.676   8.656  21.701  0.00  0.00    +0.000 Cl
ATOM      9  C   UNL     1       1.848   8.559  19.272  0.00  0.00    +0.000 A 
ATOM     10  C   UNL     1       2.535   7.915  18.238  0.00  0.00    +0.000 A 
ATOM     11  C   UNL     1       2.903   6.578  18.373  0.00  0.00    +0.000 A 
ATOM     12  O   UNL     1       3.556   6.009  17.310  0.00  0.00    +0.000 OA
ENDROOT
BRANCH   1  16
ATOM     13  C   UNL     1       6.249   3.846  14.400  0.00  0.00    +0.000 C 
ATOM     14  C   UNL     1       5.917   4.530  15.700  0.00  0.00    +0.000 C 
ATOM     15  C   UNL     1       6.905   5.548  16.199  0.00  0.00    +0.000 C 
ATOM     16  C   UNL     1       4.773   4.222  16.345  0.00  0.00    +0.000 C 
ENDBRANCH   1  16
TORSDOF 1
ENDMDL
MODEL 5
REMARK VINA RESULT:      -6.5      3.015      5.649
REMARK  Name = 
REMARK  3 active torsions:
REMARK  status: ('A' for Active; 'I' for Inactive)
REMARK    1  A    between atoms: C_1  and  C_2
REMARK    2  A    between atoms: C_2  and  C_3
REMARK    3  A    between atoms: C_4  and  C_5
REMARK                            x       y       z     vdW  Elec       q    Type
REMARK                         _______ _______ _______ _____ _____    ______ ____
ROOT
ATOM      1  C   UNL     1       4.652   3.933  18.932  0.00  0.00    +0.000 C 
ATOM      2  C   UNL     1       5.611   5.046  19.332  0.00  0.00    +0.000 C 
ATOM      3  C   UNL     1       6.747   5.030  18.349  0.00  0.00    +0.000 C 
ATOM      4  O   UNL     1       7.905   5.276  18.664  0.00  0.00    +0.000 OA
ATOM      5  C   UNL     1       6.374   4.786  16.945  0.00  0.00    +0.000 A 
ATOM      6  C   UNL     1       7.296   5.002  15.916  0.00  0.00    +0.000 A 
ATOM      7  C   UNL     1       6.885   4.848  14.597  0.00  0.00    +0.000 A 
ATOM      8 CL   UNL     1       7.995   5.141  13.314  0.00  0.00    +0.000 Cl
ATOM      9  C   UNL     1       5.570   4.486  14.299  0.00  0.00    +0.000 A 
ATOM     10  C   UNL     1       4.658   4.259  15.334  0.00  0.00    +0.000 A 
ATOM     11  C   UNL     1       5.062   4.400  16.661  0.00  0.00    +0.000 A 
ATOM     12  O   UNL     1       4.108   4.181  17.621  0.00  0.00    +0.000 OA
ENDROOT
BRANCH   1  16
ATOM     13  C   UNL     1       1.352   3.151  20.902  0.00  0.00    +0.000 C 
ATOM     14  C   UNL     1       2.434   3.034  19.861  0.00  0.00    +0.000 C 
ATOM     15  C   UNL     1       2.265   1.953  18.830  0.00  0.00    +0.000 C 
ATOM     16  C   UNL     1       3.481   3.885  19.885  0.00  0.00    +0.000 C 
ENDBRANCH   1  16
TORSDOF 1
ENDMDL
MODEL 6
REMARK VINA RESULT:      -6.4      3.036      6.668
REMARK  Name = 
REMARK  3 active torsions:
REMARK  status: ('A' for Active; 'I' for Inactive)
REMARK    1  A    between atoms: C_1  and  C_2
REMARK    2  A    between atoms: C_2  and  C_3
REMARK    3  A    between atoms: C_4  and  C_5
REMARK                            x       y       z     vdW  Elec       q    Type
REMARK                         _______ _______ _______ _____ _____    ______ ____
ROOT
ATOM      1  C   UNL     1       2.380   5.955  19.314  0.00  0.00    +0.000 C 
ATOM      2  C   UNL     1       2.851   4.590  19.797  0.00  0.00    +0.000 C 
ATOM      3  C   UNL     1       3.247   3.798  18.584  0.00  0.00    +0.000 C 
ATOM      4  O   UNL     1       3.059   2.592  18.483  0.00  0.00    +0.000 OA
ATOM      5  C   UNL     1       3.966   4.548  17.538  0.00  0.00    +0.000 A 
ATOM      6  C   UNL     1       4.604   3.874  16.493  0.00  0.00    +0.000 A 
ATOM      7  C   UNL     1       5.348   4.606  15.573  0.00  0.00    +0.000 A 
ATOM      8 CL   UNL     1       6.170   3.794  14.297  0.00  0.00    +0.000 Cl
ATOM      9  C   UNL     1       5.460   5.993  15.690  0.00  0.00    +0.000 A 
ATOM     10  C   UNL     1       4.807   6.659  16.732  0.00  0.00    +0.000 A 
ATOM     11  C   UNL     1       4.049   5.937  17.653  0.00  0.00    +0.000 A 
ATOM     12  O   UNL     1       3.454   6.656  18.658  0.00  0.00    +0.000 OA
ENDROOT
BRANCH   1  16
ATOM     13  C   UNL     1       1.161   8.775  21.750  0.00  0.00    +0.000 C 
ATOM     14  C   UNL     1       1.531   8.087  20.463  0.00  0.00    +0.000 C 
ATOM     15  C   UNL     1       1.407   8.899  19.204  0.00  0.00    +0.000 C 
ATOM     16  C   UNL     1       1.959   6.807  20.486  0.00  0.00    +0.000 C 
ENDBRANCH   1  16
TORSDOF 1
ENDMDL
MODEL 7
REMARK VINA RESULT:      -6.4      3.644      5.945
REMARK  Name = 
REMARK  3 active torsions:
REMARK  status: ('A' for Active; 'I' for Inactive)
REMARK    1  A    between atoms: C_1  and  C_2
REMARK    2  A    between atoms: C_2  and  C_3
REMARK    3  A    between atoms: C_4  and  C_5
REMARK                            x       y       z     vdW  Elec       q    Type
REMARK                         _______ _______ _______ _____ _____    ______ ____
ROOT
ATOM      1  C   UNL     1       7.598   8.193  18.082  0.00  0.00    +0.000 C 
ATOM      2  C   UNL     1       8.451   7.126  18.756  0.00  0.00    +0.000 C 
ATOM      3  C   UNL     1       7.530   6.016  19.174  0.00  0.00    +0.000 C 
ATOM      4  O   UNL     1       7.683   5.375  20.207  0.00  0.00    +0.000 OA
ATOM      5  C   UNL     1       6.465   5.674  18.214  0.00  0.00    +0.000 A 
ATOM      6  C   UNL     1       5.716   4.504  18.372  0.00  0.00    +0.000 A 
ATOM      7  C   UNL     1       4.780   4.165  17.400  0.00  0.00    +0.000 A 
ATOM      8 CL   UNL     1       3.870   2.712  17.557  0.00  0.00    +0.000 Cl
ATOM      9  C   UNL     1       4.589   4.979  16.281  0.00  0.00    +0.000 A 
ATOM     10  C   UNL     1       5.334   6.154  16.140  0.00  0.00    +0.000 A 
ATOM     11  C   UNL     1       6.267   6.509  17.113  0.00  0.00    +0.000 A 
ATOM     12  O   UNL     1       6.973   7.664  16.896  0.00  0.00    +0.000 OA
ENDROOT
BRANCH   1  16
ATOM     13  C   UNL     1       9.923  11.336  17.782  0.00  0.00    +0.000 C 
ATOM     14  C   UNL     1       9.111  10.238  18.417  0.00  0.00    +0.000 C 
ATOM     15  C   UNL     1       9.069  10.213  19.920  0.00  0.00    +0.000 C 
ATOM     16  C   UNL     1       8.461   9.349  17.638  0.00  0.00    +0.000 C 
ENDBRANCH   1  16
TORSDOF 1
ENDMDL
MODEL 8
REMARK VINA RESULT:      -6.3      1.721      2.018
REMARK  Name = 
REMARK  3 active torsions:
REMARK  status: ('A' for Active; 'I' for Inactive)
REMARK    1  A    between atoms: C_1  and  C_2
REMARK    2  A    between atoms: C_2  and  C_3
REMARK    3  A    between atoms: C_4  and  C_5
REMARK                            x       y       z     vdW  Elec       q    Type
REMARK                         _______ _______ _______ _____ _____    ______ ____
ROOT
ATOM      1  C   UNL     1       6.089   4.926  16.198  0.00  0.00    +0.000 C 
ATOM      2  C   UNL     1       6.940   4.609  17.421  0.00  0.00    +0.000 C 
ATOM      3  C   UNL     1       6.068   4.788  18.631  0.00  0.00    +0.000 C 
ATOM      4  O   UNL     1       6.483   5.236  19.693  0.00  0.00    +0.000 OA
ATOM      5  C   UNL     1       4.682   4.306  18.496  0.00  0.00    +0.000 A 
ATOM      6  C   UNL     1       3.860   4.183  19.620  0.00  0.00    +0.000 A 
ATOM      7  C   UNL     1       2.587   3.641  19.471  0.00  0.00    +0.000 A 
ATOM      8 CL   UNL     1       1.571   3.450  20.847  0.00  0.00    +0.000 Cl
ATOM      9  C   UNL     1       2.135   3.222  18.218  0.00  0.00    +0.000 A 
ATOM     10  C   UNL     1       2.960   3.361  17.097  0.00  0.00    +0.000 A 
ATOM     11  C   UNL     1       4.232   3.914  17.233  0.00  0.00    +0.000 A 
ATOM     12  O   UNL     1       4.990   4.000  16.094  0.00  0.00    +0.000 OA
ENDROOT
BRANCH   1  16
ATOM     13  C   UNL     1       7.461   4.254  12.587  0.00  0.00    +0.000 C 
ATOM     14  C   UNL     1       6.484   4.350  13.728  0.00  0.00    +0.000 C 
ATOM     15  C   UNL     1       5.065   3.950  13.437  0.00  0.00    +0.000 C 
ATOM     16  C   UNL     1       6.907   4.771  14.939  0.00  0.00    +0.000 C 
ENDBRANCH   1  16
TORSDOF 1
ENDMDL
MODEL 9
REMARK VINA RESULT:      -6.2      2.671      4.664
REMARK  Name = 
REMARK  3 active torsions:
REMARK  status: ('A' for Active; 'I' for Inactive)
REMARK    1  A    between atoms: C_1  and  C_2
REMARK    2  A    between atoms: C_2  and  C_3
REMARK    3  A    between atoms: C_4  and  C_5
REMARK                            x       y       z     vdW  Elec       q    Type
REMARK                         _______ _______ _______ _____ _____    ______ ____
ROOT
ATOM      1  C   UNL     1       5.787   6.172  17.416  0.00  0.00    +0.000 C 
ATOM      2  C   UNL     1       5.544   5.526  16.059  0.00  0.00    +0.000 C 
ATOM      3  C   UNL     1       4.797   4.245  16.301  0.00  0.00    +0.000 C 
ATOM      4  O   UNL     1       4.979   3.230  15.640  0.00  0.00    +0.000 OA
ATOM      5  C   UNL     1       3.752   4.302  17.339  0.00  0.00    +0.000 A 
ATOM      6  C   UNL     1       2.827   3.262  17.473  0.00  0.00    +0.000 A 
ATOM      7  C   UNL     1       1.800   3.388  18.402  0.00  0.00    +0.000 A 
ATOM      8 CL   UNL     1       0.630   2.134  18.561  0.00  0.00    +0.000 Cl
ATOM      9  C   UNL     1       1.689   4.535  19.190  0.00  0.00    +0.000 A 
ATOM     10  C   UNL     1       2.626   5.565  19.058  0.00  0.00    +0.000 A 
ATOM     11  C   UNL     1       3.667   5.444  18.137  0.00  0.00    +0.000 A 
ATOM     12  O   UNL     1       4.535   6.502  18.050  0.00  0.00    +0.000 OA
ENDROOT
BRANCH   1  16
ATOM     13  C   UNL     1       8.271   9.201  17.589  0.00  0.00    +0.000 C 
ATOM     14  C   UNL     1       7.667   7.855  17.888  0.00  0.00    +0.000 C 
ATOM     15  C   UNL     1       8.369   7.012  18.916  0.00  0.00    +0.000 C 
ATOM     16  C   UNL     1       6.543   7.469  17.250  0.00  0.00    +0.000 C 
ENDBRANCH   1  16
TORSDOF 1
ENDMDL
