MODEL 1
REMARK VINA RESULT:      -6.9      0.000      0.000
REMARK  Name = 
REMARK  12 active torsions:
REMARK  status: ('A' for Active; 'I' for Inactive)
REMARK    1  A    between atoms: C_1  and  C_2
REMARK    2  A    between atoms: C_2  and  C_3
REMARK    3  A    between atoms: C_3  and  C_4
REMARK    4  A    between atoms: C_4  and  C_5
REMARK    5  A    between atoms: C_5  and  C_6
REMARK    6  A    between atoms: C_6  and  C_7
REMARK    7  A    between atoms: C_7  and  C_8
REMARK    8  A    between atoms: C_8  and  C_9
REMARK    9  A    between atoms: C_9  and  C_10
REMARK   10  A    between atoms: C_9  and  C_11
REMARK   11  A    between atoms: C_17  and  C_18
REMARK   12  A    between atoms: C_18  and  O_20
REMARK                            x       y       z     vdW  Elec       q    Type
REMARK                         _______ _______ _______ _____ _____    ______ ____
ROOT
ATOM      1  C   UNL     1       3.913   5.245  18.925  0.00  0.00    +0.000 C 
ATOM      2  O   UNL     1       4.701   5.475  19.850  0.00  0.00    +0.000 OA
ATOM      3  N   UNL     1       3.132   4.121  19.008  0.00  0.00    +0.000 N 
ATOM      4  C   UNL     1       2.196   3.577  18.038  0.00  0.00    +0.000 C 
ATOM      5  C   UNL     1       1.045   3.126  18.912  0.00  0.00    +0.000 C 
ATOM      6  C   UNL     1       1.738   2.566  20.153  0.00  0.00    +0.000 C 
ATOM      7  C   UNL     1       3.070   3.329  20.246  0.00  0.00    +0.000 C 
ENDROOT
BRANCH   1   8
ATOM      8  C   UNL     1       3.748   6.207  17.747  0.00  0.00    +0.000 C 
ATOM      9  C   UNL     1       2.809   7.345  18.146  0.00  0.00    +0.000 C 
BRANCH   8  10
ATOM     10  C   UNL     1       5.094   6.710  17.198  0.00  0.00    +0.000 C 
BRANCH  10  11
ATOM     11  C   UNL     1       5.446   6.269  15.777  0.00  0.00    +0.000 C 
BRANCH  11  12
ATOM     12  C   UNL     1       6.577   5.237  15.780  0.00  0.00    +0.000 C 
BRANCH  12  13
ATOM     13  C   UNL     1       6.086   3.903  15.228  0.00  0.00    +0.000 C 
BRANCH  13  14
ATOM     14  C   UNL     1       5.396   4.086  13.879  0.00  0.00    +0.000 C 
BRANCH  14  15
ATOM     15  C   UNL     1       6.309   3.657  12.733  0.00  0.00    +0.000 C 
BRANCH  15  17
ATOM     16  C   UNL     1       4.247   3.197  11.366  0.00  0.00    +0.000 C 
ATOM     17  C   UNL     1       5.601   2.669  11.810  0.00  0.00    +0.000 C 
ENDBRANCH  15  17
ENDBRANCH  14  15
ENDBRANCH  13  14
ENDBRANCH  12  13
ENDBRANCH  11  12
ENDBRANCH  10  11
ENDBRANCH   8  10
ENDBRANCH   1   8
BRANCH   7  18
ATOM     18  C   UNL     1       4.285   2.390  20.387  0.00  0.00    +0.000 C 
ATOM     19  O   UNL     1       4.528   1.702  21.369  0.00  0.00    +0.000 OA
BRANCH  18  20
ATOM     20  O   UNL     1       5.136   2.449  19.334  0.00  0.00    +0.000 OA
ATOM     21  H   UNL     1       6.084   2.471  19.615  0.00  0.00    +0.000 HD
ENDBRANCH  18  20
ENDBRANCH   7  18
TORSDOF 10
ENDMDL
MODEL 2
REMARK VINA RESULT:      -6.9      1.736      2.307
REMARK  Name = 
REMARK  12 active torsions:
REMARK  status: ('A' for Active; 'I' for Inactive)
REMARK    1  A    between atoms: C_1  and  C_2
REMARK    2  A    between atoms: C_2  and  C_3
REMARK    3  A    between atoms: C_3  and  C_4
REMARK    4  A    between atoms: C_4  and  C_5
REMARK    5  A    between atoms: C_5  and  C_6
REMARK    6  A    between atoms: C_6  and  C_7
REMARK    7  A    between atoms: C_7  and  C_8
REMARK    8  A    between atoms: C_8  and  C_9
REMARK    9  A    between atoms: C_9  and  C_10
REMARK   10  A    between atoms: C_9  and  C_11
REMARK   11  A    between atoms: C_17  and  C_18
REMARK   12  A    between atoms: C_18  and  O_20
REMARK                            x       y       z     vdW  Elec       q    Type
REMARK                         _______ _______ _______ _____ _____    ______ ____
ROOT
ATOM      1  C   UNL     1       4.748   4.501  19.009  0.00  0.00    +0.000 C 
ATOM      2  O   UNL     1       5.182   3.343  18.962  0.00  0.00    +0.000 OA
ATOM      3  N   UNL     1       3.422   4.680  19.302  0.00  0.00    +0.000 N 
ATOM      4  C   UNL     1       2.645   5.909  19.340  0.00  0.00    +0.000 C 
ATOM      5  C   UNL     1       1.775   5.708  20.562  0.00  0.00    +0.000 C 
ATOM      6  C   UNL     1       1.417   4.224  20.505  0.00  0.00    +0.000 C 
ATOM      7  C   UNL     1       2.586   3.559  19.760  0.00  0.00    +0.000 C 
ENDROOT
BRANCH   1   8
ATOM      8  C   UNL     1       5.661   5.713  18.816  0.00  0.00    +0.000 C 
ATOM      9  C   UNL     1       7.004   5.454  19.499  0.00  0.00    +0.000 C 
BRANCH   8  10
ATOM     10  C   UNL     1       5.812   6.114  17.339  0.00  0.00    +0.000 C 
BRANCH  10  11
ATOM     11  C   UNL     1       7.206   5.938  16.735  0.00  0.00    +0.000 C 
BRANCH  11  12
ATOM     12  C   UNL     1       7.154   5.106  15.451  0.00  0.00    +0.000 C 
BRANCH  12  13
ATOM     13  C   UNL     1       6.025   4.083  15.520  0.00  0.00    +0.000 C 
BRANCH  13  14
ATOM     14  C   UNL     1       5.302   3.973  14.180  0.00  0.00    +0.000 C 
BRANCH  14  15
ATOM     15  C   UNL     1       6.295   3.837  13.030  0.00  0.00    +0.000 C 
BRANCH  15  17
ATOM     16  C   UNL     1       4.410   3.289  11.455  0.00  0.00    +0.000 C 
ATOM     17  C   UNL     1       5.777   2.868  11.970  0.00  0.00    +0.000 C 
ENDBRANCH  15  17
ENDBRANCH  14  15
ENDBRANCH  13  14
ENDBRANCH  12  13
ENDBRANCH  11  12
ENDBRANCH  10  11
ENDBRANCH   8  10
ENDBRANCH   1   8
BRANCH   7  18
ATOM     18  C   UNL     1       2.118   2.678  18.585  0.00  0.00    +0.000 C 
ATOM     19  O   UNL     1       1.993   3.060  17.428  0.00  0.00    +0.000 OA
BRANCH  18  20
ATOM     20  O   UNL     1       1.764   1.424  18.958  0.00  0.00    +0.000 OA
ATOM     21  H   UNL     1       0.793   1.338  19.127  0.00  0.00    +0.000 HD
ENDBRANCH  18  20
ENDBRANCH   7  18
TORSDOF 10
ENDMDL
MODEL 3
REMARK VINA RESULT:      -6.9      1.732      2.982
REMARK  Name = 
REMARK  12 active torsions:
REMARK  status: ('A' for Active; 'I' for Inactive)
REMARK    1  A    between atoms: C_1  and  C_2
REMARK    2  A    between atoms: C_2  and  C_3
REMARK    3  A    between atoms: C_3  and  C_4
REMARK    4  A    between atoms: C_4  and  C_5
REMARK    5  A    between atoms: C_5  and  C_6
REMARK    6  A    between atoms: C_6  and  C_7
REMARK    7  A    between atoms: C_7  and  C_8
REMARK    8  A    between atoms: C_8  and  C_9
REMARK    9  A    between atoms: C_9  and  C_10
REMARK   10  A    between atoms: C_9  and  C_11
REMARK   11  A    between atoms: C_17  and  C_18
REMARK   12  A    between atoms: C_18  and  O_20
REMARK                            x       y       z     vdW  Elec       q    Type
REMARK                         _______ _______ _______ _____ _____    ______ ____
ROOT
ATOM      1  C   UNL     1       5.564   4.859  18.606  0.00  0.00    +0.000 C 
ATOM      2  O   UNL     1       5.534   3.873  19.353  0.00  0.00    +0.000 OA
ATOM      3  N   UNL     1       4.371   5.419  18.231  0.00  0.00    +0.000 N 
ATOM      4  C   UNL     1       4.117   6.515  17.309  0.00  0.00    +0.000 C 
ATOM      5  C   UNL     1       3.020   7.285  18.012  0.00  0.00    +0.000 C 
ATOM      6  C   UNL     1       2.152   6.188  18.627  0.00  0.00    +0.000 C 
ATOM      7  C   UNL     1       3.106   5.005  18.860  0.00  0.00    +0.000 C 
ENDROOT
BRANCH   1   8
ATOM      8  C   UNL     1       6.883   5.492  18.158  0.00  0.00    +0.000 C 
ATOM      9  C   UNL     1       7.784   5.707  19.374  0.00  0.00    +0.000 C 
BRANCH   8  10
ATOM     10  C   UNL     1       7.574   4.697  17.038  0.00  0.00    +0.000 C 
BRANCH  10  11
ATOM     11  C   UNL     1       6.648   4.001  16.040  0.00  0.00    +0.000 C 
BRANCH  11  12
ATOM     12  C   UNL     1       6.483   4.831  14.764  0.00  0.00    +0.000 C 
BRANCH  12  13
ATOM     13  C   UNL     1       5.522   4.144  13.799  0.00  0.00    +0.000 C 
BRANCH  13  14
ATOM     14  C   UNL     1       6.281   3.419  12.691  0.00  0.00    +0.000 C 
BRANCH  14  15
ATOM     15  C   UNL     1       5.319   2.777  11.696  0.00  0.00    +0.000 C 
BRANCH  15  17
ATOM     16  C   UNL     1       3.173   3.080  10.417  0.00  0.00    +0.000 C 
ATOM     17  C   UNL     1       4.220   3.755  11.288  0.00  0.00    +0.000 C 
ENDBRANCH  15  17
ENDBRANCH  14  15
ENDBRANCH  13  14
ENDBRANCH  12  13
ENDBRANCH  11  12
ENDBRANCH  10  11
ENDBRANCH   8  10
ENDBRANCH   1   8
BRANCH   7  18
ATOM     18  C   UNL     1       2.575   3.686  18.264  0.00  0.00    +0.000 C 
ATOM     19  O   UNL     1       1.823   3.605  17.302  0.00  0.00    +0.000 OA
BRANCH  18  20
ATOM     20  O   UNL     1       2.955   2.588  18.962  0.00  0.00    +0.000 OA
ATOM     21  H   UNL     1       3.739   2.759  19.540  0.00  0.00    +0.000 HD
ENDBRANCH  18  20
ENDBRANCH   7  18
TORSDOF 10
ENDMDL
MODEL 4
REMARK VINA RESULT:      -6.7      2.158      5.921
REMARK  Name = 
REMARK  12 active torsions:
REMARK  status: ('A' for Active; 'I' for Inactive)
REMARK    1  A    between atoms: C_1  and  C_2
REMARK    2  A    between atoms: C_2  and  C_3
REMARK    3  A    between atoms: C_3  and  C_4
REMARK    4  A    between atoms: C_4  and  C_5
REMARK    5  A    between atoms: C_5  and  C_6
REMARK    6  A    between atoms: C_6  and  C_7
REMARK    7  A    between atoms: C_7  and  C_8
REMARK    8  A    between atoms: C_8  and  C_9
REMARK    9  A    between atoms: C_9  and  C_10
REMARK   10  A    between atoms: C_9  and  C_11
REMARK   11  A    between atoms: C_17  and  C_18
REMARK   12  A    between atoms: C_18  and  O_20
REMARK                            x       y       z     vdW  Elec       q    Type
REMARK                         _______ _______ _______ _____ _____    ______ ____
ROOT
ATOM      1  C   UNL     1       4.681   3.653  18.724  0.00  0.00    +0.000 C 
ATOM      2  O   UNL     1       5.300   3.405  19.766  0.00  0.00    +0.000 OA
ATOM      3  N   UNL     1       5.350   4.295  17.715  0.00  0.00    +0.000 N 
ATOM      4  C   UNL     1       4.848   4.773  16.436  0.00  0.00    +0.000 C 
ATOM      5  C   UNL     1       5.973   4.413  15.489  0.00  0.00    +0.000 C 
ATOM      6  C   UNL     1       7.232   4.689  16.309  0.00  0.00    +0.000 C 
ATOM      7  C   UNL     1       6.807   4.492  17.774  0.00  0.00    +0.000 C 
ENDROOT
BRANCH   1   8
ATOM      8  C   UNL     1       3.233   3.204  18.520  0.00  0.00    +0.000 C 
ATOM      9  C   UNL     1       3.214   1.801  17.913  0.00  0.00    +0.000 C 
BRANCH   8  10
ATOM     10  C   UNL     1       2.392   3.308  19.803  0.00  0.00    +0.000 C 
BRANCH  10  11
ATOM     11  C   UNL     1       1.502   4.545  19.923  0.00  0.00    +0.000 C 
BRANCH  11  12
ATOM     12  C   UNL     1       2.193   5.651  20.726  0.00  0.00    +0.000 C 
BRANCH  12  13
ATOM     13  C   UNL     1       2.131   6.977  19.976  0.00  0.00    +0.000 C 
BRANCH  13  14
ATOM     14  C   UNL     1       2.547   6.803  18.518  0.00  0.00    +0.000 C 
BRANCH  14  15
ATOM     15  C   UNL     1       2.790   8.155  17.852  0.00  0.00    +0.000 C 
BRANCH  15  17
ATOM     16  C   UNL     1       1.566  10.290  18.377  0.00  0.00    +0.000 C 
ATOM     17  C   UNL     1       1.486   8.932  17.698  0.00  0.00    +0.000 C 
ENDBRANCH  15  17
ENDBRANCH  14  15
ENDBRANCH  13  14
ENDBRANCH  12  13
ENDBRANCH  11  12
ENDBRANCH  10  11
ENDBRANCH   8  10
ENDBRANCH   1   8
BRANCH   7  18
ATOM     18  C   UNL     1       7.187   5.688  18.669  0.00  0.00    +0.000 C 
ATOM     19  O   UNL     1       7.387   6.827  18.269  0.00  0.00    +0.000 OA
BRANCH  18  20
ATOM     20  O   UNL     1       7.366   5.353  19.970  0.00  0.00    +0.000 OA
ATOM     21  H   UNL     1       7.732   6.099  20.507  0.00  0.00    +0.000 HD
ENDBRANCH  18  20
ENDBRANCH   7  18
TORSDOF 10
ENDMDL
MODEL 5
REMARK VINA RESULT:      -6.6      1.528      2.297
REMARK  Name = 
REMARK  12 active torsions:
REMARK  status: ('A' for Active; 'I' for Inactive)
REMARK    1  A    between atoms: C_1  and  C_2
REMARK    2  A    between atoms: C_2  and  C_3
REMARK    3  A    between atoms: C_3  and  C_4
REMARK    4  A    between atoms: C_4  and  C_5
REMARK    5  A    between atoms: C_5  and  C_6
REMARK    6  A    between atoms: C_6  and  C_7
REMARK    7  A    between atoms: C_7  and  C_8
REMARK    8  A    between atoms: C_8  and  C_9
REMARK    9  A    between atoms: C_9  and  C_10
REMARK   10  A    between atoms: C_9  and  C_11
REMARK   11  A    between atoms: C_17  and  C_18
REMARK   12  A    between atoms: C_18  and  O_20
REMARK                            x       y       z     vdW  Elec       q    Type
REMARK                         _______ _______ _______ _____ _____    ______ ____
ROOT
ATOM      1  C   UNL     1       5.338   4.646  17.990  0.00  0.00    +0.000 C 
ATOM      2  O   UNL     1       6.287   4.209  18.652  0.00  0.00    +0.000 OA
ATOM      3  N   UNL     1       4.074   4.240  18.330  0.00  0.00    +0.000 N 
ATOM      4  C   UNL     1       2.807   4.530  17.678  0.00  0.00    +0.000 C 
ATOM      5  C   UNL     1       1.880   4.759  18.852  0.00  0.00    +0.000 C 
ATOM      6  C   UNL     1       2.337   3.721  19.875  0.00  0.00    +0.000 C 
ATOM      7  C   UNL     1       3.826   3.484  19.567  0.00  0.00    +0.000 C 
ENDROOT
BRANCH   1   8
ATOM      8  C   UNL     1       5.540   5.665  16.866  0.00  0.00    +0.000 C 
ATOM      9  C   UNL     1       6.858   6.408  17.083  0.00  0.00    +0.000 C 
BRANCH   8  10
ATOM     10  C   UNL     1       5.434   5.034  15.467  0.00  0.00    +0.000 C 
BRANCH  10  11
ATOM     11  C   UNL     1       6.746   4.895  14.695  0.00  0.00    +0.000 C 
BRANCH  11  12
ATOM     12  C   UNL     1       6.593   3.940  13.508  0.00  0.00    +0.000 C 
BRANCH  12  13
ATOM     13  C   UNL     1       5.181   4.018  12.935  0.00  0.00    +0.000 C 
BRANCH  13  14
ATOM     14  C   UNL     1       4.967   2.959  11.857  0.00  0.00    +0.000 C 
BRANCH  14  15
ATOM     15  C   UNL     1       6.204   2.081  11.696  0.00  0.00    +0.000 C 
BRANCH  15  17
ATOM     16  C   UNL     1       6.263  -0.423  11.445  0.00  0.00    +0.000 C 
ATOM     17  C   UNL     1       5.920   0.897  10.774  0.00  0.00    +0.000 C 
ENDBRANCH  15  17
ENDBRANCH  14  15
ENDBRANCH  13  14
ENDBRANCH  12  13
ENDBRANCH  11  12
ENDBRANCH  10  11
ENDBRANCH   8  10
ENDBRANCH   1   8
BRANCH   7  18
ATOM     18  C   UNL     1       4.169   1.990  19.405  0.00  0.00    +0.000 C 
ATOM     19  O   UNL     1       3.542   1.199  18.712  0.00  0.00    +0.000 OA
BRANCH  18  20
ATOM     20  O   UNL     1       5.207   1.588  20.177  0.00  0.00    +0.000 OA
ATOM     21  H   UNL     1       6.004   2.164  20.071  0.00  0.00    +0.000 HD
ENDBRANCH  18  20
ENDBRANCH   7  18
TORSDOF 10
ENDMDL
MODEL 6
REMARK VINA RESULT:      -6.6      1.462      2.187
REMARK  Name = 
REMARK  12 active torsions:
REMARK  status: ('A' for Active; 'I' for Inactive)
REMARK    1  A    between atoms: C_1  and  C_2
REMARK    2  A    between atoms: C_2  and  C_3
REMARK    3  A    between atoms: C_3  and  C_4
REMARK    4  A    between atoms: C_4  and  C_5
REMARK    5  A    between atoms: C_5  and  C_6
REMARK    6  A    between atoms: C_6  and  C_7
REMARK    7  A    between atoms: C_7  and  C_8
REMARK    8  A    between atoms: C_8  and  C_9
REMARK    9  A    between atoms: C_9  and  C_10
REMARK   10  A    between atoms: C_9  and  C_11
REMARK   11  A    between atoms: C_17  and  C_18
REMARK   12  A    between atoms: C_18  and  O_20
REMARK                            x       y       z     vdW  Elec       q    Type
REMARK                         _______ _______ _______ _____ _____    ______ ____
ROOT
ATOM      1  C   UNL     1       5.452   4.687  17.864  0.00  0.00    +0.000 C 
ATOM      2  O   UNL     1       6.422   4.363  18.560  0.00  0.00    +0.000 OA
ATOM      3  N   UNL     1       4.206   4.284  18.268  0.00  0.00    +0.000 N 
ATOM      4  C   UNL     1       2.923   4.452  17.604  0.00  0.00    +0.000 C 
ATOM      5  C   UNL     1       2.002   4.791  18.756  0.00  0.00    +0.000 C 
ATOM      6  C   UNL     1       2.505   3.899  19.890  0.00  0.00    +0.000 C 
ATOM      7  C   UNL     1       3.997   3.675  19.591  0.00  0.00    +0.000 C 
ENDROOT
BRANCH   1   8
ATOM      8  C   UNL     1       5.607   5.568  16.623  0.00  0.00    +0.000 C 
ATOM      9  C   UNL     1       6.972   6.257  16.654  0.00  0.00    +0.000 C 
BRANCH   8  10
ATOM     10  C   UNL     1       5.358   4.800  15.314  0.00  0.00    +0.000 C 
BRANCH  10  11
ATOM     11  C   UNL     1       6.573   4.100  14.706  0.00  0.00    +0.000 C 
BRANCH  11  12
ATOM     12  C   UNL     1       7.142   4.895  13.528  0.00  0.00    +0.000 C 
BRANCH  12  13
ATOM     13  C   UNL     1       6.865   4.176  12.212  0.00  0.00    +0.000 C 
BRANCH  13  14
ATOM     14  C   UNL     1       6.170   2.839  12.451  0.00  0.00    +0.000 C 
BRANCH  14  15
ATOM     15  C   UNL     1       5.174   2.531  11.337  0.00  0.00    +0.000 C 
BRANCH  15  17
ATOM     16  C   UNL     1       3.331   3.734  10.116  0.00  0.00    +0.000 C 
ATOM     17  C   UNL     1       3.916   3.385  11.475  0.00  0.00    +0.000 C 
ENDBRANCH  15  17
ENDBRANCH  14  15
ENDBRANCH  13  14
ENDBRANCH  12  13
ENDBRANCH  11  12
ENDBRANCH  10  11
ENDBRANCH   8  10
ENDBRANCH   1   8
BRANCH   7  18
ATOM     18  C   UNL     1       4.388   2.184  19.605  0.00  0.00    +0.000 C 
ATOM     19  O   UNL     1       5.089   1.652  20.455  0.00  0.00    +0.000 OA
BRANCH  18  20
ATOM     20  O   UNL     1       3.948   1.502  18.520  0.00  0.00    +0.000 OA
ATOM     21  H   UNL     1       2.971   1.587  18.389  0.00  0.00    +0.000 HD
ENDBRANCH  18  20
ENDBRANCH   7  18
TORSDOF 10
ENDMDL
MODEL 7
REMARK VINA RESULT:      -6.6      2.278      6.190
REMARK  Name = 
REMARK  12 active torsions:
REMARK  status: ('A' for Active; 'I' for Inactive)
REMARK    1  A    between atoms: C_1  and  C_2
REMARK    2  A    between atoms: C_2  and  C_3
REMARK    3  A    between atoms: C_3  and  C_4
REMARK    4  A    between atoms: C_4  and  C_5
REMARK    5  A    between atoms: C_5  and  C_6
REMARK    6  A    between atoms: C_6  and  C_7
REMARK    7  A    between atoms: C_7  and  C_8
REMARK    8  A    between atoms: C_8  and  C_9
REMARK    9  A    between atoms: C_9  and  C_10
REMARK   10  A    between atoms: C_9  and  C_11
REMARK   11  A    between atoms: C_17  and  C_18
REMARK   12  A    between atoms: C_18  and  O_20
REMARK                            x       y       z     vdW  Elec       q    Type
REMARK                         _______ _______ _______ _____ _____    ______ ____
ROOT
ATOM      1  C   UNL     1       4.798   5.459  18.361  0.00  0.00    +0.000 C 
ATOM      2  O   UNL     1       5.400   5.406  19.441  0.00  0.00    +0.000 OA
ATOM      3  N   UNL     1       5.537   5.616  17.218  0.00  0.00    +0.000 N 
ATOM      4  C   UNL     1       5.086   5.789  15.846  0.00  0.00    +0.000 C 
ATOM      5  C   UNL     1       6.066   4.936  15.071  0.00  0.00    +0.000 C 
ATOM      6  C   UNL     1       7.392   5.169  15.793  0.00  0.00    +0.000 C 
ATOM      7  C   UNL     1       7.004   5.510  17.242  0.00  0.00    +0.000 C 
ENDROOT
BRANCH   1   8
ATOM      8  C   UNL     1       3.280   5.287  18.275  0.00  0.00    +0.000 C 
ATOM      9  C   UNL     1       2.633   6.630  17.937  0.00  0.00    +0.000 C 
BRANCH   8  10
ATOM     10  C   UNL     1       2.863   4.166  17.309  0.00  0.00    +0.000 C 
BRANCH  10  11
ATOM     11  C   UNL     1       3.462   2.787  17.583  0.00  0.00    +0.000 C 
BRANCH  11  12
ATOM     12  C   UNL     1       2.703   2.062  18.697  0.00  0.00    +0.000 C 
BRANCH  12  13
ATOM     13  C   UNL     1       1.209   2.359  18.609  0.00  0.00    +0.000 C 
BRANCH  13  14
ATOM     14  C   UNL     1       0.700   3.003  19.896  0.00  0.00    +0.000 C 
BRANCH  14  15
ATOM     15  C   UNL     1       1.495   2.516  21.104  0.00  0.00    +0.000 C 
BRANCH  15  17
ATOM     16  C   UNL     1       1.901   5.000  21.118  0.00  0.00    +0.000 C 
ATOM     17  C   UNL     1       2.248   3.669  21.765  0.00  0.00    +0.000 C 
ENDBRANCH  15  17
ENDBRANCH  14  15
ENDBRANCH  13  14
ENDBRANCH  12  13
ENDBRANCH  11  12
ENDBRANCH  10  11
ENDBRANCH   8  10
ENDBRANCH   1   8
BRANCH   7  18
ATOM     18  C   UNL     1       7.664   6.809  17.744  0.00  0.00    +0.000 C 
ATOM     19  O   UNL     1       7.773   7.838  17.090  0.00  0.00    +0.000 OA
BRANCH  18  20
ATOM     20  O   UNL     1       8.206   6.695  18.981  0.00  0.00    +0.000 OA
ATOM     21  H   UNL     1       8.592   5.799  19.145  0.00  0.00    +0.000 HD
ENDBRANCH  18  20
ENDBRANCH   7  18
TORSDOF 10
ENDMDL
MODEL 8
REMARK VINA RESULT:      -6.6      2.019      6.070
REMARK  Name = 
REMARK  12 active torsions:
REMARK  status: ('A' for Active; 'I' for Inactive)
REMARK    1  A    between atoms: C_1  and  C_2
REMARK    2  A    between atoms: C_2  and  C_3
REMARK    3  A    between atoms: C_3  and  C_4
REMARK    4  A    between atoms: C_4  and  C_5
REMARK    5  A    between atoms: C_5  and  C_6
REMARK    6  A    between atoms: C_6  and  C_7
REMARK    7  A    between atoms: C_7  and  C_8
REMARK    8  A    between atoms: C_8  and  C_9
REMARK    9  A    between atoms: C_9  and  C_10
REMARK   10  A    between atoms: C_9  and  C_11
REMARK   11  A    between atoms: C_17  and  C_18
REMARK   12  A    between atoms: C_18  and  O_20
REMARK                            x       y       z     vdW  Elec       q    Type
REMARK                         _______ _______ _______ _____ _____    ______ ____
ROOT
ATOM      1  C   UNL     1       5.043   3.871  18.344  0.00  0.00    +0.000 C 
ATOM      2  O   UNL     1       5.839   3.854  19.290  0.00  0.00    +0.000 OA
ATOM      3  N   UNL     1       5.474   4.384  17.149  0.00  0.00    +0.000 N 
ATOM      4  C   UNL     1       4.732   4.597  15.916  0.00  0.00    +0.000 C 
ATOM      5  C   UNL     1       5.728   4.173  14.858  0.00  0.00    +0.000 C 
ATOM      6  C   UNL     1       7.062   4.684  15.399  0.00  0.00    +0.000 C 
ATOM      7  C   UNL     1       6.893   4.706  16.927  0.00  0.00    +0.000 C 
ENDROOT
BRANCH   1   8
ATOM      8  C   UNL     1       3.637   3.279  18.461  0.00  0.00    +0.000 C 
ATOM      9  C   UNL     1       3.546   2.009  17.614  0.00  0.00    +0.000 C 
BRANCH   8  10
ATOM     10  C   UNL     1       3.207   3.053  19.920  0.00  0.00    +0.000 C 
BRANCH  10  11
ATOM     11  C   UNL     1       1.712   2.836  20.153  0.00  0.00    +0.000 C 
BRANCH  11  12
ATOM     12  C   UNL     1       0.970   4.169  20.278  0.00  0.00    +0.000 C 
BRANCH  12  13
ATOM     13  C   UNL     1       1.827   5.194  21.014  0.00  0.00    +0.000 C 
BRANCH  13  14
ATOM     14  C   UNL     1       1.777   6.552  20.320  0.00  0.00    +0.000 C 
BRANCH  14  15
ATOM     15  C   UNL     1       2.963   6.729  19.375  0.00  0.00    +0.000 C 
BRANCH  15  17
ATOM     16  C   UNL     1       2.273   8.551  17.781  0.00  0.00    +0.000 C 
ATOM     17  C   UNL     1       2.492   7.057  17.960  0.00  0.00    +0.000 C 
ENDBRANCH  15  17
ENDBRANCH  14  15
ENDBRANCH  13  14
ENDBRANCH  12  13
ENDBRANCH  11  12
ENDBRANCH  10  11
ENDBRANCH   8  10
ENDBRANCH   1   8
BRANCH   7  18
ATOM     18  C   UNL     1       7.276   6.063  17.549  0.00  0.00    +0.000 C 
ATOM     19  O   UNL     1       7.382   7.113  16.929  0.00  0.00    +0.000 OA
BRANCH  18  20
ATOM     20  O   UNL     1       7.574   5.986  18.869  0.00  0.00    +0.000 OA
ATOM     21  H   UNL     1       8.415   5.493  19.039  0.00  0.00    +0.000 HD
ENDBRANCH  18  20
ENDBRANCH   7  18
TORSDOF 10
ENDMDL
MODEL 9
REMARK VINA RESULT:      -6.6      0.956      1.445
REMARK  Name = 
REMARK  12 active torsions:
REMARK  status: ('A' for Active; 'I' for Inactive)
REMARK    1  A    between atoms: C_1  and  C_2
REMARK    2  A    between atoms: C_2  and  C_3
REMARK    3  A    between atoms: C_3  and  C_4
REMARK    4  A    between atoms: C_4  and  C_5
REMARK    5  A    between atoms: C_5  and  C_6
REMARK    6  A    between atoms: C_6  and  C_7
REMARK    7  A    between atoms: C_7  and  C_8
REMARK    8  A    between atoms: C_8  and  C_9
REMARK    9  A    between atoms: C_9  and  C_10
REMARK   10  A    between atoms: C_9  and  C_11
REMARK   11  A    between atoms: C_17  and  C_18
REMARK   12  A    between atoms: C_18  and  O_20
REMARK                            x       y       z     vdW  Elec       q    Type
REMARK                         _______ _______ _______ _____ _____    ______ ____
ROOT
ATOM      1  C   UNL     1       3.819   4.896  18.577  0.00  0.00    +0.000 C 
ATOM      2  O   UNL     1       4.900   4.828  19.175  0.00  0.00    +0.000 OA
ATOM      3  N   UNL     1       2.894   3.912  18.805  0.00  0.00    +0.000 N 
ATOM      4  C   UNL     1       1.596   3.705  18.183  0.00  0.00    +0.000 C 
ATOM      5  C   UNL     1       0.735   3.286  19.355  0.00  0.00    +0.000 C 
ATOM      6  C   UNL     1       1.668   2.408  20.187  0.00  0.00    +0.000 C 
ATOM      7  C   UNL     1       3.083   2.925  19.881  0.00  0.00    +0.000 C 
ENDROOT
BRANCH   1   8
ATOM      8  C   UNL     1       3.477   6.072  17.659  0.00  0.00    +0.000 C 
ATOM      9  C   UNL     1       3.040   7.268  18.505  0.00  0.00    +0.000 C 
BRANCH   8  10
ATOM     10  C   UNL     1       4.616   6.416  16.685  0.00  0.00    +0.000 C 
BRANCH  10  11
ATOM     11  C   UNL     1       5.892   6.972  17.315  0.00  0.00    +0.000 C 
BRANCH  11  12
ATOM     12  C   UNL     1       7.141   6.379  16.658  0.00  0.00    +0.000 C 
BRANCH  12  13
ATOM     13  C   UNL     1       6.912   4.916  16.293  0.00  0.00    +0.000 C 
BRANCH  13  14
ATOM     14  C   UNL     1       7.044   4.697  14.789  0.00  0.00    +0.000 C 
BRANCH  14  15
ATOM     15  C   UNL     1       5.846   3.927  14.239  0.00  0.00    +0.000 C 
BRANCH  15  17
ATOM     16  C   UNL     1       7.212   4.347  12.168  0.00  0.00    +0.000 C 
ATOM     17  C   UNL     1       6.052   3.569  12.769  0.00  0.00    +0.000 C 
ENDBRANCH  15  17
ENDBRANCH  14  15
ENDBRANCH  13  14
ENDBRANCH  12  13
ENDBRANCH  11  12
ENDBRANCH  10  11
ENDBRANCH   8  10
ENDBRANCH   1   8
BRANCH   7  18
ATOM     18  C   UNL     1       4.050   1.800  19.462  0.00  0.00    +0.000 C 
ATOM     19  O   UNL     1       3.811   0.951  18.614  0.00  0.00    +0.000 OA
BRANCH  18  20
ATOM     20  O   UNL     1       5.194   1.774  20.188  0.00  0.00    +0.000 OA
ATOM     21  H   UNL     1       5.839   1.101  19.856  0.00  0.00    +0.000 HD
ENDBRANCH  18  20
ENDBRANCH   7  18
TORSDOF 10
ENDMDL
