MODEL 1
REMARK VINA RESULT:      -7.6      0.000      0.000
REMARK  Name = 
REMARK  6 active torsions:
REMARK  status: ('A' for Active; 'I' for Inactive)
REMARK    1  A    between atoms: C_1  and  N_2
REMARK    2  A    between atoms: C_4  and  C_5
REMARK    3  A    between atoms: C_12  and  C_13
REMARK    4  A    between atoms: C_18  and  C_19
REMARK    5  A    between atoms: C_22  and  C_23
REMARK    6  A    between atoms: C_23  and  O_25
REMARK                            x       y       z     vdW  Elec       q    Type
REMARK                         _______ _______ _______ _____ _____    ______ ____
ROOT
ATOM      1  C   UNL     1       1.991  12.078  17.808  0.00  0.00    +0.000 C 
ATOM      2  N   UNL     1       1.210  11.767  18.983  0.00  0.00    +0.000 N 
ATOM      3  N   UNL     1       0.453  12.715  19.559  0.00  0.00    +0.000 NA
ATOM      4  C   UNL     1      -0.100  12.102  20.623  0.00  0.00    +0.000 A 
ATOM      5  C   UNL     1       0.352  10.738  20.737  0.00  0.00    +0.000 A 
ATOM      6  C   UNL     1       0.220   9.628  21.605  0.00  0.00    +0.000 A 
ATOM      7  C   UNL     1       0.864   8.442  21.199  0.00  0.00    +0.000 A 
ATOM      8  C   UNL     1       1.620   8.374  20.035  0.00  0.00    +0.000 A 
ATOM      9  N   UNL     1       1.823   9.442  19.237  0.00  0.00    +0.000 NA
ATOM     10  C   UNL     1       1.175  10.564  19.622  0.00  0.00    +0.000 A 
ENDROOT
BRANCH   4  11
ATOM     11  C   UNL     1      -0.985  12.855  21.514  0.00  0.00    +0.000 A 
ATOM     12  C   UNL     1      -2.371  12.829  21.337  0.00  0.00    +0.000 A 
ATOM     13  C   UNL     1      -3.218  13.311  22.337  0.00  0.00    +0.000 A 
ATOM     14  C   UNL     1      -2.683  13.911  23.474  0.00  0.00    +0.000 A 
ATOM     15  C   UNL     1      -1.304  14.072  23.591  0.00  0.00    +0.000 A 
ATOM     16  C   UNL     1      -0.456  13.544  22.613  0.00  0.00    +0.000 A 
ENDBRANCH   4  11
BRANCH   8  17
ATOM     17  C   UNL     1       2.236   7.094  19.611  0.00  0.00    +0.000 A 
ATOM     18  C   UNL     1       2.984   7.002  18.419  0.00  0.00    +0.000 A 
ATOM     19  C   UNL     1       3.569   5.803  18.008  0.00  0.00    +0.000 A 
ATOM     20  C   UNL     1       3.433   4.656  18.792  0.00  0.00    +0.000 A 
ATOM     21  C   UNL     1       2.706   4.718  19.984  0.00  0.00    +0.000 A 
ATOM     22  C   UNL     1       2.112   5.925  20.383  0.00  0.00    +0.000 A 
BRANCH  20  23
ATOM     23  C   UNL     1       4.131   3.425  18.344  0.00  0.00    +0.000 C 
ATOM     24  O   UNL     1       3.612   2.610  17.594  0.00  0.00    +0.000 OA
BRANCH  23  25
ATOM     25  O   UNL     1       5.350   3.256  18.881  0.00  0.00    +0.000 OA
ATOM     26  H   UNL     1       5.778   4.072  19.203  0.00  0.00    +0.000 HD
ENDBRANCH  23  25
ENDBRANCH  20  23
ENDBRANCH   8  17
BRANCH   6  27
ATOM     27  C   UNL     1      -0.560   9.523  22.896  0.00  0.00    +0.000 C 
ATOM     28  F   UNL     1      -1.479  10.485  23.105  0.00  0.00    +0.000 F 
ATOM     29  F   UNL     1      -1.203   8.326  22.994  0.00  0.00    +0.000 F 
ATOM     30  F   UNL     1       0.259   9.582  23.987  0.00  0.00    +0.000 F 
ENDBRANCH   6  27
TORSDOF 5
ENDMDL
MODEL 2
REMARK VINA RESULT:      -7.6      0.635      1.097
REMARK  Name = 
REMARK  6 active torsions:
REMARK  status: ('A' for Active; 'I' for Inactive)
REMARK    1  A    between atoms: C_1  and  N_2
REMARK    2  A    between atoms: C_4  and  C_5
REMARK    3  A    between atoms: C_12  and  C_13
REMARK    4  A    between atoms: C_18  and  C_19
REMARK    5  A    between atoms: C_22  and  C_23
REMARK    6  A    between atoms: C_23  and  O_25
REMARK                            x       y       z     vdW  Elec       q    Type
REMARK                         _______ _______ _______ _____ _____    ______ ____
ROOT
ATOM      1  C   UNL     1       2.258  11.375  17.575  0.00  0.00    +0.000 C 
ATOM      2  N   UNL     1       1.444  11.207  18.756  0.00  0.00    +0.000 N 
ATOM      3  N   UNL     1       0.714  12.233  19.223  0.00  0.00    +0.000 NA
ATOM      4  C   UNL     1       0.116  11.745  20.327  0.00  0.00    +0.000 A 
ATOM      5  C   UNL     1       0.513  10.382  20.579  0.00  0.00    +0.000 A 
ATOM      6  C   UNL     1       0.320   9.364  21.545  0.00  0.00    +0.000 A 
ATOM      7  C   UNL     1       0.924   8.122  21.266  0.00  0.00    +0.000 A 
ATOM      8  C   UNL     1       1.699   7.915  20.131  0.00  0.00    +0.000 A 
ATOM      9  N   UNL     1       1.958   8.895  19.241  0.00  0.00    +0.000 NA
ATOM     10  C   UNL     1       1.348  10.071  19.505  0.00  0.00    +0.000 A 
ENDROOT
BRANCH   4  11
ATOM     11  C   UNL     1      -0.754  12.611  21.124  0.00  0.00    +0.000 A 
ATOM     12  C   UNL     1      -2.127  12.676  20.870  0.00  0.00    +0.000 A 
ATOM     13  C   UNL     1      -2.987  13.278  21.792  0.00  0.00    +0.000 A 
ATOM     14  C   UNL     1      -2.468  13.902  22.923  0.00  0.00    +0.000 A 
ATOM     15  C   UNL     1      -1.089  13.968  23.110  0.00  0.00    +0.000 A 
ATOM     16  C   UNL     1      -0.233  13.323  22.213  0.00  0.00    +0.000 A 
ENDBRANCH   4  11
BRANCH   8  17
ATOM     17  C   UNL     1       2.271   6.579  19.843  0.00  0.00    +0.000 A 
ATOM     18  C   UNL     1       1.930   5.455  20.624  0.00  0.00    +0.000 A 
ATOM     19  C   UNL     1       2.462   4.190  20.366  0.00  0.00    +0.000 A 
ATOM     20  C   UNL     1       3.344   4.010  19.300  0.00  0.00    +0.000 A 
ATOM     21  C   UNL     1       3.693   5.102  18.500  0.00  0.00    +0.000 A 
ATOM     22  C   UNL     1       3.162   6.371  18.775  0.00  0.00    +0.000 A 
BRANCH  20  23
ATOM     23  C   UNL     1       3.827   2.632  19.026  0.00  0.00    +0.000 C 
ATOM     24  O   UNL     1       3.202   1.842  18.333  0.00  0.00    +0.000 OA
BRANCH  23  25
ATOM     25  O   UNL     1       4.971   2.314  19.654  0.00  0.00    +0.000 OA
ATOM     26  H   UNL     1       5.786   2.532  19.165  0.00  0.00    +0.000 HD
ENDBRANCH  23  25
ENDBRANCH  20  23
ENDBRANCH   8  17
BRANCH   6  27
ATOM     27  C   UNL     1      -0.487   9.412  22.822  0.00  0.00    +0.000 C 
ATOM     28  F   UNL     1      -1.349  10.440  22.932  0.00  0.00    +0.000 F 
ATOM     29  F   UNL     1      -1.204   8.266  23.001  0.00  0.00    +0.000 F 
ATOM     30  F   UNL     1       0.314   9.510  23.922  0.00  0.00    +0.000 F 
ENDBRANCH   6  27
TORSDOF 5
ENDMDL
MODEL 3
REMARK VINA RESULT:      -7.4      0.767      1.202
REMARK  Name = 
REMARK  6 active torsions:
REMARK  status: ('A' for Active; 'I' for Inactive)
REMARK    1  A    between atoms: C_1  and  N_2
REMARK    2  A    between atoms: C_4  and  C_5
REMARK    3  A    between atoms: C_12  and  C_13
REMARK    4  A    between atoms: C_18  and  C_19
REMARK    5  A    between atoms: C_22  and  C_23
REMARK    6  A    between atoms: C_23  and  O_25
REMARK                            x       y       z     vdW  Elec       q    Type
REMARK                         _______ _______ _______ _____ _____    ______ ____
ROOT
ATOM      1  C   UNL     1       1.239  12.825  17.843  0.00  0.00    +0.000 C 
ATOM      2  N   UNL     1       0.609  12.330  19.045  0.00  0.00    +0.000 N 
ATOM      3  N   UNL     1      -0.206  13.126  19.755  0.00  0.00    +0.000 NA
ATOM      4  C   UNL     1      -0.583  12.371  20.804  0.00  0.00    +0.000 A 
ATOM      5  C   UNL     1       0.044  11.073  20.768  0.00  0.00    +0.000 A 
ATOM      6  C   UNL     1       0.127   9.895  21.549  0.00  0.00    +0.000 A 
ATOM      7  C   UNL     1       0.876   8.836  20.996  0.00  0.00    +0.000 A 
ATOM      8  C   UNL     1       1.530   8.952  19.775  0.00  0.00    +0.000 A 
ATOM      9  N   UNL     1       1.526  10.093  19.055  0.00  0.00    +0.000 NA
ATOM     10  C   UNL     1       0.780  11.089  19.583  0.00  0.00    +0.000 A 
ENDROOT
BRANCH   4  11
ATOM     11  C   UNL     1      -1.472  12.934  21.821  0.00  0.00    +0.000 A 
ATOM     12  C   UNL     1      -2.837  12.631  21.827  0.00  0.00    +0.000 A 
ATOM     13  C   UNL     1      -3.622  12.938  22.941  0.00  0.00    +0.000 A 
ATOM     14  C   UNL     1      -3.070  13.636  24.012  0.00  0.00    +0.000 A 
ATOM     15  C   UNL     1      -1.747  14.069  23.951  0.00  0.00    +0.000 A 
ATOM     16  C   UNL     1      -0.949  13.718  22.858  0.00  0.00    +0.000 A 
ENDBRANCH   4  11
BRANCH   8  17
ATOM     17  C   UNL     1       2.260   7.798  19.199  0.00  0.00    +0.000 A 
ATOM     18  C   UNL     1       2.262   6.542  19.841  0.00  0.00    +0.000 A 
ATOM     19  C   UNL     1       2.946   5.446  19.311  0.00  0.00    +0.000 A 
ATOM     20  C   UNL     1       3.640   5.574  18.106  0.00  0.00    +0.000 A 
ATOM     21  C   UNL     1       3.648   6.803  17.441  0.00  0.00    +0.000 A 
ATOM     22  C   UNL     1       2.967   7.902  17.988  0.00  0.00    +0.000 A 
BRANCH  20  23
ATOM     23  C   UNL     1       4.293   4.361  17.552  0.00  0.00    +0.000 C 
ATOM     24  O   UNL     1       4.058   3.943  16.427  0.00  0.00    +0.000 OA
BRANCH  23  25
ATOM     25  O   UNL     1       5.110   3.733  18.413  0.00  0.00    +0.000 OA
ATOM     26  H   UNL     1       4.764   3.639  19.320  0.00  0.00    +0.000 HD
ENDBRANCH  23  25
ENDBRANCH  20  23
ENDBRANCH   8  17
BRANCH   6  27
ATOM     27  C   UNL     1      -0.516   9.595  22.883  0.00  0.00    +0.000 C 
ATOM     28  F   UNL     1      -1.411  10.502  23.318  0.00  0.00    +0.000 F 
ATOM     29  F   UNL     1      -1.143   8.385  22.873  0.00  0.00    +0.000 F 
ATOM     30  F   UNL     1       0.409   9.512  23.883  0.00  0.00    +0.000 F 
ENDBRANCH   6  27
TORSDOF 5
ENDMDL
MODEL 4
REMARK VINA RESULT:      -7.3      1.039      1.501
REMARK  Name = 
REMARK  6 active torsions:
REMARK  status: ('A' for Active; 'I' for Inactive)
REMARK    1  A    between atoms: C_1  and  N_2
REMARK    2  A    between atoms: C_4  and  C_5
REMARK    3  A    between atoms: C_12  and  C_13
REMARK    4  A    between atoms: C_18  and  C_19
REMARK    5  A    between atoms: C_22  and  C_23
REMARK    6  A    between atoms: C_23  and  O_25
REMARK                            x       y       z     vdW  Elec       q    Type
REMARK                         _______ _______ _______ _____ _____    ______ ____
ROOT
ATOM      1  C   UNL     1       1.210  13.207  18.173  0.00  0.00    +0.000 C 
ATOM      2  N   UNL     1       0.576  12.626  19.334  0.00  0.00    +0.000 N 
ATOM      3  N   UNL     1      -0.227  13.375  20.108  0.00  0.00    +0.000 NA
ATOM      4  C   UNL     1      -0.613  12.543  21.094  0.00  0.00    +0.000 A 
ATOM      5  C   UNL     1      -0.005  11.243  20.952  0.00  0.00    +0.000 A 
ATOM      6  C   UNL     1       0.062  10.005  21.636  0.00  0.00    +0.000 A 
ATOM      7  C   UNL     1       0.794   8.984  20.997  0.00  0.00    +0.000 A 
ATOM      8  C   UNL     1       1.447   9.188  19.787  0.00  0.00    +0.000 A 
ATOM      9  N   UNL     1       1.460  10.383  19.162  0.00  0.00    +0.000 NA
ATOM     10  C   UNL     1       0.729  11.344  19.770  0.00  0.00    +0.000 A 
ENDROOT
BRANCH   4  11
ATOM     11  C   UNL     1      -1.492  13.035  22.156  0.00  0.00    +0.000 A 
ATOM     12  C   UNL     1      -0.977  13.758  23.235  0.00  0.00    +0.000 A 
ATOM     13  C   UNL     1      -1.833  14.456  24.089  0.00  0.00    +0.000 A 
ATOM     14  C   UNL     1      -3.213  14.356  23.928  0.00  0.00    +0.000 A 
ATOM     15  C   UNL     1      -3.737  13.521  22.944  0.00  0.00    +0.000 A 
ATOM     16  C   UNL     1      -2.880  12.863  22.058  0.00  0.00    +0.000 A 
ENDBRANCH   4  11
BRANCH   8  17
ATOM     17  C   UNL     1       2.159   8.073  19.119  0.00  0.00    +0.000 A 
ATOM     18  C   UNL     1       2.766   8.245  17.857  0.00  0.00    +0.000 A 
ATOM     19  C   UNL     1       3.439   7.204  17.216  0.00  0.00    +0.000 A 
ATOM     20  C   UNL     1       3.538   5.955  17.830  0.00  0.00    +0.000 A 
ATOM     21  C   UNL     1       2.956   5.755  19.086  0.00  0.00    +0.000 A 
ATOM     22  C   UNL     1       2.272   6.805  19.717  0.00  0.00    +0.000 A 
BRANCH  20  23
ATOM     23  C   UNL     1       4.323   4.903  17.137  0.00  0.00    +0.000 C 
ATOM     24  O   UNL     1       5.068   5.149  16.199  0.00  0.00    +0.000 OA
BRANCH  23  25
ATOM     25  O   UNL     1       4.095   3.658  17.587  0.00  0.00    +0.000 OA
ATOM     26  H   UNL     1       3.196   3.501  17.934  0.00  0.00    +0.000 HD
ENDBRANCH  23  25
ENDBRANCH  20  23
ENDBRANCH   8  17
BRANCH   6  27
ATOM     27  C   UNL     1      -0.583   9.608  22.943  0.00  0.00    +0.000 C 
ATOM     28  F   UNL     1      -1.536  10.442  23.403  0.00  0.00    +0.000 F 
ATOM     29  F   UNL     1      -1.140   8.367  22.868  0.00  0.00    +0.000 F 
ATOM     30  F   UNL     1       0.330   9.532  23.955  0.00  0.00    +0.000 F 
ENDBRANCH   6  27
TORSDOF 5
ENDMDL
MODEL 5
REMARK VINA RESULT:      -7.3      0.651      1.108
REMARK  Name = 
REMARK  6 active torsions:
REMARK  status: ('A' for Active; 'I' for Inactive)
REMARK    1  A    between atoms: C_1  and  N_2
REMARK    2  A    between atoms: C_4  and  C_5
REMARK    3  A    between atoms: C_12  and  C_13
REMARK    4  A    between atoms: C_18  and  C_19
REMARK    5  A    between atoms: C_22  and  C_23
REMARK    6  A    between atoms: C_23  and  O_25
REMARK                            x       y       z     vdW  Elec       q    Type
REMARK                         _______ _______ _______ _____ _____    ______ ____
ROOT
ATOM      1  C   UNL     1       2.251  11.460  17.628  0.00  0.00    +0.000 C 
ATOM      2  N   UNL     1       1.448  11.292  18.817  0.00  0.00    +0.000 N 
ATOM      3  N   UNL     1       0.733  12.322  19.299  0.00  0.00    +0.000 NA
ATOM      4  C   UNL     1       0.144  11.832  20.407  0.00  0.00    +0.000 A 
ATOM      5  C   UNL     1       0.530  10.464  20.645  0.00  0.00    +0.000 A 
ATOM      6  C   UNL     1       0.338   9.442  21.607  0.00  0.00    +0.000 A 
ATOM      7  C   UNL     1       0.928   8.196  21.313  0.00  0.00    +0.000 A 
ATOM      8  C   UNL     1       1.688   7.989  20.168  0.00  0.00    +0.000 A 
ATOM      9  N   UNL     1       1.947   8.972  19.281  0.00  0.00    +0.000 NA
ATOM     10  C   UNL     1       1.350  10.153  19.560  0.00  0.00    +0.000 A 
ENDROOT
BRANCH   4  11
ATOM     11  C   UNL     1      -0.710  12.701  21.218  0.00  0.00    +0.000 A 
ATOM     12  C   UNL     1      -0.163  13.517  22.213  0.00  0.00    +0.000 A 
ATOM     13  C   UNL     1      -0.926  14.535  22.788  0.00  0.00    +0.000 A 
ATOM     14  C   UNL     1      -2.268  14.679  22.445  0.00  0.00    +0.000 A 
ATOM     15  C   UNL     1      -2.859  13.778  21.562  0.00  0.00    +0.000 A 
ATOM     16  C   UNL     1      -2.082  12.791  20.949  0.00  0.00    +0.000 A 
ENDBRANCH   4  11
BRANCH   8  17
ATOM     17  C   UNL     1       2.244   6.649  19.866  0.00  0.00    +0.000 A 
ATOM     18  C   UNL     1       3.259   6.480  18.901  0.00  0.00    +0.000 A 
ATOM     19  C   UNL     1       3.791   5.224  18.605  0.00  0.00    +0.000 A 
ATOM     20  C   UNL     1       3.331   4.094  19.283  0.00  0.00    +0.000 A 
ATOM     21  C   UNL     1       2.333   4.231  20.253  0.00  0.00    +0.000 A 
ATOM     22  C   UNL     1       1.796   5.496  20.535  0.00  0.00    +0.000 A 
BRANCH  20  23
ATOM     23  C   UNL     1       3.978   2.793  18.980  0.00  0.00    +0.000 C 
ATOM     24  O   UNL     1       3.377   1.864  18.460  0.00  0.00    +0.000 OA
BRANCH  23  25
ATOM     25  O   UNL     1       5.257   2.707  19.383  0.00  0.00    +0.000 OA
ATOM     26  H   UNL     1       5.895   2.462  18.686  0.00  0.00    +0.000 HD
ENDBRANCH  23  25
ENDBRANCH  20  23
ENDBRANCH   8  17
BRANCH   6  27
ATOM     27  C   UNL     1      -0.454   9.489  22.893  0.00  0.00    +0.000 C 
ATOM     28  F   UNL     1      -1.213  10.586  23.073  0.00  0.00    +0.000 F 
ATOM     29  F   UNL     1      -1.276   8.408  23.011  0.00  0.00    +0.000 F 
ATOM     30  F   UNL     1       0.359   9.443  23.989  0.00  0.00    +0.000 F 
ENDBRANCH   6  27
TORSDOF 5
ENDMDL
MODEL 6
REMARK VINA RESULT:      -7.3      2.525      3.524
REMARK  Name = 
REMARK  6 active torsions:
REMARK  status: ('A' for Active; 'I' for Inactive)
REMARK    1  A    between atoms: C_1  and  N_2
REMARK    2  A    between atoms: C_4  and  C_5
REMARK    3  A    between atoms: C_12  and  C_13
REMARK    4  A    between atoms: C_18  and  C_19
REMARK    5  A    between atoms: C_22  and  C_23
REMARK    6  A    between atoms: C_23  and  O_25
REMARK                            x       y       z     vdW  Elec       q    Type
REMARK                         _______ _______ _______ _____ _____    ______ ____
ROOT
ATOM      1  C   UNL     1       0.273   9.465  23.928  0.00  0.00    +0.000 C 
ATOM      2  N   UNL     1      -0.240  10.276  22.848  0.00  0.00    +0.000 N 
ATOM      3  N   UNL     1      -1.076  11.295  23.109  0.00  0.00    +0.000 NA
ATOM      4  C   UNL     1      -1.374  11.803  21.898  0.00  0.00    +0.000 A 
ATOM      5  C   UNL     1      -0.733  11.057  20.844  0.00  0.00    +0.000 A 
ATOM      6  C   UNL     1      -0.680  11.020  19.430  0.00  0.00    +0.000 A 
ATOM      7  C   UNL     1       0.199  10.072  18.867  0.00  0.00    +0.000 A 
ATOM      8  C   UNL     1       0.942   9.197  19.651  0.00  0.00    +0.000 A 
ATOM      9  N   UNL     1       0.844   9.165  20.995  0.00  0.00    +0.000 NA
ATOM     10  C   UNL     1       0.021  10.098  21.522  0.00  0.00    +0.000 A 
ENDROOT
BRANCH   4  11
ATOM     11  C   UNL     1      -2.298  12.934  21.793  0.00  0.00    +0.000 A 
ATOM     12  C   UNL     1      -1.861  14.176  21.324  0.00  0.00    +0.000 A 
ATOM     13  C   UNL     1      -2.785  15.159  20.966  0.00  0.00    +0.000 A 
ATOM     14  C   UNL     1      -4.146  14.943  21.167  0.00  0.00    +0.000 A 
ATOM     15  C   UNL     1      -4.580  13.764  21.770  0.00  0.00    +0.000 A 
ATOM     16  C   UNL     1      -3.658  12.760  22.082  0.00  0.00    +0.000 A 
ENDBRANCH   4  11
BRANCH   8  17
ATOM     17  C   UNL     1       1.899   8.254  19.025  0.00  0.00    +0.000 A 
ATOM     18  C   UNL     1       2.253   7.044  19.658  0.00  0.00    +0.000 A 
ATOM     19  C   UNL     1       3.153   6.147  19.081  0.00  0.00    +0.000 A 
ATOM     20  C   UNL     1       3.717   6.430  17.836  0.00  0.00    +0.000 A 
ATOM     21  C   UNL     1       3.378   7.615  17.178  0.00  0.00    +0.000 A 
ATOM     22  C   UNL     1       2.481   8.516  17.772  0.00  0.00    +0.000 A 
BRANCH  20  23
ATOM     23  C   UNL     1       4.615   5.411  17.236  0.00  0.00    +0.000 C 
ATOM     24  O   UNL     1       5.131   5.554  16.137  0.00  0.00    +0.000 OA
BRANCH  23  25
ATOM     25  O   UNL     1       4.758   4.299  17.975  0.00  0.00    +0.000 OA
ATOM     26  H   UNL     1       4.147   4.222  18.732  0.00  0.00    +0.000 HD
ENDBRANCH  23  25
ENDBRANCH  20  23
ENDBRANCH   8  17
BRANCH   6  27
ATOM     27  C   UNL     1      -1.406  11.891  18.431  0.00  0.00    +0.000 C 
ATOM     28  F   UNL     1      -0.891  13.121  18.243  0.00  0.00    +0.000 F 
ATOM     29  F   UNL     1      -1.476  11.295  17.207  0.00  0.00    +0.000 F 
ATOM     30  F   UNL     1      -2.703  12.109  18.799  0.00  0.00    +0.000 F 
ENDBRANCH   6  27
TORSDOF 5
ENDMDL
MODEL 7
REMARK VINA RESULT:      -7.3      2.173      2.858
REMARK  Name = 
REMARK  6 active torsions:
REMARK  status: ('A' for Active; 'I' for Inactive)
REMARK    1  A    between atoms: C_1  and  N_2
REMARK    2  A    between atoms: C_4  and  C_5
REMARK    3  A    between atoms: C_12  and  C_13
REMARK    4  A    between atoms: C_18  and  C_19
REMARK    5  A    between atoms: C_22  and  C_23
REMARK    6  A    between atoms: C_23  and  O_25
REMARK                            x       y       z     vdW  Elec       q    Type
REMARK                         _______ _______ _______ _____ _____    ______ ____
ROOT
ATOM      1  C   UNL     1      -2.535  11.044  16.299  0.00  0.00    +0.000 C 
ATOM      2  N   UNL     1      -2.453  11.314  17.715  0.00  0.00    +0.000 N 
ATOM      3  N   UNL     1      -3.359  12.113  18.302  0.00  0.00    +0.000 NA
ATOM      4  C   UNL     1      -2.972  12.170  19.591  0.00  0.00    +0.000 A 
ATOM      5  C   UNL     1      -1.765  11.411  19.810  0.00  0.00    +0.000 A 
ATOM      6  C   UNL     1      -0.848  11.123  20.849  0.00  0.00    +0.000 A 
ATOM      7  C   UNL     1       0.191  10.226  20.528  0.00  0.00    +0.000 A 
ATOM      8  C   UNL     1       0.332   9.684  19.256  0.00  0.00    +0.000 A 
ATOM      9  N   UNL     1      -0.485  10.008  18.234  0.00  0.00    +0.000 NA
ATOM     10  C   UNL     1      -1.493  10.846  18.563  0.00  0.00    +0.000 A 
ENDROOT
BRANCH   4  11
ATOM     11  C   UNL     1      -3.728  12.987  20.540  0.00  0.00    +0.000 A 
ATOM     12  C   UNL     1      -4.914  12.513  21.108  0.00  0.00    +0.000 A 
ATOM     13  C   UNL     1      -5.480  13.165  22.206  0.00  0.00    +0.000 A 
ATOM     14  C   UNL     1      -4.918  14.349  22.679  0.00  0.00    +0.000 A 
ATOM     15  C   UNL     1      -3.821  14.905  22.027  0.00  0.00    +0.000 A 
ATOM     16  C   UNL     1      -3.225  14.226  20.960  0.00  0.00    +0.000 A 
ENDBRANCH   4  11
BRANCH   8  17
ATOM     17  C   UNL     1       1.403   8.699  18.973  0.00  0.00    +0.000 A 
ATOM     18  C   UNL     1       1.723   7.682  19.896  0.00  0.00    +0.000 A 
ATOM     19  C   UNL     1       2.730   6.748  19.643  0.00  0.00    +0.000 A 
ATOM     20  C   UNL     1       3.440   6.797  18.442  0.00  0.00    +0.000 A 
ATOM     21  C   UNL     1       3.138   7.787  17.502  0.00  0.00    +0.000 A 
ATOM     22  C   UNL     1       2.133   8.728  17.771  0.00  0.00    +0.000 A 
BRANCH  20  23
ATOM     23  C   UNL     1       4.452   5.740  18.193  0.00  0.00    +0.000 C 
ATOM     24  O   UNL     1       4.570   5.183  17.110  0.00  0.00    +0.000 OA
BRANCH  23  25
ATOM     25  O   UNL     1       5.179   5.407  19.273  0.00  0.00    +0.000 OA
ATOM     26  H   UNL     1       4.762   5.610  20.131  0.00  0.00    +0.000 HD
ENDBRANCH  23  25
ENDBRANCH  20  23
ENDBRANCH   8  17
BRANCH   6  27
ATOM     27  C   UNL     1      -0.851  11.613  22.279  0.00  0.00    +0.000 C 
ATOM     28  F   UNL     1      -2.065  11.776  22.839  0.00  0.00    +0.000 F 
ATOM     29  F   UNL     1      -0.142  10.781  23.093  0.00  0.00    +0.000 F 
ATOM     30  F   UNL     1      -0.247  12.832  22.397  0.00  0.00    +0.000 F 
ENDBRANCH   6  27
TORSDOF 5
ENDMDL
MODEL 8
REMARK VINA RESULT:      -7.3      2.617      3.554
REMARK  Name = 
REMARK  6 active torsions:
REMARK  status: ('A' for Active; 'I' for Inactive)
REMARK    1  A    between atoms: C_1  and  N_2
REMARK    2  A    between atoms: C_4  and  C_5
REMARK    3  A    between atoms: C_12  and  C_13
REMARK    4  A    between atoms: C_18  and  C_19
REMARK    5  A    between atoms: C_22  and  C_23
REMARK    6  A    between atoms: C_23  and  O_25
REMARK                            x       y       z     vdW  Elec       q    Type
REMARK                         _______ _______ _______ _____ _____    ______ ____
ROOT
ATOM      1  C   UNL     1       0.112   9.499  23.855  0.00  0.00    +0.000 C 
ATOM      2  N   UNL     1      -0.385  10.303  22.762  0.00  0.00    +0.000 N 
ATOM      3  N   UNL     1      -1.236  11.314  23.002  0.00  0.00    +0.000 NA
ATOM      4  C   UNL     1      -1.512  11.817  21.783  0.00  0.00    +0.000 A 
ATOM      5  C   UNL     1      -0.841  11.074  20.746  0.00  0.00    +0.000 A 
ATOM      6  C   UNL     1      -0.755  11.034  19.333  0.00  0.00    +0.000 A 
ATOM      7  C   UNL     1       0.145  10.094  18.792  0.00  0.00    +0.000 A 
ATOM      8  C   UNL     1       0.879   9.228  19.594  0.00  0.00    +0.000 A 
ATOM      9  N   UNL     1       0.751   9.198  20.937  0.00  0.00    +0.000 NA
ATOM     10  C   UNL     1      -0.093  10.124  21.443  0.00  0.00    +0.000 A 
ENDROOT
BRANCH   4  11
ATOM     11  C   UNL     1      -2.444  12.937  21.656  0.00  0.00    +0.000 A 
ATOM     12  C   UNL     1      -1.988  14.214  21.317  0.00  0.00    +0.000 A 
ATOM     13  C   UNL     1      -2.891  15.206  20.927  0.00  0.00    +0.000 A 
ATOM     14  C   UNL     1      -4.261  14.956  20.970  0.00  0.00    +0.000 A 
ATOM     15  C   UNL     1      -4.729  13.733  21.446  0.00  0.00    +0.000 A 
ATOM     16  C   UNL     1      -3.823  12.725  21.787  0.00  0.00    +0.000 A 
ENDBRANCH   4  11
BRANCH   8  17
ATOM     17  C   UNL     1       1.858   8.293  18.992  0.00  0.00    +0.000 A 
ATOM     18  C   UNL     1       2.464   8.570  17.749  0.00  0.00    +0.000 A 
ATOM     19  C   UNL     1       3.388   7.698  17.169  0.00  0.00    +0.000 A 
ATOM     20  C   UNL     1       3.745   6.522  17.830  0.00  0.00    +0.000 A 
ATOM     21  C   UNL     1       3.170   6.224  19.069  0.00  0.00    +0.000 A 
ATOM     22  C   UNL     1       2.234   7.102  19.637  0.00  0.00    +0.000 A 
BRANCH  20  23
ATOM     23  C   UNL     1       4.782   5.664  17.203  0.00  0.00    +0.000 C 
ATOM     24  O   UNL     1       5.306   4.728  17.791  0.00  0.00    +0.000 OA
BRANCH  23  25
ATOM     25  O   UNL     1       5.136   6.044  15.964  0.00  0.00    +0.000 OA
ATOM     26  H   UNL     1       5.691   5.405  15.477  0.00  0.00    +0.000 HD
ENDBRANCH  23  25
ENDBRANCH  20  23
ENDBRANCH   8  17
BRANCH   6  27
ATOM     27  C   UNL     1      -1.468  11.896  18.316  0.00  0.00    +0.000 C 
ATOM     28  F   UNL     1      -2.752  12.191  18.595  0.00  0.00    +0.000 F 
ATOM     29  F   UNL     1      -0.819  13.079  18.122  0.00  0.00    +0.000 F 
ATOM     30  F   UNL     1      -1.506  11.302  17.088  0.00  0.00    +0.000 F 
ENDBRANCH   6  27
TORSDOF 5
ENDMDL
MODEL 9
REMARK VINA RESULT:      -7.3      1.154      1.976
REMARK  Name = 
REMARK  6 active torsions:
REMARK  status: ('A' for Active; 'I' for Inactive)
REMARK    1  A    between atoms: C_1  and  N_2
REMARK    2  A    between atoms: C_4  and  C_5
REMARK    3  A    between atoms: C_12  and  C_13
REMARK    4  A    between atoms: C_18  and  C_19
REMARK    5  A    between atoms: C_22  and  C_23
REMARK    6  A    between atoms: C_23  and  O_25
REMARK                            x       y       z     vdW  Elec       q    Type
REMARK                         _______ _______ _______ _____ _____    ______ ____
ROOT
ATOM      1  C   UNL     1       0.610  13.201  18.115  0.00  0.00    +0.000 C 
ATOM      2  N   UNL     1       0.101  12.602  19.327  0.00  0.00    +0.000 N 
ATOM      3  N   UNL     1      -0.720  13.298  20.129  0.00  0.00    +0.000 NA
ATOM      4  C   UNL     1      -0.969  12.466  21.158  0.00  0.00    +0.000 A 
ATOM      5  C   UNL     1      -0.253  11.223  21.013  0.00  0.00    +0.000 A 
ATOM      6  C   UNL     1      -0.030  10.019  21.723  0.00  0.00    +0.000 A 
ATOM      7  C   UNL     1       0.755   9.049  21.068  0.00  0.00    +0.000 A 
ATOM      8  C   UNL     1       1.313   9.273  19.815  0.00  0.00    +0.000 A 
ATOM      9  N   UNL     1       1.178  10.444  19.159  0.00  0.00    +0.000 NA
ATOM     10  C   UNL     1       0.398  11.353  19.786  0.00  0.00    +0.000 A 
ENDROOT
BRANCH   4  11
ATOM     11  C   UNL     1      -1.826  12.910  22.258  0.00  0.00    +0.000 A 
ATOM     12  C   UNL     1      -1.302  13.652  23.321  0.00  0.00    +0.000 A 
ATOM     13  C   UNL     1      -2.156  14.304  24.214  0.00  0.00    +0.000 A 
ATOM     14  C   UNL     1      -3.534  14.136  24.109  0.00  0.00    +0.000 A 
ATOM     15  C   UNL     1      -4.057  13.281  23.142  0.00  0.00    +0.000 A 
ATOM     16  C   UNL     1      -3.206  12.669  22.218  0.00  0.00    +0.000 A 
ENDBRANCH   4  11
BRANCH   8  17
ATOM     17  C   UNL     1       2.085   8.207  19.134  0.00  0.00    +0.000 A 
ATOM     18  C   UNL     1       2.267   6.942  19.730  0.00  0.00    +0.000 A 
ATOM     19  C   UNL     1       2.992   5.929  19.100  0.00  0.00    +0.000 A 
ATOM     20  C   UNL     1       3.547   6.150  17.839  0.00  0.00    +0.000 A 
ATOM     21  C   UNL     1       3.375   7.390  17.217  0.00  0.00    +0.000 A 
ATOM     22  C   UNL     1       2.655   8.406  17.864  0.00  0.00    +0.000 A 
BRANCH  20  23
ATOM     23  C   UNL     1       4.250   5.018  17.184  0.00  0.00    +0.000 C 
ATOM     24  O   UNL     1       4.212   3.877  17.623  0.00  0.00    +0.000 OA
BRANCH  23  25
ATOM     25  O   UNL     1       4.977   5.367  16.110  0.00  0.00    +0.000 OA
ATOM     26  H   UNL     1       5.815   4.880  16.000  0.00  0.00    +0.000 HD
ENDBRANCH  23  25
ENDBRANCH  20  23
ENDBRANCH   8  17
BRANCH   6  27
ATOM     27  C   UNL     1      -0.559   9.607  23.078  0.00  0.00    +0.000 C 
ATOM     28  F   UNL     1       0.355   9.530  24.064  0.00  0.00    +0.000 F 
ATOM     29  F   UNL     1      -1.541  10.448  23.507  0.00  0.00    +0.000 F 
ATOM     30  F   UNL     1      -1.136   8.370  23.041  0.00  0.00    +0.000 F 
ENDBRANCH   6  27
TORSDOF 5
ENDMDL
