MODEL 1
REMARK VINA RESULT:      -8.9      0.000      0.000
REMARK  Name = 
REMARK  5 active torsions:
REMARK  status: ('A' for Active; 'I' for Inactive)
REMARK    1  A    between atoms: C_6  and  C_7
REMARK    2  A    between atoms: C_8  and  C_9
REMARK    3  A    between atoms: C_12  and  O_13
REMARK    4  A    between atoms: O_13  and  C_14
REMARK    5  A    between atoms: C_14  and  C_15
REMARK                            x       y       z     vdW  Elec       q    Type
REMARK                         _______ _______ _______ _____ _____    ______ ____
ROOT
ATOM      1  C   UNL     1       3.635   5.204  17.556  0.00  0.00    +0.000 A 
ATOM      2  C   UNL     1       3.573   6.591  17.596  0.00  0.00    +0.000 A 
ATOM      3  N   UNL     1       4.610   7.042  16.806  0.00  0.00    +0.000 N 
ATOM      4  C   UNL     1       5.302   5.989  16.248  0.00  0.00    +0.000 A 
ATOM      5  C   UNL     1       6.404   5.980  15.386  0.00  0.00    +0.000 A 
ATOM      6  C   UNL     1       6.893   4.736  14.972  0.00  0.00    +0.000 A 
ATOM      7  C   UNL     1       6.309   3.550  15.409  0.00  0.00    +0.000 A 
ATOM      8  C   UNL     1       5.217   3.575  16.280  0.00  0.00    +0.000 A 
ATOM      9  C   UNL     1       4.705   4.816  16.706  0.00  0.00    +0.000 A 
ATOM     10  H   UNL     1       4.847   8.013  16.664  0.00  0.00    +0.000 HD
ENDROOT
BRANCH   1  16
ATOM     11  O   UNL     1       1.669   1.782  20.297  0.00  0.00    +0.000 OA
ATOM     12  C   UNL     1       1.794   2.712  19.522  0.00  0.00    +0.000 C 
ATOM     13  N   UNL     1       0.827   3.222  18.730  0.00  0.00    +0.000 N 
ATOM     14  C   UNL     1       1.348   4.107  17.854  0.00  0.00    +0.000 C 
ATOM     15  O   UNL     1       0.776   4.576  16.891  0.00  0.00    +0.000 OA
ATOM     16  C   UNL     1       2.769   4.303  18.227  0.00  0.00    +0.000 C 
ATOM     17  C   UNL     1       3.032   3.459  19.230  0.00  0.00    +0.000 C 
ATOM     18 BR   UNL     1       4.608   3.168  20.125  0.00  0.00    +0.000 Br
ATOM     19  H   UNL     1      -0.103   2.840  18.659  0.00  0.00    +0.000 HD
ENDBRANCH   1  16
BRANCH   2  20
ATOM     20  C   UNL     1       2.665   7.493  18.314  0.00  0.00    +0.000 A 
ATOM     21  C   UNL     1       2.209   8.647  17.675  0.00  0.00    +0.000 A 
ATOM     22  C   UNL     1       1.442   9.589  18.341  0.00  0.00    +0.000 A 
ATOM     23  C   UNL     1       1.011   9.343  19.638  0.00  0.00    +0.000 A 
ATOM     24  C   UNL     1       1.436   8.187  20.295  0.00  0.00    +0.000 A 
ATOM     25  C   UNL     1       2.266   7.266  19.638  0.00  0.00    +0.000 A 
BRANCH  23  26
ATOM     26  O   UNL     1       0.157  10.166  20.321  0.00  0.00    +0.000 OA
BRANCH  26  27
ATOM     27  C   UNL     1      -0.193  11.352  19.601  0.00  0.00    +0.000 C 
BRANCH  27  28
ATOM     28  C   UNL     1      -1.581  11.208  19.053  0.00  0.00    +0.000 A 
ATOM     29  C   UNL     1      -1.884  10.187  18.145  0.00  0.00    +0.000 A 
ATOM     30  C   UNL     1      -3.179  10.063  17.647  0.00  0.00    +0.000 A 
ATOM     31  C   UNL     1      -4.171  10.954  18.048  0.00  0.00    +0.000 A 
ATOM     32  C   UNL     1      -3.875  11.976  18.950  0.00  0.00    +0.000 A 
ATOM     33  C   UNL     1      -2.582  12.106  19.449  0.00  0.00    +0.000 A 
ENDBRANCH  27  28
ENDBRANCH  26  27
ENDBRANCH  23  26
ENDBRANCH   2  20
TORSDOF 5
ENDMDL
MODEL 2
REMARK VINA RESULT:      -8.9      1.238      1.718
REMARK  Name = 
REMARK  5 active torsions:
REMARK  status: ('A' for Active; 'I' for Inactive)
REMARK    1  A    between atoms: C_6  and  C_7
REMARK    2  A    between atoms: C_8  and  C_9
REMARK    3  A    between atoms: C_12  and  O_13
REMARK    4  A    between atoms: O_13  and  C_14
REMARK    5  A    between atoms: C_14  and  C_15
REMARK                            x       y       z     vdW  Elec       q    Type
REMARK                         _______ _______ _______ _____ _____    ______ ____
ROOT
ATOM      1  C   UNL     1       3.577   5.102  17.586  0.00  0.00    +0.000 A 
ATOM      2  C   UNL     1       3.515   6.479  17.762  0.00  0.00    +0.000 A 
ATOM      3  N   UNL     1       4.532   7.006  16.992  0.00  0.00    +0.000 N 
ATOM      4  C   UNL     1       5.209   6.014  16.317  0.00  0.00    +0.000 A 
ATOM      5  C   UNL     1       6.287   6.091  15.428  0.00  0.00    +0.000 A 
ATOM      6  C   UNL     1       6.765   4.894  14.883  0.00  0.00    +0.000 A 
ATOM      7  C   UNL     1       6.192   3.670  15.219  0.00  0.00    +0.000 A 
ATOM      8  C   UNL     1       5.124   3.608  16.117  0.00  0.00    +0.000 A 
ATOM      9  C   UNL     1       4.623   4.801  16.674  0.00  0.00    +0.000 A 
ATOM     10  H   UNL     1       4.765   7.987  16.938  0.00  0.00    +0.000 HD
ENDROOT
BRANCH   1  16
ATOM     11  O   UNL     1       1.681   1.442  20.055  0.00  0.00    +0.000 OA
ATOM     12  C   UNL     1       1.786   2.434  19.359  0.00  0.00    +0.000 C 
ATOM     13  N   UNL     1       0.804   2.998  18.623  0.00  0.00    +0.000 N 
ATOM     14  C   UNL     1       1.305   3.958  17.818  0.00  0.00    +0.000 C 
ATOM     15  O   UNL     1       0.716   4.499  16.904  0.00  0.00    +0.000 OA
ATOM     16  C   UNL     1       2.728   4.139  18.189  0.00  0.00    +0.000 C 
ATOM     17  C   UNL     1       3.013   3.217  19.116  0.00  0.00    +0.000 C 
ATOM     18 BR   UNL     1       4.603   2.871  19.965  0.00  0.00    +0.000 Br
ATOM     19  H   UNL     1      -0.122   2.611  18.531  0.00  0.00    +0.000 HD
ENDBRANCH   1  16
BRANCH   2  20
ATOM     20  C   UNL     1       2.628   7.305  18.588  0.00  0.00    +0.000 A 
ATOM     21  C   UNL     1       2.073   8.462  18.039  0.00  0.00    +0.000 A 
ATOM     22  C   UNL     1       1.319   9.338  18.804  0.00  0.00    +0.000 A 
ATOM     23  C   UNL     1       1.001   9.016  20.118  0.00  0.00    +0.000 A 
ATOM     24  C   UNL     1       1.527   7.855  20.686  0.00  0.00    +0.000 A 
ATOM     25  C   UNL     1       2.343   7.003  19.926  0.00  0.00    +0.000 A 
BRANCH  23  26
ATOM     26  O   UNL     1       0.167   9.767  20.901  0.00  0.00    +0.000 OA
BRANCH  26  27
ATOM     27  C   UNL     1      -0.052  11.089  20.399  0.00  0.00    +0.000 C 
BRANCH  27  28
ATOM     28  C   UNL     1      -1.233  11.694  21.097  0.00  0.00    +0.000 A 
ATOM     29  C   UNL     1      -2.206  12.394  20.374  0.00  0.00    +0.000 A 
ATOM     30  C   UNL     1      -3.299  12.947  21.036  0.00  0.00    +0.000 A 
ATOM     31  C   UNL     1      -3.425  12.809  22.416  0.00  0.00    +0.000 A 
ATOM     32  C   UNL     1      -2.457  12.116  23.144  0.00  0.00    +0.000 A 
ATOM     33  C   UNL     1      -1.361  11.563  22.487  0.00  0.00    +0.000 A 
ENDBRANCH  27  28
ENDBRANCH  26  27
ENDBRANCH  23  26
ENDBRANCH   2  20
TORSDOF 5
ENDMDL
MODEL 3
REMARK VINA RESULT:      -8.7      1.297      1.982
REMARK  Name = 
REMARK  5 active torsions:
REMARK  status: ('A' for Active; 'I' for Inactive)
REMARK    1  A    between atoms: C_6  and  C_7
REMARK    2  A    between atoms: C_8  and  C_9
REMARK    3  A    between atoms: C_12  and  O_13
REMARK    4  A    between atoms: O_13  and  C_14
REMARK    5  A    between atoms: C_14  and  C_15
REMARK                            x       y       z     vdW  Elec       q    Type
REMARK                         _______ _______ _______ _____ _____    ______ ____
ROOT
ATOM      1  C   UNL     1       3.595   5.114  17.602  0.00  0.00    +0.000 A 
ATOM      2  C   UNL     1       3.562   6.488  17.806  0.00  0.00    +0.000 A 
ATOM      3  N   UNL     1       4.572   7.013  17.025  0.00  0.00    +0.000 N 
ATOM      4  C   UNL     1       5.216   6.023  16.317  0.00  0.00    +0.000 A 
ATOM      5  C   UNL     1       6.277   6.100  15.407  0.00  0.00    +0.000 A 
ATOM      6  C   UNL     1       6.722   4.906  14.828  0.00  0.00    +0.000 A 
ATOM      7  C   UNL     1       6.134   3.685  15.151  0.00  0.00    +0.000 A 
ATOM      8  C   UNL     1       5.084   3.624  16.070  0.00  0.00    +0.000 A 
ATOM      9  C   UNL     1       4.617   4.814  16.662  0.00  0.00    +0.000 A 
ATOM     10  H   UNL     1       4.821   7.991  16.987  0.00  0.00    +0.000 HD
ENDROOT
BRANCH   1  16
ATOM     11  O   UNL     1       1.680   1.464  20.070  0.00  0.00    +0.000 OA
ATOM     12  C   UNL     1       1.791   2.454  19.372  0.00  0.00    +0.000 C 
ATOM     13  N   UNL     1       0.814   3.016  18.628  0.00  0.00    +0.000 N 
ATOM     14  C   UNL     1       1.320   3.974  17.824  0.00  0.00    +0.000 C 
ATOM     15  O   UNL     1       0.737   4.513  16.904  0.00  0.00    +0.000 OA
ATOM     16  C   UNL     1       2.741   4.154  18.203  0.00  0.00    +0.000 C 
ATOM     17  C   UNL     1       3.020   3.235  19.133  0.00  0.00    +0.000 C 
ATOM     18 BR   UNL     1       4.604   2.889  19.992  0.00  0.00    +0.000 Br
ATOM     19  H   UNL     1      -0.113   2.631  18.532  0.00  0.00    +0.000 HD
ENDBRANCH   1  16
BRANCH   2  20
ATOM     20  C   UNL     1       2.707   7.312  18.667  0.00  0.00    +0.000 A 
ATOM     21  C   UNL     1       2.418   6.870  19.959  0.00  0.00    +0.000 A 
ATOM     22  C   UNL     1       1.529   7.548  20.776  0.00  0.00    +0.000 A 
ATOM     23  C   UNL     1       0.990   8.760  20.361  0.00  0.00    +0.000 A 
ATOM     24  C   UNL     1       1.276   9.235  19.081  0.00  0.00    +0.000 A 
ATOM     25  C   UNL     1       2.128   8.512  18.232  0.00  0.00    +0.000 A 
BRANCH  23  26
ATOM     26  O   UNL     1       0.198   9.547  21.153  0.00  0.00    +0.000 OA
BRANCH  26  27
ATOM     27  C   UNL     1       0.151  10.915  20.735  0.00  0.00    +0.000 C 
BRANCH  27  28
ATOM     28  C   UNL     1      -1.076  11.563  21.302  0.00  0.00    +0.000 A 
ATOM     29  C   UNL     1      -1.354  11.485  22.672  0.00  0.00    +0.000 A 
ATOM     30  C   UNL     1      -2.496  12.095  23.184  0.00  0.00    +0.000 A 
ATOM     31  C   UNL     1      -3.363  12.780  22.337  0.00  0.00    +0.000 A 
ATOM     32  C   UNL     1      -3.095  12.859  20.970  0.00  0.00    +0.000 A 
ATOM     33  C   UNL     1      -1.956  12.249  20.453  0.00  0.00    +0.000 A 
ENDBRANCH  27  28
ENDBRANCH  26  27
ENDBRANCH  23  26
ENDBRANCH   2  20
TORSDOF 5
ENDMDL
MODEL 4
REMARK VINA RESULT:      -8.6      1.550      2.156
REMARK  Name = 
REMARK  5 active torsions:
REMARK  status: ('A' for Active; 'I' for Inactive)
REMARK    1  A    between atoms: C_6  and  C_7
REMARK    2  A    between atoms: C_8  and  C_9
REMARK    3  A    between atoms: C_12  and  O_13
REMARK    4  A    between atoms: O_13  and  C_14
REMARK    5  A    between atoms: C_14  and  C_15
REMARK                            x       y       z     vdW  Elec       q    Type
REMARK                         _______ _______ _______ _____ _____    ______ ____
ROOT
ATOM      1  C   UNL     1       3.607   5.152  17.572  0.00  0.00    +0.000 A 
ATOM      2  C   UNL     1       3.532   6.535  17.679  0.00  0.00    +0.000 A 
ATOM      3  N   UNL     1       4.562   7.033  16.907  0.00  0.00    +0.000 N 
ATOM      4  C   UNL     1       5.261   6.015  16.296  0.00  0.00    +0.000 A 
ATOM      5  C   UNL     1       6.358   6.059  15.429  0.00  0.00    +0.000 A 
ATOM      6  C   UNL     1       6.856   4.841  14.952  0.00  0.00    +0.000 A 
ATOM      7  C   UNL     1       6.285   3.629  15.334  0.00  0.00    +0.000 A 
ATOM      8  C   UNL     1       5.198   3.602  16.210  0.00  0.00    +0.000 A 
ATOM      9  C   UNL     1       4.676   4.816  16.698  0.00  0.00    +0.000 A 
ATOM     10  H   UNL     1       4.789   8.012  16.812  0.00  0.00    +0.000 HD
ENDROOT
BRANCH   1  16
ATOM     11  O   UNL     1       1.687   1.580  20.148  0.00  0.00    +0.000 OA
ATOM     12  C   UNL     1       1.799   2.549  19.421  0.00  0.00    +0.000 C 
ATOM     13  N   UNL     1       0.823   3.091  18.662  0.00  0.00    +0.000 N 
ATOM     14  C   UNL     1       1.331   4.023  17.829  0.00  0.00    +0.000 C 
ATOM     15  O   UNL     1       0.748   4.536  16.895  0.00  0.00    +0.000 OA
ATOM     16  C   UNL     1       2.752   4.211  18.201  0.00  0.00    +0.000 C 
ATOM     17  C   UNL     1       3.030   3.320  19.159  0.00  0.00    +0.000 C 
ATOM     18 BR   UNL     1       4.614   2.996  20.026  0.00  0.00    +0.000 Br
ATOM     19  H   UNL     1      -0.105   2.705  18.578  0.00  0.00    +0.000 HD
ENDBRANCH   1  16
BRANCH   2  20
ATOM     20  C   UNL     1       2.620   7.392  18.445  0.00  0.00    +0.000 A 
ATOM     21  C   UNL     1       2.020   8.481  17.811  0.00  0.00    +0.000 A 
ATOM     22  C   UNL     1       1.240   9.387  18.510  0.00  0.00    +0.000 A 
ATOM     23  C   UNL     1       0.943   9.161  19.848  0.00  0.00    +0.000 A 
ATOM     24  C   UNL     1       1.514   8.069  20.502  0.00  0.00    +0.000 A 
ATOM     25  C   UNL     1       2.356   7.188  19.806  0.00  0.00    +0.000 A 
BRANCH  23  26
ATOM     26  O   UNL     1       0.087   9.942  20.576  0.00  0.00    +0.000 OA
BRANCH  26  27
ATOM     27  C   UNL     1       0.740  10.996  21.290  0.00  0.00    +0.000 C 
BRANCH  27  28
ATOM     28  C   UNL     1       0.755  12.233  20.443  0.00  0.00    +0.000 A 
ATOM     29  C   UNL     1       1.933  12.971  20.282  0.00  0.00    +0.000 A 
ATOM     30  C   UNL     1       1.931  14.116  19.489  0.00  0.00    +0.000 A 
ATOM     31  C   UNL     1       0.760  14.530  18.860  0.00  0.00    +0.000 A 
ATOM     32  C   UNL     1      -0.419  13.801  19.020  0.00  0.00    +0.000 A 
ATOM     33  C   UNL     1      -0.424  12.658  19.813  0.00  0.00    +0.000 A 
ENDBRANCH  27  28
ENDBRANCH  26  27
ENDBRANCH  23  26
ENDBRANCH   2  20
TORSDOF 5
ENDMDL
MODEL 5
REMARK VINA RESULT:      -8.6      1.530      2.267
REMARK  Name = 
REMARK  5 active torsions:
REMARK  status: ('A' for Active; 'I' for Inactive)
REMARK    1  A    between atoms: C_6  and  C_7
REMARK    2  A    between atoms: C_8  and  C_9
REMARK    3  A    between atoms: C_12  and  O_13
REMARK    4  A    between atoms: O_13  and  C_14
REMARK    5  A    between atoms: C_14  and  C_15
REMARK                            x       y       z     vdW  Elec       q    Type
REMARK                         _______ _______ _______ _____ _____    ______ ____
ROOT
ATOM      1  C   UNL     1       3.572   5.090  17.650  0.00  0.00    +0.000 A 
ATOM      2  C   UNL     1       3.512   6.462  17.863  0.00  0.00    +0.000 A 
ATOM      3  N   UNL     1       4.538   7.007  17.119  0.00  0.00    +0.000 N 
ATOM      4  C   UNL     1       5.219   6.032  16.424  0.00  0.00    +0.000 A 
ATOM      5  C   UNL     1       6.308   6.131  15.550  0.00  0.00    +0.000 A 
ATOM      6  C   UNL     1       6.789   4.948  14.978  0.00  0.00    +0.000 A 
ATOM      7  C   UNL     1       6.209   3.717  15.273  0.00  0.00    +0.000 A 
ATOM      8  C   UNL     1       5.132   3.633  16.158  0.00  0.00    +0.000 A 
ATOM      9  C   UNL     1       4.627   4.812  16.742  0.00  0.00    +0.000 A 
ATOM     10  H   UNL     1       4.773   7.989  17.095  0.00  0.00    +0.000 HD
ENDROOT
BRANCH   1  16
ATOM     11  O   UNL     1       1.639   1.376  20.007  0.00  0.00    +0.000 OA
ATOM     12  C   UNL     1       1.755   2.382  19.333  0.00  0.00    +0.000 C 
ATOM     13  N   UNL     1       0.786   2.959  18.591  0.00  0.00    +0.000 N 
ATOM     14  C   UNL     1       1.299   3.936  17.816  0.00  0.00    +0.000 C 
ATOM     15  O   UNL     1       0.726   4.495  16.902  0.00  0.00    +0.000 OA
ATOM     16  C   UNL     1       2.714   4.113  18.217  0.00  0.00    +0.000 C 
ATOM     17  C   UNL     1       2.984   3.173  19.130  0.00  0.00    +0.000 C 
ATOM     18 BR   UNL     1       4.558   2.812  20.001  0.00  0.00    +0.000 Br
ATOM     19  H   UNL     1      -0.138   2.572  18.473  0.00  0.00    +0.000 HD
ENDBRANCH   1  16
BRANCH   2  20
ATOM     20  C   UNL     1       2.616   7.267  18.702  0.00  0.00    +0.000 A 
ATOM     21  C   UNL     1       2.098   8.458  18.191  0.00  0.00    +0.000 A 
ATOM     22  C   UNL     1       1.340   9.313  18.974  0.00  0.00    +0.000 A 
ATOM     23  C   UNL     1       0.980   8.939  20.263  0.00  0.00    +0.000 A 
ATOM     24  C   UNL     1       1.469   7.743  20.792  0.00  0.00    +0.000 A 
ATOM     25  C   UNL     1       2.290   6.911  20.017  0.00  0.00    +0.000 A 
BRANCH  23  26
ATOM     26  O   UNL     1       0.138   9.670  21.057  0.00  0.00    +0.000 OA
BRANCH  26  27
ATOM     27  C   UNL     1      -0.495  10.756  20.372  0.00  0.00    +0.000 C 
BRANCH  27  28
ATOM     28  C   UNL     1      -0.603  11.929  21.299  0.00  0.00    +0.000 A 
ATOM     29  C   UNL     1       0.241  13.035  21.147  0.00  0.00    +0.000 A 
ATOM     30  C   UNL     1       0.127  14.120  22.013  0.00  0.00    +0.000 A 
ATOM     31  C   UNL     1      -0.823  14.105  23.032  0.00  0.00    +0.000 A 
ATOM     32  C   UNL     1      -1.665  13.004  23.191  0.00  0.00    +0.000 A 
ATOM     33  C   UNL     1      -1.553  11.917  22.329  0.00  0.00    +0.000 A 
ENDBRANCH  27  28
ENDBRANCH  26  27
ENDBRANCH  23  26
ENDBRANCH   2  20
TORSDOF 5
ENDMDL
MODEL 6
REMARK VINA RESULT:      -8.6      4.256      9.144
REMARK  Name = 
REMARK  5 active torsions:
REMARK  status: ('A' for Active; 'I' for Inactive)
REMARK    1  A    between atoms: C_6  and  C_7
REMARK    2  A    between atoms: C_8  and  C_9
REMARK    3  A    between atoms: C_12  and  O_13
REMARK    4  A    between atoms: O_13  and  C_14
REMARK    5  A    between atoms: C_14  and  C_15
REMARK                            x       y       z     vdW  Elec       q    Type
REMARK                         _______ _______ _______ _____ _____    ______ ____
ROOT
ATOM      1  C   UNL     1      -0.156  13.425  19.233  0.00  0.00    +0.000 A 
ATOM      2  C   UNL     1       0.954  12.596  19.338  0.00  0.00    +0.000 A 
ATOM      3  N   UNL     1       2.045  13.379  19.020  0.00  0.00    +0.000 N 
ATOM      4  C   UNL     1       1.664  14.674  18.749  0.00  0.00    +0.000 A 
ATOM      5  C   UNL     1       2.429  15.793  18.399  0.00  0.00    +0.000 A 
ATOM      6  C   UNL     1       1.753  17.001  18.191  0.00  0.00    +0.000 A 
ATOM      7  C   UNL     1       0.369  17.084  18.321  0.00  0.00    +0.000 A 
ATOM      8  C   UNL     1      -0.382  15.956  18.659  0.00  0.00    +0.000 A 
ATOM      9  C   UNL     1       0.278  14.730  18.878  0.00  0.00    +0.000 A 
ATOM     10  H   UNL     1       2.998  13.047  18.974  0.00  0.00    +0.000 HD
ENDROOT
BRANCH   1  16
ATOM     11  O   UNL     1      -4.520  12.576  21.054  0.00  0.00    +0.000 OA
ATOM     12  C   UNL     1      -3.590  12.657  20.274  0.00  0.00    +0.000 C 
ATOM     13  N   UNL     1      -3.539  12.118  19.037  0.00  0.00    +0.000 N 
ATOM     14  C   UNL     1      -2.296  12.224  18.524  0.00  0.00    +0.000 C 
ATOM     15  O   UNL     1      -1.887  11.661  17.528  0.00  0.00    +0.000 OA
ATOM     16  C   UNL     1      -1.506  13.056  19.461  0.00  0.00    +0.000 C 
ATOM     17  C   UNL     1      -2.290  13.313  20.514  0.00  0.00    +0.000 C 
ATOM     18 BR   UNL     1      -1.915  14.254  22.045  0.00  0.00    +0.000 Br
ATOM     19  H   UNL     1      -4.262  11.534  18.648  0.00  0.00    +0.000 HD
ENDBRANCH   1  16
BRANCH   2  20
ATOM     20  C   UNL     1       1.062  11.172  19.673  0.00  0.00    +0.000 A 
ATOM     21  C   UNL     1       0.839  10.766  20.990  0.00  0.00    +0.000 A 
ATOM     22  C   UNL     1       1.036   9.454  21.387  0.00  0.00    +0.000 A 
ATOM     23  C   UNL     1       1.350   8.482  20.445  0.00  0.00    +0.000 A 
ATOM     24  C   UNL     1       1.559   8.857  19.117  0.00  0.00    +0.000 A 
ATOM     25  C   UNL     1       1.422  10.199  18.731  0.00  0.00    +0.000 A 
BRANCH  23  26
ATOM     26  O   UNL     1       1.445   7.148  20.736  0.00  0.00    +0.000 OA
BRANCH  26  27
ATOM     27  C   UNL     1       2.431   6.461  19.959  0.00  0.00    +0.000 C 
BRANCH  27  28
ATOM     28  C   UNL     1       1.920   5.097  19.605  0.00  0.00    +0.000 A 
ATOM     29  C   UNL     1       1.344   4.277  20.582  0.00  0.00    +0.000 A 
ATOM     30  C   UNL     1       0.871   3.014  20.238  0.00  0.00    +0.000 A 
ATOM     31  C   UNL     1       0.972   2.563  18.924  0.00  0.00    +0.000 A 
ATOM     32  C   UNL     1       1.548   3.374  17.945  0.00  0.00    +0.000 A 
ATOM     33  C   UNL     1       2.024   4.636  18.285  0.00  0.00    +0.000 A 
ENDBRANCH  27  28
ENDBRANCH  26  27
ENDBRANCH  23  26
ENDBRANCH   2  20
TORSDOF 5
ENDMDL
MODEL 7
REMARK VINA RESULT:      -8.5      4.281      9.119
REMARK  Name = 
REMARK  5 active torsions:
REMARK  status: ('A' for Active; 'I' for Inactive)
REMARK    1  A    between atoms: C_6  and  C_7
REMARK    2  A    between atoms: C_8  and  C_9
REMARK    3  A    between atoms: C_12  and  O_13
REMARK    4  A    between atoms: O_13  and  C_14
REMARK    5  A    between atoms: C_14  and  C_15
REMARK                            x       y       z     vdW  Elec       q    Type
REMARK                         _______ _______ _______ _____ _____    ______ ____
ROOT
ATOM      1  C   UNL     1      -0.132  13.491  19.282  0.00  0.00    +0.000 A 
ATOM      2  C   UNL     1       0.990  12.686  19.432  0.00  0.00    +0.000 A 
ATOM      3  N   UNL     1       2.074  13.480  19.116  0.00  0.00    +0.000 N 
ATOM      4  C   UNL     1       1.675  14.761  18.803  0.00  0.00    +0.000 A 
ATOM      5  C   UNL     1       2.427  15.883  18.438  0.00  0.00    +0.000 A 
ATOM      6  C   UNL     1       1.735  17.073  18.185  0.00  0.00    +0.000 A 
ATOM      7  C   UNL     1       0.347  17.134  18.285  0.00  0.00    +0.000 A 
ATOM      8  C   UNL     1      -0.390  16.002  18.637  0.00  0.00    +0.000 A 
ATOM      9  C   UNL     1       0.286  14.795  18.903  0.00  0.00    +0.000 A 
ATOM     10  H   UNL     1       3.033  13.165  19.098  0.00  0.00    +0.000 HD
ENDROOT
BRANCH   1  16
ATOM     11  O   UNL     1      -4.508  12.583  21.046  0.00  0.00    +0.000 OA
ATOM     12  C   UNL     1      -3.568  12.677  20.279  0.00  0.00    +0.000 C 
ATOM     13  N   UNL     1      -3.493  12.138  19.043  0.00  0.00    +0.000 N 
ATOM     14  C   UNL     1      -2.245  12.260  18.546  0.00  0.00    +0.000 C 
ATOM     15  O   UNL     1      -1.815  11.703  17.556  0.00  0.00    +0.000 OA
ATOM     16  C   UNL     1      -1.480  13.104  19.493  0.00  0.00    +0.000 C 
ATOM     17  C   UNL     1      -2.281  13.350  20.536  0.00  0.00    +0.000 C 
ATOM     18 BR   UNL     1      -1.939  14.297  22.070  0.00  0.00    +0.000 Br
ATOM     19  H   UNL     1      -4.203  11.544  18.644  0.00  0.00    +0.000 HD
ENDBRANCH   1  16
BRANCH   2  20
ATOM     20  C   UNL     1       1.116  11.273  19.807  0.00  0.00    +0.000 A 
ATOM     21  C   UNL     1       1.427  10.334  18.821  0.00  0.00    +0.000 A 
ATOM     22  C   UNL     1       1.448   8.976  19.094  0.00  0.00    +0.000 A 
ATOM     23  C   UNL     1       1.274   8.527  20.397  0.00  0.00    +0.000 A 
ATOM     24  C   UNL     1       0.981   9.445  21.406  0.00  0.00    +0.000 A 
ATOM     25  C   UNL     1       0.896  10.815  21.113  0.00  0.00    +0.000 A 
BRANCH  23  26
ATOM     26  O   UNL     1       1.397   7.215  20.769  0.00  0.00    +0.000 OA
BRANCH  26  27
ATOM     27  C   UNL     1       2.435   6.519  20.072  0.00  0.00    +0.000 C 
BRANCH  27  28
ATOM     28  C   UNL     1       1.931   5.170  19.653  0.00  0.00    +0.000 A 
ATOM     29  C   UNL     1       2.010   4.765  18.316  0.00  0.00    +0.000 A 
ATOM     30  C   UNL     1       1.541   3.509  17.942  0.00  0.00    +0.000 A 
ATOM     31  C   UNL     1       0.990   2.656  18.896  0.00  0.00    +0.000 A 
ATOM     32  C   UNL     1       0.904   3.055  20.230  0.00  0.00    +0.000 A 
ATOM     33  C   UNL     1       1.370   4.310  20.608  0.00  0.00    +0.000 A 
ENDBRANCH  27  28
ENDBRANCH  26  27
ENDBRANCH  23  26
ENDBRANCH   2  20
TORSDOF 5
ENDMDL
MODEL 8
REMARK VINA RESULT:      -8.4      1.566      2.334
REMARK  Name = 
REMARK  5 active torsions:
REMARK  status: ('A' for Active; 'I' for Inactive)
REMARK    1  A    between atoms: C_6  and  C_7
REMARK    2  A    between atoms: C_8  and  C_9
REMARK    3  A    between atoms: C_12  and  O_13
REMARK    4  A    between atoms: O_13  and  C_14
REMARK    5  A    between atoms: C_14  and  C_15
REMARK                            x       y       z     vdW  Elec       q    Type
REMARK                         _______ _______ _______ _____ _____    ______ ____
ROOT
ATOM      1  C   UNL     1       3.604   5.216  17.551  0.00  0.00    +0.000 A 
ATOM      2  C   UNL     1       3.551   6.604  17.604  0.00  0.00    +0.000 A 
ATOM      3  N   UNL     1       4.568   7.055  16.787  0.00  0.00    +0.000 N 
ATOM      4  C   UNL     1       5.236   6.003  16.201  0.00  0.00    +0.000 A 
ATOM      5  C   UNL     1       6.312   5.995  15.306  0.00  0.00    +0.000 A 
ATOM      6  C   UNL     1       6.781   4.751  14.867  0.00  0.00    +0.000 A 
ATOM      7  C   UNL     1       6.202   3.565  15.311  0.00  0.00    +0.000 A 
ATOM      8  C   UNL     1       5.137   3.589  16.214  0.00  0.00    +0.000 A 
ATOM      9  C   UNL     1       4.645   4.830  16.665  0.00  0.00    +0.000 A 
ATOM     10  H   UNL     1       4.806   8.026  16.647  0.00  0.00    +0.000 HD
ENDROOT
BRANCH   1  16
ATOM     11  O   UNL     1       1.693   1.812  20.351  0.00  0.00    +0.000 OA
ATOM     12  C   UNL     1       1.802   2.731  19.562  0.00  0.00    +0.000 C 
ATOM     13  N   UNL     1       0.826   3.218  18.767  0.00  0.00    +0.000 N 
ATOM     14  C   UNL     1       1.331   4.096  17.876  0.00  0.00    +0.000 C 
ATOM     15  O   UNL     1       0.749   4.544  16.909  0.00  0.00    +0.000 OA
ATOM     16  C   UNL     1       2.751   4.315  18.239  0.00  0.00    +0.000 C 
ATOM     17  C   UNL     1       3.030   3.489  19.253  0.00  0.00    +0.000 C 
ATOM     18 BR   UNL     1       4.614   3.231  20.144  0.00  0.00    +0.000 Br
ATOM     19  H   UNL     1      -0.100   2.823  18.706  0.00  0.00    +0.000 HD
ENDBRANCH   1  16
BRANCH   2  20
ATOM     20  C   UNL     1       2.671   7.504  18.357  0.00  0.00    +0.000 A 
ATOM     21  C   UNL     1       2.431   7.246  19.708  0.00  0.00    +0.000 A 
ATOM     22  C   UNL     1       1.524   7.995  20.439  0.00  0.00    +0.000 A 
ATOM     23  C   UNL     1       0.915   9.103  19.864  0.00  0.00    +0.000 A 
ATOM     24  C   UNL     1       1.151   9.396  18.520  0.00  0.00    +0.000 A 
ATOM     25  C   UNL     1       2.023   8.596  17.765  0.00  0.00    +0.000 A 
BRANCH  23  26
ATOM     26  O   UNL     1       0.100   9.961  20.552  0.00  0.00    +0.000 OA
BRANCH  26  27
ATOM     27  C   UNL     1       0.807  11.001  21.234  0.00  0.00    +0.000 C 
BRANCH  27  28
ATOM     28  C   UNL     1       0.750  12.257  20.418  0.00  0.00    +0.000 A 
ATOM     29  C   UNL     1      -0.476  12.756  19.965  0.00  0.00    +0.000 A 
ATOM     30  C   UNL     1      -0.514  13.925  19.210  0.00  0.00    +0.000 A 
ATOM     31  C   UNL     1       0.666  14.597  18.902  0.00  0.00    +0.000 A 
ATOM     32  C   UNL     1       1.893  14.103  19.347  0.00  0.00    +0.000 A 
ATOM     33  C   UNL     1       1.936  12.933  20.099  0.00  0.00    +0.000 A 
ENDBRANCH  27  28
ENDBRANCH  26  27
ENDBRANCH  23  26
ENDBRANCH   2  20
TORSDOF 5
ENDMDL
MODEL 9
REMARK VINA RESULT:      -8.4      1.853      2.394
REMARK  Name = 
REMARK  5 active torsions:
REMARK  status: ('A' for Active; 'I' for Inactive)
REMARK    1  A    between atoms: C_6  and  C_7
REMARK    2  A    between atoms: C_8  and  C_9
REMARK    3  A    between atoms: C_12  and  O_13
REMARK    4  A    between atoms: O_13  and  C_14
REMARK    5  A    between atoms: C_14  and  C_15
REMARK                            x       y       z     vdW  Elec       q    Type
REMARK                         _______ _______ _______ _____ _____    ______ ____
ROOT
ATOM      1  C   UNL     1       4.128   5.055  17.546  0.00  0.00    +0.000 A 
ATOM      2  C   UNL     1       3.765   6.395  17.492  0.00  0.00    +0.000 A 
ATOM      3  N   UNL     1       4.456   6.933  16.425  0.00  0.00    +0.000 N 
ATOM      4  C   UNL     1       5.215   5.974  15.791  0.00  0.00    +0.000 A 
ATOM      5  C   UNL     1       6.052   6.070  14.674  0.00  0.00    +0.000 A 
ATOM      6  C   UNL     1       6.696   4.904  14.245  0.00  0.00    +0.000 A 
ATOM      7  C   UNL     1       6.515   3.694  14.911  0.00  0.00    +0.000 A 
ATOM      8  C   UNL     1       5.686   3.618  16.032  0.00  0.00    +0.000 A 
ATOM      9  C   UNL     1       5.023   4.778  16.478  0.00  0.00    +0.000 A 
ATOM     10  H   UNL     1       4.427   7.905  16.151  0.00  0.00    +0.000 HD
ENDROOT
BRANCH   1  16
ATOM     11  O   UNL     1       1.559   2.089  20.318  0.00  0.00    +0.000 OA
ATOM     12  C   UNL     1       2.499   2.664  19.804  0.00  0.00    +0.000 C 
ATOM     13  N   UNL     1       3.782   2.624  20.221  0.00  0.00    +0.000 N 
ATOM     14  C   UNL     1       4.529   3.528  19.553  0.00  0.00    +0.000 C 
ATOM     15  O   UNL     1       5.659   3.869  19.840  0.00  0.00    +0.000 OA
ATOM     16  C   UNL     1       3.672   4.097  18.487  0.00  0.00    +0.000 C 
ATOM     17  C   UNL     1       2.450   3.575  18.644  0.00  0.00    +0.000 C 
ATOM     18 BR   UNL     1       0.917   3.890  17.686  0.00  0.00    +0.000 Br
ATOM     19  H   UNL     1       4.088   2.145  21.054  0.00  0.00    +0.000 HD
ENDBRANCH   1  16
BRANCH   2  20
ATOM     20  C   UNL     1       2.876   7.186  18.349  0.00  0.00    +0.000 A 
ATOM     21  C   UNL     1       2.292   8.345  17.836  0.00  0.00    +0.000 A 
ATOM     22  C   UNL     1       1.535   9.190  18.631  0.00  0.00    +0.000 A 
ATOM     23  C   UNL     1       1.243   8.832  19.942  0.00  0.00    +0.000 A 
ATOM     24  C   UNL     1       1.798   7.668  20.475  0.00  0.00    +0.000 A 
ATOM     25  C   UNL     1       2.617   6.849  19.685  0.00  0.00    +0.000 A 
BRANCH  23  26
ATOM     26  O   UNL     1       0.408   9.551  20.754  0.00  0.00    +0.000 OA
BRANCH  26  27
ATOM     27  C   UNL     1       0.143  10.873  20.276  0.00  0.00    +0.000 C 
BRANCH  27  28
ATOM     28  C   UNL     1      -0.975  11.474  21.075  0.00  0.00    +0.000 A 
ATOM     29  C   UNL     1      -1.067  11.244  22.453  0.00  0.00    +0.000 A 
ATOM     30  C   UNL     1      -2.109  11.811  23.183  0.00  0.00    +0.000 A 
ATOM     31  C   UNL     1      -3.060  12.603  22.544  0.00  0.00    +0.000 A 
ATOM     32  C   UNL     1      -2.976  12.832  21.171  0.00  0.00    +0.000 A 
ATOM     33  C   UNL     1      -1.939  12.266  20.437  0.00  0.00    +0.000 A 
ENDBRANCH  27  28
ENDBRANCH  26  27
ENDBRANCH  23  26
ENDBRANCH   2  20
TORSDOF 5
ENDMDL
