MODEL 1
REMARK VINA RESULT:      -8.5      0.000      0.000
REMARK  Name = 
REMARK  8 active torsions:
REMARK  status: ('A' for Active; 'I' for Inactive)
REMARK    1  A    between atoms: C_1  and  C_2
REMARK    2  A    between atoms: C_2  and  C_3
REMARK    3  A    between atoms: C_2  and  N_18
REMARK    4  A    between atoms: C_3  and  C_4
REMARK    5  A    between atoms: C_7  and  O_8
REMARK    6  A    between atoms: O_8  and  C_9
REMARK    7  A    between atoms: C_9  and  C_10
REMARK    8  A    between atoms: C_21  and  O_22
REMARK                            x       y       z     vdW  Elec       q    Type
REMARK                         _______ _______ _______ _____ _____    ______ ____
ROOT
ATOM      1  C   UNL     1       1.535   4.200  18.419  0.00  0.00    +0.000 C 
ATOM      2  C   UNL     1       2.584   4.895  19.306  0.00  0.00    +0.000 C 
ENDROOT
BRANCH   2   3
ATOM      3  N   UNL     1       2.932   6.195  18.733  0.00  0.00    +0.000 N 
ATOM      4  C   UNL     1       2.253   7.324  19.162  0.00  0.00    +0.000 A 
ATOM      5  N   UNL     1       2.002   8.213  18.197  0.00  0.00    +0.000 NA
ATOM      6  C   UNL     1       1.281   9.276  18.562  0.00  0.00    +0.000 A 
ATOM      7  C   UNL     1       0.796   9.532  19.831  0.00  0.00    +0.000 A 
ATOM      8  C   UNL     1      -0.023  10.638  20.169  0.00  0.00    +0.000 A 
ATOM      9  C   UNL     1      -0.377  10.864  21.493  0.00  0.00    +0.000 A 
ATOM     10  C   UNL     1       0.112  10.009  22.472  0.00  0.00    +0.000 A 
ATOM     11  C   UNL     1       0.889   8.893  22.111  0.00  0.00    +0.000 A 
ATOM     12  C   UNL     1       1.211   8.608  20.785  0.00  0.00    +0.000 A 
ATOM     13  N   UNL     1       1.907   7.494  20.447  0.00  0.00    +0.000 NA
ATOM     14  H   UNL     1       2.932   6.230  17.720  0.00  0.00    +0.000 HD
BRANCH   6  15
ATOM     15  O   UNL     1       1.122  10.188  17.560  0.00  0.00    +0.000 OA
ATOM     16  H   UNL     1       1.724  10.889  17.868  0.00  0.00    +0.000 HD
ENDBRANCH   6  15
ENDBRANCH   2   3
BRANCH   2  17
ATOM     17  C   UNL     1       3.838   3.978  19.352  0.00  0.00    +0.000 C 
BRANCH  17  18
ATOM     18  C   UNL     1       4.845   4.113  18.230  0.00  0.00    +0.000 A 
ATOM     19  C   UNL     1       4.593   3.602  16.954  0.00  0.00    +0.000 A 
ATOM     20  C   UNL     1       5.523   3.778  15.919  0.00  0.00    +0.000 A 
ATOM     21  C   UNL     1       6.707   4.486  16.129  0.00  0.00    +0.000 A 
ATOM     22  C   UNL     1       6.963   5.003  17.399  0.00  0.00    +0.000 A 
ATOM     23  C   UNL     1       6.037   4.821  18.437  0.00  0.00    +0.000 A 
BRANCH  21  24
ATOM     24  O   UNL     1       7.544   4.579  15.046  0.00  0.00    +0.000 OA
BRANCH  24  25
ATOM     25  C   UNL     1       6.957   5.088  13.844  0.00  0.00    +0.000 C 
BRANCH  25  26
ATOM     26  C   UNL     1       6.478   3.999  12.900  0.00  0.00    +0.000 A 
ATOM     27  C   UNL     1       7.343   3.135  12.215  0.00  0.00    +0.000 A 
ATOM     28  C   UNL     1       6.841   2.174  11.333  0.00  0.00    +0.000 A 
ATOM     29  C   UNL     1       5.469   2.067  11.115  0.00  0.00    +0.000 A 
ATOM     30  C   UNL     1       4.594   2.919  11.786  0.00  0.00    +0.000 A 
ATOM     31  C   UNL     1       5.095   3.876  12.671  0.00  0.00    +0.000 A 
ENDBRANCH  25  26
ENDBRANCH  24  25
ENDBRANCH  21  24
ENDBRANCH  17  18
ENDBRANCH   2  17
TORSDOF 7
ENDMDL
MODEL 2
REMARK VINA RESULT:      -8.4      0.521      1.344
REMARK  Name = 
REMARK  8 active torsions:
REMARK  status: ('A' for Active; 'I' for Inactive)
REMARK    1  A    between atoms: C_1  and  C_2
REMARK    2  A    between atoms: C_2  and  C_3
REMARK    3  A    between atoms: C_2  and  N_18
REMARK    4  A    between atoms: C_3  and  C_4
REMARK    5  A    between atoms: C_7  and  O_8
REMARK    6  A    between atoms: O_8  and  C_9
REMARK    7  A    between atoms: C_9  and  C_10
REMARK    8  A    between atoms: C_21  and  O_22
REMARK                            x       y       z     vdW  Elec       q    Type
REMARK                         _______ _______ _______ _____ _____    ______ ____
ROOT
ATOM      1  C   UNL     1       1.778   4.705  18.433  0.00  0.00    +0.000 C 
ATOM      2  C   UNL     1       2.684   5.479  19.406  0.00  0.00    +0.000 C 
ENDROOT
BRANCH   2   3
ATOM      3  N   UNL     1       2.909   6.833  18.902  0.00  0.00    +0.000 N 
ATOM      4  C   UNL     1       2.113   7.867  19.369  0.00  0.00    +0.000 A 
ATOM      5  N   UNL     1       1.790   8.773  18.441  0.00  0.00    +0.000 NA
ATOM      6  C   UNL     1       0.959   9.740  18.840  0.00  0.00    +0.000 A 
ATOM      7  C   UNL     1       0.430   9.883  20.108  0.00  0.00    +0.000 A 
ATOM      8  C   UNL     1      -0.502  10.885  20.480  0.00  0.00    +0.000 A 
ATOM      9  C   UNL     1      -0.899  11.010  21.806  0.00  0.00    +0.000 A 
ATOM     10  C   UNL     1      -0.342  10.162  22.753  0.00  0.00    +0.000 A 
ATOM     11  C   UNL     1       0.549   9.148  22.358  0.00  0.00    +0.000 A 
ATOM     12  C   UNL     1       0.920   8.961  21.027  0.00  0.00    +0.000 A 
ATOM     13  N   UNL     1       1.730   7.939  20.652  0.00  0.00    +0.000 NA
ATOM     14  H   UNL     1       2.922   6.918  17.893  0.00  0.00    +0.000 HD
BRANCH   6  15
ATOM     15  O   UNL     1       0.726  10.678  17.878  0.00  0.00    +0.000 OA
ATOM     16  H   UNL     1      -0.111  10.344  17.511  0.00  0.00    +0.000 HD
ENDBRANCH   6  15
ENDBRANCH   2   3
BRANCH   2  17
ATOM     17  C   UNL     1       4.033   4.713  19.499  0.00  0.00    +0.000 C 
BRANCH  17  18
ATOM     18  C   UNL     1       4.909   4.687  18.265  0.00  0.00    +0.000 A 
ATOM     19  C   UNL     1       5.988   5.562  18.113  0.00  0.00    +0.000 A 
ATOM     20  C   UNL     1       6.812   5.488  16.980  0.00  0.00    +0.000 A 
ATOM     21  C   UNL     1       6.591   4.529  15.992  0.00  0.00    +0.000 A 
ATOM     22  C   UNL     1       5.519   3.648  16.139  0.00  0.00    +0.000 A 
ATOM     23  C   UNL     1       4.689   3.726  17.267  0.00  0.00    +0.000 A 
BRANCH  21  24
ATOM     24  O   UNL     1       7.453   4.565  14.924  0.00  0.00    +0.000 OA
BRANCH  24  25
ATOM     25  C   UNL     1       6.908   5.059  13.697  0.00  0.00    +0.000 C 
BRANCH  25  26
ATOM     26  C   UNL     1       6.475   3.959  12.744  0.00  0.00    +0.000 A 
ATOM     27  C   UNL     1       5.133   3.630  12.505  0.00  0.00    +0.000 A 
ATOM     28  C   UNL     1       4.799   2.582  11.641  0.00  0.00    +0.000 A 
ATOM     29  C   UNL     1       5.798   1.843  11.012  0.00  0.00    +0.000 A 
ATOM     30  C   UNL     1       7.137   2.154  11.241  0.00  0.00    +0.000 A 
ATOM     31  C   UNL     1       7.471   3.203  12.100  0.00  0.00    +0.000 A 
ENDBRANCH  25  26
ENDBRANCH  24  25
ENDBRANCH  21  24
ENDBRANCH  17  18
ENDBRANCH   2  17
TORSDOF 7
ENDMDL
MODEL 3
REMARK VINA RESULT:      -8.4      2.323      9.146
REMARK  Name = 
REMARK  8 active torsions:
REMARK  status: ('A' for Active; 'I' for Inactive)
REMARK    1  A    between atoms: C_1  and  C_2
REMARK    2  A    between atoms: C_2  and  C_3
REMARK    3  A    between atoms: C_2  and  N_18
REMARK    4  A    between atoms: C_3  and  C_4
REMARK    5  A    between atoms: C_7  and  O_8
REMARK    6  A    between atoms: O_8  and  C_9
REMARK    7  A    between atoms: C_9  and  C_10
REMARK    8  A    between atoms: C_21  and  O_22
REMARK                            x       y       z     vdW  Elec       q    Type
REMARK                         _______ _______ _______ _____ _____    ______ ____
ROOT
ATOM      1  C   UNL     1       2.471   3.630  20.204  0.00  0.00    +0.000 C 
ATOM      2  C   UNL     1       2.569   5.135  19.894  0.00  0.00    +0.000 C 
ENDROOT
BRANCH   2   3
ATOM      3  N   UNL     1       3.961   5.572  19.999  0.00  0.00    +0.000 N 
ATOM      4  C   UNL     1       4.815   5.364  18.928  0.00  0.00    +0.000 A 
ATOM      5  N   UNL     1       6.060   5.025  19.277  0.00  0.00    +0.000 NA
ATOM      6  C   UNL     1       6.888   4.743  18.268  0.00  0.00    +0.000 A 
ATOM      7  C   UNL     1       6.572   4.783  16.923  0.00  0.00    +0.000 A 
ATOM      8  C   UNL     1       7.457   4.412  15.880  0.00  0.00    +0.000 A 
ATOM      9  C   UNL     1       7.081   4.584  14.553  0.00  0.00    +0.000 A 
ATOM     10  C   UNL     1       5.846   5.152  14.276  0.00  0.00    +0.000 A 
ATOM     11  C   UNL     1       4.965   5.475  15.325  0.00  0.00    +0.000 A 
ATOM     12  C   UNL     1       5.291   5.259  16.663  0.00  0.00    +0.000 A 
ATOM     13  N   UNL     1       4.407   5.516  17.660  0.00  0.00    +0.000 NA
ATOM     14  H   UNL     1       4.451   5.242  20.823  0.00  0.00    +0.000 HD
BRANCH   6  15
ATOM     15  O   UNL     1       8.162   4.481  18.676  0.00  0.00    +0.000 OA
ATOM     16  H   UNL     1       8.516   5.387  18.726  0.00  0.00    +0.000 HD
ENDBRANCH   6  15
ENDBRANCH   2   3
BRANCH   2  17
ATOM     17  C   UNL     1       1.693   5.885  20.935  0.00  0.00    +0.000 C 
BRANCH  17  18
ATOM     18  C   UNL     1       1.312   7.317  20.627  0.00  0.00    +0.000 A 
ATOM     19  C   UNL     1       0.573   8.090  21.527  0.00  0.00    +0.000 A 
ATOM     20  C   UNL     1       0.271   9.428  21.237  0.00  0.00    +0.000 A 
ATOM     21  C   UNL     1       0.719  10.027  20.059  0.00  0.00    +0.000 A 
ATOM     22  C   UNL     1       1.462   9.264  19.159  0.00  0.00    +0.000 A 
ATOM     23  C   UNL     1       1.758   7.923  19.444  0.00  0.00    +0.000 A 
BRANCH  21  24
ATOM     24  O   UNL     1       0.347  11.336  19.880  0.00  0.00    +0.000 OA
BRANCH  24  25
ATOM     25  C   UNL     1      -0.076  11.692  18.559  0.00  0.00    +0.000 C 
BRANCH  25  26
ATOM     26  C   UNL     1      -1.523  11.332  18.274  0.00  0.00    +0.000 A 
ATOM     27  C   UNL     1      -2.612  12.010  18.839  0.00  0.00    +0.000 A 
ATOM     28  C   UNL     1      -3.923  11.608  18.562  0.00  0.00    +0.000 A 
ATOM     29  C   UNL     1      -4.165  10.520  17.727  0.00  0.00    +0.000 A 
ATOM     30  C   UNL     1      -3.094   9.833  17.159  0.00  0.00    +0.000 A 
ATOM     31  C   UNL     1      -1.785  10.237  17.431  0.00  0.00    +0.000 A 
ENDBRANCH  25  26
ENDBRANCH  24  25
ENDBRANCH  21  24
ENDBRANCH  17  18
ENDBRANCH   2  17
TORSDOF 7
ENDMDL
MODEL 4
REMARK VINA RESULT:      -8.3      2.986      8.681
REMARK  Name = 
REMARK  8 active torsions:
REMARK  status: ('A' for Active; 'I' for Inactive)
REMARK    1  A    between atoms: C_1  and  C_2
REMARK    2  A    between atoms: C_2  and  C_3
REMARK    3  A    between atoms: C_2  and  N_18
REMARK    4  A    between atoms: C_3  and  C_4
REMARK    5  A    between atoms: C_7  and  O_8
REMARK    6  A    between atoms: O_8  and  C_9
REMARK    7  A    between atoms: C_9  and  C_10
REMARK    8  A    between atoms: C_21  and  O_22
REMARK                            x       y       z     vdW  Elec       q    Type
REMARK                         _______ _______ _______ _____ _____    ______ ____
ROOT
ATOM      1  C   UNL     1       4.127   2.775  19.745  0.00  0.00    +0.000 C 
ATOM      2  C   UNL     1       3.378   2.233  18.516  0.00  0.00    +0.000 C 
ENDROOT
BRANCH   2   3
ATOM      3  N   UNL     1       4.169   2.473  17.309  0.00  0.00    +0.000 N 
ATOM      4  C   UNL     1       5.009   3.574  17.261  0.00  0.00    +0.000 A 
ATOM      5  N   UNL     1       5.058   4.176  16.070  0.00  0.00    +0.000 NA
ATOM      6  C   UNL     1       5.798   5.286  16.011  0.00  0.00    +0.000 A 
ATOM      7  C   UNL     1       6.511   5.843  17.056  0.00  0.00    +0.000 A 
ATOM      8  C   UNL     1       7.233   7.060  16.977  0.00  0.00    +0.000 A 
ATOM      9  C   UNL     1       8.002   7.486  18.053  0.00  0.00    +0.000 A 
ATOM     10  C   UNL     1       8.072   6.684  19.183  0.00  0.00    +0.000 A 
ATOM     11  C   UNL     1       7.315   5.501  19.259  0.00  0.00    +0.000 A 
ATOM     12  C   UNL     1       6.489   5.078  18.218  0.00  0.00    +0.000 A 
ATOM     13  N   UNL     1       5.717   3.969  18.331  0.00  0.00    +0.000 NA
ATOM     14  H   UNL     1       3.640   2.482  16.445  0.00  0.00    +0.000 HD
BRANCH   6  15
ATOM     15  O   UNL     1       5.877   5.814  14.757  0.00  0.00    +0.000 OA
ATOM     16  H   UNL     1       6.699   5.397  14.445  0.00  0.00    +0.000 HD
ENDBRANCH   6  15
ENDBRANCH   2   3
BRANCH   2  17
ATOM     17  C   UNL     1       2.022   2.987  18.424  0.00  0.00    +0.000 C 
BRANCH  17  18
ATOM     18  C   UNL     1       1.972   4.403  18.956  0.00  0.00    +0.000 A 
ATOM     19  C   UNL     1       1.570   4.682  20.265  0.00  0.00    +0.000 A 
ATOM     20  C   UNL     1       1.575   5.998  20.747  0.00  0.00    +0.000 A 
ATOM     21  C   UNL     1       2.002   7.057  19.944  0.00  0.00    +0.000 A 
ATOM     22  C   UNL     1       2.411   6.786  18.638  0.00  0.00    +0.000 A 
ATOM     23  C   UNL     1       2.399   5.470  18.152  0.00  0.00    +0.000 A 
BRANCH  21  24
ATOM     24  O   UNL     1       1.947   8.301  20.522  0.00  0.00    +0.000 OA
BRANCH  24  25
ATOM     25  C   UNL     1       1.178   8.398  21.725  0.00  0.00    +0.000 C 
BRANCH  25  26
ATOM     26  C   UNL     1       0.255   9.604  21.753  0.00  0.00    +0.000 A 
ATOM     27  C   UNL     1      -0.334  10.097  22.925  0.00  0.00    +0.000 A 
ATOM     28  C   UNL     1      -1.203  11.192  22.881  0.00  0.00    +0.000 A 
ATOM     29  C   UNL     1      -1.502  11.804  21.665  0.00  0.00    +0.000 A 
ATOM     30  C   UNL     1      -0.928  11.326  20.490  0.00  0.00    +0.000 A 
ATOM     31  C   UNL     1      -0.056  10.234  20.535  0.00  0.00    +0.000 A 
ENDBRANCH  25  26
ENDBRANCH  24  25
ENDBRANCH  21  24
ENDBRANCH  17  18
ENDBRANCH   2  17
TORSDOF 7
ENDMDL
MODEL 5
REMARK VINA RESULT:      -8.2      3.795      5.860
REMARK  Name = 
REMARK  8 active torsions:
REMARK  status: ('A' for Active; 'I' for Inactive)
REMARK    1  A    between atoms: C_1  and  C_2
REMARK    2  A    between atoms: C_2  and  C_3
REMARK    3  A    between atoms: C_2  and  N_18
REMARK    4  A    between atoms: C_3  and  C_4
REMARK    5  A    between atoms: C_7  and  O_8
REMARK    6  A    between atoms: O_8  and  C_9
REMARK    7  A    between atoms: C_9  and  C_10
REMARK    8  A    between atoms: C_21  and  O_22
REMARK                            x       y       z     vdW  Elec       q    Type
REMARK                         _______ _______ _______ _____ _____    ______ ____
ROOT
ATOM      1  C   UNL     1       1.772   4.429  17.613  0.00  0.00    +0.000 C 
ATOM      2  C   UNL     1       2.838   5.257  18.351  0.00  0.00    +0.000 C 
ENDROOT
BRANCH   2   3
ATOM      3  N   UNL     1       2.812   6.638  17.871  0.00  0.00    +0.000 N 
ATOM      4  C   UNL     1       2.105   7.589  18.590  0.00  0.00    +0.000 A 
ATOM      5  N   UNL     1       1.468   8.487  17.834  0.00  0.00    +0.000 NA
ATOM      6  C   UNL     1       0.714   9.370  18.494  0.00  0.00    +0.000 A 
ATOM      7  C   UNL     1       0.554   9.436  19.865  0.00  0.00    +0.000 A 
ATOM      8  C   UNL     1      -0.307  10.345  20.529  0.00  0.00    +0.000 A 
ATOM      9  C   UNL     1      -0.323  10.402  21.917  0.00  0.00    +0.000 A 
ATOM     10  C   UNL     1       0.538   9.580  22.631  0.00  0.00    +0.000 A 
ATOM     11  C   UNL     1       1.355   8.655  21.954  0.00  0.00    +0.000 A 
ATOM     12  C   UNL     1       1.349   8.535  20.565  0.00  0.00    +0.000 A 
ATOM     13  N   UNL     1       2.094   7.595  19.931  0.00  0.00    +0.000 NA
ATOM     14  H   UNL     1       2.534   6.749  16.903  0.00  0.00    +0.000 HD
BRANCH   6  15
ATOM     15  O   UNL     1       0.151  10.310  17.682  0.00  0.00    +0.000 OA
ATOM     16  H   UNL     1      -0.780  10.027  17.710  0.00  0.00    +0.000 HD
ENDBRANCH   6  15
ENDBRANCH   2   3
BRANCH   2  17
ATOM     17  C   UNL     1       4.221   4.613  18.052  0.00  0.00    +0.000 C 
BRANCH  17  18
ATOM     18  C   UNL     1       5.439   5.509  18.121  0.00  0.00    +0.000 A 
ATOM     19  C   UNL     1       5.582   6.619  17.283  0.00  0.00    +0.000 A 
ATOM     20  C   UNL     1       6.699   7.459  17.398  0.00  0.00    +0.000 A 
ATOM     21  C   UNL     1       7.680   7.223  18.362  0.00  0.00    +0.000 A 
ATOM     22  C   UNL     1       7.541   6.121  19.205  0.00  0.00    +0.000 A 
ATOM     23  C   UNL     1       6.428   5.275  19.087  0.00  0.00    +0.000 A 
BRANCH  21  24
ATOM     24  O   UNL     1       8.733   8.104  18.366  0.00  0.00    +0.000 OA
BRANCH  24  25
ATOM     25  C   UNL     1       8.473   9.392  17.799  0.00  0.00    +0.000 C 
BRANCH  25  26
ATOM     26  C   UNL     1       9.096  10.533  18.584  0.00  0.00    +0.000 A 
ATOM     27  C   UNL     1       9.530  10.409  19.911  0.00  0.00    +0.000 A 
ATOM     28  C   UNL     1      10.066  11.507  20.591  0.00  0.00    +0.000 A 
ATOM     29  C   UNL     1      10.166  12.746  19.961  0.00  0.00    +0.000 A 
ATOM     30  C   UNL     1       9.736  12.888  18.643  0.00  0.00    +0.000 A 
ATOM     31  C   UNL     1       9.206  11.790  17.962  0.00  0.00    +0.000 A 
ENDBRANCH  25  26
ENDBRANCH  24  25
ENDBRANCH  21  24
ENDBRANCH  17  18
ENDBRANCH   2  17
TORSDOF 7
ENDMDL
MODEL 6
REMARK VINA RESULT:      -8.2      1.034      1.506
REMARK  Name = 
REMARK  8 active torsions:
REMARK  status: ('A' for Active; 'I' for Inactive)
REMARK    1  A    between atoms: C_1  and  C_2
REMARK    2  A    between atoms: C_2  and  C_3
REMARK    3  A    between atoms: C_2  and  N_18
REMARK    4  A    between atoms: C_3  and  C_4
REMARK    5  A    between atoms: C_7  and  O_8
REMARK    6  A    between atoms: O_8  and  C_9
REMARK    7  A    between atoms: C_9  and  C_10
REMARK    8  A    between atoms: C_21  and  O_22
REMARK                            x       y       z     vdW  Elec       q    Type
REMARK                         _______ _______ _______ _____ _____    ______ ____
ROOT
ATOM      1  C   UNL     1       0.802   4.747  20.036  0.00  0.00    +0.000 C 
ATOM      2  C   UNL     1       2.105   5.230  20.696  0.00  0.00    +0.000 C 
ENDROOT
BRANCH   2   3
ATOM      3  N   UNL     1       2.566   6.454  20.041  0.00  0.00    +0.000 N 
ATOM      4  C   UNL     1       1.842   7.623  20.210  0.00  0.00    +0.000 A 
ATOM      5  N   UNL     1       1.773   8.389  19.117  0.00  0.00    +0.000 NA
ATOM      6  C   UNL     1       1.017   9.485  19.224  0.00  0.00    +0.000 A 
ATOM      7  C   UNL     1       0.327   9.888  20.352  0.00  0.00    +0.000 A 
ATOM      8  C   UNL     1      -0.521  11.023  20.411  0.00  0.00    +0.000 A 
ATOM      9  C   UNL     1      -1.092  11.404  21.618  0.00  0.00    +0.000 A 
ATOM     10  C   UNL     1      -0.790  10.676  22.760  0.00  0.00    +0.000 A 
ATOM     11  C   UNL     1       0.019   9.528  22.674  0.00  0.00    +0.000 A 
ATOM     12  C   UNL     1       0.558   9.088  21.466  0.00  0.00    +0.000 A 
ATOM     13  N   UNL     1       1.284   7.944  21.387  0.00  0.00    +0.000 NA
ATOM     14  H   UNL     1       2.739   6.368  19.046  0.00  0.00    +0.000 HD
BRANCH   6  15
ATOM     15  O   UNL     1       1.045  10.269  18.109  0.00  0.00    +0.000 OA
ATOM     16  H   UNL     1       0.813  11.130  18.498  0.00  0.00    +0.000 HD
ENDBRANCH   6  15
ENDBRANCH   2   3
BRANCH   2  17
ATOM     17  C   UNL     1       3.162   4.103  20.527  0.00  0.00    +0.000 C 
BRANCH  17  18
ATOM     18  C   UNL     1       4.133   4.223  19.372  0.00  0.00    +0.000 A 
ATOM     19  C   UNL     1       5.360   4.878  19.510  0.00  0.00    +0.000 A 
ATOM     20  C   UNL     1       6.262   4.936  18.438  0.00  0.00    +0.000 A 
ATOM     21  C   UNL     1       5.969   4.324  17.218  0.00  0.00    +0.000 A 
ATOM     22  C   UNL     1       4.748   3.664  17.074  0.00  0.00    +0.000 A 
ATOM     23  C   UNL     1       3.842   3.612  18.144  0.00  0.00    +0.000 A 
BRANCH  21  24
ATOM     24  O   UNL     1       6.922   4.463  16.240  0.00  0.00    +0.000 OA
BRANCH  24  25
ATOM     25  C   UNL     1       6.564   5.294  15.131  0.00  0.00    +0.000 C 
BRANCH  25  26
ATOM     26  C   UNL     1       6.359   4.520  13.840  0.00  0.00    +0.000 A 
ATOM     27  C   UNL     1       7.351   4.380  12.860  0.00  0.00    +0.000 A 
ATOM     28  C   UNL     1       7.090   3.683  11.676  0.00  0.00    +0.000 A 
ATOM     29  C   UNL     1       5.834   3.124  11.450  0.00  0.00    +0.000 A 
ATOM     30  C   UNL     1       4.835   3.256  12.413  0.00  0.00    +0.000 A 
ATOM     31  C   UNL     1       5.098   3.949  13.598  0.00  0.00    +0.000 A 
ENDBRANCH  25  26
ENDBRANCH  24  25
ENDBRANCH  21  24
ENDBRANCH  17  18
ENDBRANCH   2  17
TORSDOF 7
ENDMDL
MODEL 7
REMARK VINA RESULT:      -8.1      2.292      9.435
REMARK  Name = 
REMARK  8 active torsions:
REMARK  status: ('A' for Active; 'I' for Inactive)
REMARK    1  A    between atoms: C_1  and  C_2
REMARK    2  A    between atoms: C_2  and  C_3
REMARK    3  A    between atoms: C_2  and  N_18
REMARK    4  A    between atoms: C_3  and  C_4
REMARK    5  A    between atoms: C_7  and  O_8
REMARK    6  A    between atoms: O_8  and  C_9
REMARK    7  A    between atoms: C_9  and  C_10
REMARK    8  A    between atoms: C_21  and  O_22
REMARK                            x       y       z     vdW  Elec       q    Type
REMARK                         _______ _______ _______ _____ _____    ______ ____
ROOT
ATOM      1  C   UNL     1       5.467   4.810  19.355  0.00  0.00    +0.000 C 
ATOM      2  C   UNL     1       4.963   4.603  17.916  0.00  0.00    +0.000 C 
ENDROOT
BRANCH   2   3
ATOM      3  N   UNL     1       5.596   5.575  17.026  0.00  0.00    +0.000 N 
ATOM      4  C   UNL     1       5.953   5.183  15.745  0.00  0.00    +0.000 A 
ATOM      5  N   UNL     1       7.104   5.704  15.312  0.00  0.00    +0.000 NA
ATOM      6  C   UNL     1       7.515   5.285  14.113  0.00  0.00    +0.000 A 
ATOM      7  C   UNL     1       6.854   4.388  13.295  0.00  0.00    +0.000 A 
ATOM      8  C   UNL     1       7.351   3.915  12.056  0.00  0.00    +0.000 A 
ATOM      9  C   UNL     1       6.566   3.091  11.258  0.00  0.00    +0.000 A 
ATOM     10  C   UNL     1       5.284   2.773  11.684  0.00  0.00    +0.000 A 
ATOM     11  C   UNL     1       4.824   3.219  12.937  0.00  0.00    +0.000 A 
ATOM     12  C   UNL     1       5.611   3.998  13.784  0.00  0.00    +0.000 A 
ATOM     13  N   UNL     1       5.178   4.366  15.016  0.00  0.00    +0.000 NA
ATOM     14  H   UNL     1       6.405   6.047  17.414  0.00  0.00    +0.000 HD
BRANCH   6  15
ATOM     15  O   UNL     1       8.652   5.906  13.687  0.00  0.00    +0.000 OA
ATOM     16  H   UNL     1       9.324   5.292  14.032  0.00  0.00    +0.000 HD
ENDBRANCH   6  15
ENDBRANCH   2   3
BRANCH   2  17
ATOM     17  C   UNL     1       3.423   4.811  17.925  0.00  0.00    +0.000 C 
BRANCH  17  18
ATOM     18  C   UNL     1       2.902   6.160  18.374  0.00  0.00    +0.000 A 
ATOM     19  C   UNL     1       2.890   7.263  17.517  0.00  0.00    +0.000 A 
ATOM     20  C   UNL     1       2.361   8.491  17.942  0.00  0.00    +0.000 A 
ATOM     21  C   UNL     1       1.814   8.634  19.218  0.00  0.00    +0.000 A 
ATOM     22  C   UNL     1       1.817   7.535  20.077  0.00  0.00    +0.000 A 
ATOM     23  C   UNL     1       2.353   6.309  19.656  0.00  0.00    +0.000 A 
BRANCH  21  24
ATOM     24  O   UNL     1       1.342   9.886  19.524  0.00  0.00    +0.000 OA
BRANCH  24  25
ATOM     25  C   UNL     1       0.008   9.942  20.041  0.00  0.00    +0.000 C 
BRANCH  25  26
ATOM     26  C   UNL     1      -1.006  10.457  19.034  0.00  0.00    +0.000 A 
ATOM     27  C   UNL     1      -1.877  11.524  19.294  0.00  0.00    +0.000 A 
ATOM     28  C   UNL     1      -2.812  11.929  18.337  0.00  0.00    +0.000 A 
ATOM     29  C   UNL     1      -2.899  11.269  17.113  0.00  0.00    +0.000 A 
ATOM     30  C   UNL     1      -2.044  10.204  16.840  0.00  0.00    +0.000 A 
ATOM     31  C   UNL     1      -1.105   9.802  17.794  0.00  0.00    +0.000 A 
ENDBRANCH  25  26
ENDBRANCH  24  25
ENDBRANCH  21  24
ENDBRANCH  17  18
ENDBRANCH   2  17
TORSDOF 7
ENDMDL
MODEL 8
REMARK VINA RESULT:      -8.1      3.805      5.877
REMARK  Name = 
REMARK  8 active torsions:
REMARK  status: ('A' for Active; 'I' for Inactive)
REMARK    1  A    between atoms: C_1  and  C_2
REMARK    2  A    between atoms: C_2  and  C_3
REMARK    3  A    between atoms: C_2  and  N_18
REMARK    4  A    between atoms: C_3  and  C_4
REMARK    5  A    between atoms: C_7  and  O_8
REMARK    6  A    between atoms: O_8  and  C_9
REMARK    7  A    between atoms: C_9  and  C_10
REMARK    8  A    between atoms: C_21  and  O_22
REMARK                            x       y       z     vdW  Elec       q    Type
REMARK                         _______ _______ _______ _____ _____    ______ ____
ROOT
ATOM      1  C   UNL     1       1.908   4.469  17.623  0.00  0.00    +0.000 C 
ATOM      2  C   UNL     1       2.803   5.305  18.554  0.00  0.00    +0.000 C 
ENDROOT
BRANCH   2   3
ATOM      3  N   UNL     1       2.839   6.692  18.091  0.00  0.00    +0.000 N 
ATOM      4  C   UNL     1       2.108   7.650  18.775  0.00  0.00    +0.000 A 
ATOM      5  N   UNL     1       1.542   8.572  17.991  0.00  0.00    +0.000 NA
ATOM      6  C   UNL     1       0.767   9.464  18.612  0.00  0.00    +0.000 A 
ATOM      7  C   UNL     1       0.519   9.518  19.971  0.00  0.00    +0.000 A 
ATOM      8  C   UNL     1      -0.363  10.439  20.590  0.00  0.00    +0.000 A 
ATOM      9  C   UNL     1      -0.468  10.480  21.974  0.00  0.00    +0.000 A 
ATOM     10  C   UNL     1       0.326   9.630  22.731  0.00  0.00    +0.000 A 
ATOM     11  C   UNL     1       1.164   8.695  22.097  0.00  0.00    +0.000 A 
ATOM     12  C   UNL     1       1.247   8.590  20.709  0.00  0.00    +0.000 A 
ATOM     13  N   UNL     1       2.010   7.641  20.113  0.00  0.00    +0.000 NA
ATOM     14  H   UNL     1       2.627   6.821  17.108  0.00  0.00    +0.000 HD
BRANCH   6  15
ATOM     15  O   UNL     1       0.279  10.426  17.778  0.00  0.00    +0.000 OA
ATOM     16  H   UNL     1       1.112  10.804  17.444  0.00  0.00    +0.000 HD
ENDBRANCH   6  15
ENDBRANCH   2   3
BRANCH   2  17
ATOM     17  C   UNL     1       4.230   4.690  18.509  0.00  0.00    +0.000 C 
BRANCH  17  18
ATOM     18  C   UNL     1       5.401   5.644  18.413  0.00  0.00    +0.000 A 
ATOM     19  C   UNL     1       6.509   5.533  19.257  0.00  0.00    +0.000 A 
ATOM     20  C   UNL     1       7.601   6.402  19.118  0.00  0.00    +0.000 A 
ATOM     21  C   UNL     1       7.619   7.381  18.124  0.00  0.00    +0.000 A 
ATOM     22  C   UNL     1       6.519   7.495  17.274  0.00  0.00    +0.000 A 
ATOM     23  C   UNL     1       5.423   6.631  17.416  0.00  0.00    +0.000 A 
BRANCH  21  24
ATOM     24  O   UNL     1       8.734   8.180  18.097  0.00  0.00    +0.000 OA
BRANCH  24  25
ATOM     25  C   UNL     1       8.503   9.569  17.836  0.00  0.00    +0.000 C 
BRANCH  25  26
ATOM     26  C   UNL     1       9.491  10.486  18.535  0.00  0.00    +0.000 A 
ATOM     27  C   UNL     1      10.552  11.122  17.876  0.00  0.00    +0.000 A 
ATOM     28  C   UNL     1      11.449  11.929  18.583  0.00  0.00    +0.000 A 
ATOM     29  C   UNL     1      11.305  12.104  19.958  0.00  0.00    +0.000 A 
ATOM     30  C   UNL     1      10.258  11.477  20.630  0.00  0.00    +0.000 A 
ATOM     31  C   UNL     1       9.359  10.674  19.922  0.00  0.00    +0.000 A 
ENDBRANCH  25  26
ENDBRANCH  24  25
ENDBRANCH  21  24
ENDBRANCH  17  18
ENDBRANCH   2  17
TORSDOF 7
ENDMDL
MODEL 9
REMARK VINA RESULT:      -8.1      3.893     11.099
REMARK  Name = 
REMARK  8 active torsions:
REMARK  status: ('A' for Active; 'I' for Inactive)
REMARK    1  A    between atoms: C_1  and  C_2
REMARK    2  A    between atoms: C_2  and  C_3
REMARK    3  A    between atoms: C_2  and  N_18
REMARK    4  A    between atoms: C_3  and  C_4
REMARK    5  A    between atoms: C_7  and  O_8
REMARK    6  A    between atoms: O_8  and  C_9
REMARK    7  A    between atoms: C_9  and  C_10
REMARK    8  A    between atoms: C_21  and  O_22
REMARK                            x       y       z     vdW  Elec       q    Type
REMARK                         _______ _______ _______ _____ _____    ______ ____
ROOT
ATOM      1  C   UNL     1       1.660   8.280  20.124  0.00  0.00    +0.000 C 
ATOM      2  C   UNL     1       1.716   8.348  18.588  0.00  0.00    +0.000 C 
ENDROOT
BRANCH   2   3
ATOM      3  N   UNL     1       3.015   7.866  18.118  0.00  0.00    +0.000 N 
ATOM      4  C   UNL     1       3.314   6.518  18.228  0.00  0.00    +0.000 A 
ATOM      5  N   UNL     1       4.584   6.262  18.552  0.00  0.00    +0.000 NA
ATOM      6  C   UNL     1       4.886   4.975  18.742  0.00  0.00    +0.000 A 
ATOM      7  C   UNL     1       4.014   3.910  18.620  0.00  0.00    +0.000 A 
ATOM      8  C   UNL     1       4.351   2.561  18.894  0.00  0.00    +0.000 A 
ATOM      9  C   UNL     1       3.433   1.548  18.645  0.00  0.00    +0.000 A 
ATOM     10  C   UNL     1       2.203   1.881  18.096  0.00  0.00    +0.000 A 
ATOM     11  C   UNL     1       1.871   3.230  17.870  0.00  0.00    +0.000 A 
ATOM     12  C   UNL     1       2.750   4.271  18.166  0.00  0.00    +0.000 A 
ATOM     13  N   UNL     1       2.392   5.570  18.003  0.00  0.00    +0.000 NA
ATOM     14  H   UNL     1       3.815   8.366  18.487  0.00  0.00    +0.000 HD
BRANCH   6  15
ATOM     15  O   UNL     1       6.210   4.764  18.993  0.00  0.00    +0.000 OA
ATOM     16  H   UNL     1       6.202   4.759  19.966  0.00  0.00    +0.000 HD
ENDBRANCH   6  15
ENDBRANCH   2   3
BRANCH   2  17
ATOM     17  C   UNL     1       1.517   9.833  18.178  0.00  0.00    +0.000 C 
BRANCH  17  18
ATOM     18  C   UNL     1       0.136  10.429  18.355  0.00  0.00    +0.000 A 
ATOM     19  C   UNL     1      -0.970   9.937  17.656  0.00  0.00    +0.000 A 
ATOM     20  C   UNL     1      -2.246  10.476  17.871  0.00  0.00    +0.000 A 
ATOM     21  C   UNL     1      -2.448  11.497  18.801  0.00  0.00    +0.000 A 
ATOM     22  C   UNL     1      -1.350  11.989  19.506  0.00  0.00    +0.000 A 
ATOM     23  C   UNL     1      -0.072  11.456  19.286  0.00  0.00    +0.000 A 
BRANCH  21  24
ATOM     24  O   UNL     1      -3.738  11.953  18.911  0.00  0.00    +0.000 OA
BRANCH  24  25
ATOM     25  C   UNL     1      -4.031  12.725  20.081  0.00  0.00    +0.000 C 
BRANCH  25  26
ATOM     26  C   UNL     1      -5.385  12.407  20.689  0.00  0.00    +0.000 A 
ATOM     27  C   UNL     1      -5.810  12.904  21.929  0.00  0.00    +0.000 A 
ATOM     28  C   UNL     1      -7.058  12.547  22.450  0.00  0.00    +0.000 A 
ATOM     29  C   UNL     1      -7.893  11.682  21.747  0.00  0.00    +0.000 A 
ATOM     30  C   UNL     1      -7.486  11.176  20.515  0.00  0.00    +0.000 A 
ATOM     31  C   UNL     1      -6.242  11.536  19.991  0.00  0.00    +0.000 A 
ENDBRANCH  25  26
ENDBRANCH  24  25
ENDBRANCH  21  24
ENDBRANCH  17  18
ENDBRANCH   2  17
TORSDOF 7
ENDMDL
