MODEL 1
REMARK VINA RESULT:      -8.9      0.000      0.000
REMARK  Name = 
REMARK  10 active torsions:
REMARK  status: ('A' for Active; 'I' for Inactive)
REMARK    1  A    between atoms: C_1  and  C_2
REMARK    2  A    between atoms: C_4  and  C_5
REMARK    3  A    between atoms: C_5  and  N_6
REMARK    4  A    between atoms: C_9  and  O_10
REMARK    5  A    between atoms: C_14  and  C_15
REMARK    6  A    between atoms: C_15  and  C_17
REMARK    7  A    between atoms: C_17  and  N_18
REMARK    8  A    between atoms: C_21  and  O_22
REMARK    9  A    between atoms: O_22  and  C_23
REMARK   10  A    between atoms: C_23  and  C_24
REMARK                            x       y       z     vdW  Elec       q    Type
REMARK                         _______ _______ _______ _____ _____    ______ ____
ROOT
ATOM      1  C   UNL     1       4.125   3.430  17.634  0.00  0.00    +0.000 C 
ATOM      2  O   UNL     1       4.086   2.217  17.835  0.00  0.00    +0.000 OA
ENDROOT
BRANCH   1   9
ATOM      3  C   UNL     1       3.470   2.744  20.653  0.00  0.00    +0.000 C 
ATOM      4  C   UNL     1       3.090   4.023  19.956  0.00  0.00    +0.000 A 
ATOM      5  C   UNL     1       2.320   4.952  20.701  0.00  0.00    +0.000 A 
ATOM      6  C   UNL     1       2.023   6.232  20.212  0.00  0.00    +0.000 A 
ATOM      7  C   UNL     1       2.549   6.597  18.969  0.00  0.00    +0.000 A 
ATOM      8  C   UNL     1       3.265   5.674  18.195  0.00  0.00    +0.000 A 
ATOM      9  C   UNL     1       3.497   4.364  18.647  0.00  0.00    +0.000 A 
BRANCH   6  10
ATOM     10  C   UNL     1       1.074   7.171  20.941  0.00  0.00    +0.000 C 
BRANCH  10  11
ATOM     11  N   UNL     1       1.532   8.566  21.067  0.00  0.00    +0.000 NA
ATOM     12  C   UNL     1       0.859   9.463  20.107  0.00  0.00    +0.000 C 
ATOM     13  C   UNL     1      -0.091  10.376  20.877  0.00  0.00    +0.000 C 
ATOM     14  C   UNL     1      -0.133   9.807  22.281  0.00  0.00    +0.000 C 
ATOM     15  C   UNL     1       1.211   9.099  22.408  0.00  0.00    +0.000 C 
BRANCH  14  16
ATOM     16  O   UNL     1      -0.315  10.829  23.251  0.00  0.00    +0.000 OA
ATOM     17  H   UNL     1       0.373  11.504  23.116  0.00  0.00    +0.000 HD
ENDBRANCH  14  16
ENDBRANCH  10  11
ENDBRANCH   6  10
ENDBRANCH   1   9
BRANCH   1  18
ATOM     18  C   UNL     1       4.936   4.057  16.497  0.00  0.00    +0.000 C 
BRANCH  18  19
ATOM     19  N   UNL     1       6.047   4.978  16.780  0.00  0.00    +0.000 N 
ATOM     20  C   UNL     1       6.870   4.765  17.873  0.00  0.00    +0.000 A 
ATOM     21  C   UNL     1       7.651   5.743  18.347  0.00  0.00    +0.000 A 
ATOM     22  C   UNL     1       7.623   7.064  17.760  0.00  0.00    +0.000 A 
ATOM     23  C   UNL     1       6.956   7.256  16.618  0.00  0.00    +0.000 A 
ATOM     24  C   UNL     1       6.108   6.168  16.052  0.00  0.00    +0.000 A 
ATOM     25  O   UNL     1       5.451   6.402  15.039  0.00  0.00    +0.000 OA
BRANCH  22  26
ATOM     26  O   UNL     1       8.314   8.003  18.503  0.00  0.00    +0.000 OA
BRANCH  26  27
ATOM     27  C   UNL     1       8.208   9.377  18.119  0.00  0.00    +0.000 C 
BRANCH  27  28
ATOM     28  C   UNL     1       9.282  10.249  18.740  0.00  0.00    +0.000 A 
ATOM     29  C   UNL     1      10.301  10.849  17.988  0.00  0.00    +0.000 A 
ATOM     30  C   UNL     1      11.183  11.757  18.583  0.00  0.00    +0.000 A 
ATOM     31  C   UNL     1      11.063  12.069  19.936  0.00  0.00    +0.000 A 
ATOM     32  C   UNL     1      10.091  11.440  20.708  0.00  0.00    +0.000 A 
ATOM     33  C   UNL     1       9.213  10.530  20.116  0.00  0.00    +0.000 A 
ENDBRANCH  27  28
ENDBRANCH  26  27
ENDBRANCH  22  26
ENDBRANCH  18  19
ENDBRANCH   1  18
TORSDOF 9
ENDMDL
MODEL 2
REMARK VINA RESULT:      -8.7      1.306      2.049
REMARK  Name = 
REMARK  10 active torsions:
REMARK  status: ('A' for Active; 'I' for Inactive)
REMARK    1  A    between atoms: C_1  and  C_2
REMARK    2  A    between atoms: C_4  and  C_5
REMARK    3  A    between atoms: C_5  and  N_6
REMARK    4  A    between atoms: C_9  and  O_10
REMARK    5  A    between atoms: C_14  and  C_15
REMARK    6  A    between atoms: C_15  and  C_17
REMARK    7  A    between atoms: C_17  and  N_18
REMARK    8  A    between atoms: C_21  and  O_22
REMARK    9  A    between atoms: O_22  and  C_23
REMARK   10  A    between atoms: C_23  and  C_24
REMARK                            x       y       z     vdW  Elec       q    Type
REMARK                         _______ _______ _______ _____ _____    ______ ____
ROOT
ATOM      1  C   UNL     1       3.375   4.526  17.880  0.00  0.00    +0.000 C 
ATOM      2  O   UNL     1       2.758   4.027  16.940  0.00  0.00    +0.000 OA
ENDROOT
BRANCH   1   9
ATOM      3  C   UNL     1       3.300   7.598  17.126  0.00  0.00    +0.000 C 
ATOM      4  C   UNL     1       2.794   7.013  18.417  0.00  0.00    +0.000 A 
ATOM      5  C   UNL     1       2.313   7.929  19.387  0.00  0.00    +0.000 A 
ATOM      6  C   UNL     1       1.692   7.500  20.569  0.00  0.00    +0.000 A 
ATOM      7  C   UNL     1       1.511   6.126  20.753  0.00  0.00    +0.000 A 
ATOM      8  C   UNL     1       2.029   5.206  19.832  0.00  0.00    +0.000 A 
ATOM      9  C   UNL     1       2.722   5.628  18.686  0.00  0.00    +0.000 A 
BRANCH   6  10
ATOM     10  C   UNL     1       1.314   8.472  21.677  0.00  0.00    +0.000 C 
BRANCH  10  11
ATOM     11  N   UNL     1      -0.112   8.839  21.742  0.00  0.00    +0.000 NA
ATOM     12  C   UNL     1      -0.457   9.511  23.010  0.00  0.00    +0.000 C 
ATOM     13  C   UNL     1      -0.748  10.981  22.718  0.00  0.00    +0.000 C 
ATOM     14  C   UNL     1      -0.314  11.191  21.282  0.00  0.00    +0.000 C 
ATOM     15  C   UNL     1      -0.451   9.801  20.672  0.00  0.00    +0.000 C 
BRANCH  14  16
ATOM     16  O   UNL     1      -1.122  12.163  20.632  0.00  0.00    +0.000 OA
ATOM     17  H   UNL     1      -0.535  12.801  20.190  0.00  0.00    +0.000 HD
ENDBRANCH  14  16
ENDBRANCH  10  11
ENDBRANCH   6  10
ENDBRANCH   1   9
BRANCH   1  18
ATOM     18  C   UNL     1       4.705   3.964  18.391  0.00  0.00    +0.000 C 
BRANCH  18  19
ATOM     19  N   UNL     1       5.943   4.752  18.299  0.00  0.00    +0.000 N 
ATOM     20  C   UNL     1       6.719   4.966  19.426  0.00  0.00    +0.000 A 
ATOM     21  C   UNL     1       7.640   5.939  19.452  0.00  0.00    +0.000 A 
ATOM     22  C   UNL     1       7.817   6.822  18.321  0.00  0.00    +0.000 A 
ATOM     23  C   UNL     1       7.192   6.545  17.172  0.00  0.00    +0.000 A 
ATOM     24  C   UNL     1       6.189   5.443  17.111  0.00  0.00    +0.000 A 
ATOM     25  O   UNL     1       5.580   5.262  16.058  0.00  0.00    +0.000 OA
BRANCH  22  26
ATOM     26  O   UNL     1       8.641   7.897  18.597  0.00  0.00    +0.000 OA
BRANCH  26  27
ATOM     27  C   UNL     1       8.249   9.187  18.118  0.00  0.00    +0.000 C 
BRANCH  27  28
ATOM     28  C   UNL     1       9.130  10.305  18.640  0.00  0.00    +0.000 A 
ATOM     29  C   UNL     1       9.753  11.236  17.799  0.00  0.00    +0.000 A 
ATOM     30  C   UNL     1      10.438  12.331  18.335  0.00  0.00    +0.000 A 
ATOM     31  C   UNL     1      10.517  12.503  19.716  0.00  0.00    +0.000 A 
ATOM     32  C   UNL     1       9.950  11.557  20.565  0.00  0.00    +0.000 A 
ATOM     33  C   UNL     1       9.269  10.462  20.031  0.00  0.00    +0.000 A 
ENDBRANCH  27  28
ENDBRANCH  26  27
ENDBRANCH  22  26
ENDBRANCH  18  19
ENDBRANCH   1  18
TORSDOF 9
ENDMDL
MODEL 3
REMARK VINA RESULT:      -8.6      1.614      2.040
REMARK  Name = 
REMARK  10 active torsions:
REMARK  status: ('A' for Active; 'I' for Inactive)
REMARK    1  A    between atoms: C_1  and  C_2
REMARK    2  A    between atoms: C_4  and  C_5
REMARK    3  A    between atoms: C_5  and  N_6
REMARK    4  A    between atoms: C_9  and  O_10
REMARK    5  A    between atoms: C_14  and  C_15
REMARK    6  A    between atoms: C_15  and  C_17
REMARK    7  A    between atoms: C_17  and  N_18
REMARK    8  A    between atoms: C_21  and  O_22
REMARK    9  A    between atoms: O_22  and  C_23
REMARK   10  A    between atoms: C_23  and  C_24
REMARK                            x       y       z     vdW  Elec       q    Type
REMARK                         _______ _______ _______ _____ _____    ______ ____
ROOT
ATOM      1  C   UNL     1       3.314   4.148  18.012  0.00  0.00    +0.000 C 
ATOM      2  O   UNL     1       2.453   3.459  17.467  0.00  0.00    +0.000 OA
ENDROOT
BRANCH   1   9
ATOM      3  C   UNL     1       2.312   4.306  21.009  0.00  0.00    +0.000 C 
ATOM      4  C   UNL     1       2.329   5.459  20.044  0.00  0.00    +0.000 A 
ATOM      5  C   UNL     1       1.787   6.687  20.504  0.00  0.00    +0.000 A 
ATOM      6  C   UNL     1       1.871   7.865  19.749  0.00  0.00    +0.000 A 
ATOM      7  C   UNL     1       2.551   7.815  18.529  0.00  0.00    +0.000 A 
ATOM      8  C   UNL     1       3.044   6.601  18.033  0.00  0.00    +0.000 A 
ATOM      9  C   UNL     1       2.893   5.402  18.750  0.00  0.00    +0.000 A 
BRANCH   6  10
ATOM     10  C   UNL     1       1.159   9.142  20.172  0.00  0.00    +0.000 C 
BRANCH  10  11
ATOM     11  N   UNL     1       0.995  10.157  19.116  0.00  0.00    +0.000 NA
ATOM     12  C   UNL     1      -0.083   9.808  18.171  0.00  0.00    +0.000 C 
ATOM     13  C   UNL     1      -1.251  10.768  18.388  0.00  0.00    +0.000 C 
ATOM     14  C   UNL     1      -0.912  11.519  19.660  0.00  0.00    +0.000 C 
ATOM     15  C   UNL     1       0.611  11.459  19.702  0.00  0.00    +0.000 C 
BRANCH  14  16
ATOM     16  O   UNL     1      -1.413  12.847  19.628  0.00  0.00    +0.000 OA
ATOM     17  H   UNL     1      -2.369  12.809  19.447  0.00  0.00    +0.000 HD
ENDBRANCH  14  16
ENDBRANCH  10  11
ENDBRANCH   6  10
ENDBRANCH   1   9
BRANCH   1  18
ATOM     18  C   UNL     1       4.775   3.707  18.137  0.00  0.00    +0.000 C 
BRANCH  18  19
ATOM     19  N   UNL     1       5.873   4.643  17.852  0.00  0.00    +0.000 N 
ATOM     20  C   UNL     1       6.508   5.310  18.886  0.00  0.00    +0.000 A 
ATOM     21  C   UNL     1       7.255   6.396  18.647  0.00  0.00    +0.000 A 
ATOM     22  C   UNL     1       7.382   6.929  17.309  0.00  0.00    +0.000 A 
ATOM     23  C   UNL     1       6.907   6.224  16.278  0.00  0.00    +0.000 A 
ATOM     24  C   UNL     1       6.103   4.991  16.519  0.00  0.00    +0.000 A 
ATOM     25  O   UNL     1       5.621   4.406  15.551  0.00  0.00    +0.000 OA
BRANCH  22  26
ATOM     26  O   UNL     1       7.996   8.167  17.275  0.00  0.00    +0.000 OA
BRANCH  26  27
ATOM     27  C   UNL     1       8.497   8.704  18.503  0.00  0.00    +0.000 C 
BRANCH  27  28
ATOM     28  C   UNL     1       8.935  10.151  18.380  0.00  0.00    +0.000 A 
ATOM     29  C   UNL     1      10.187  10.605  18.816  0.00  0.00    +0.000 A 
ATOM     30  C   UNL     1      10.599  11.915  18.552  0.00  0.00    +0.000 A 
ATOM     31  C   UNL     1       9.764  12.788  17.857  0.00  0.00    +0.000 A 
ATOM     32  C   UNL     1       8.496  12.369  17.466  0.00  0.00    +0.000 A 
ATOM     33  C   UNL     1       8.082  11.062  17.732  0.00  0.00    +0.000 A 
ENDBRANCH  27  28
ENDBRANCH  26  27
ENDBRANCH  22  26
ENDBRANCH  18  19
ENDBRANCH   1  18
TORSDOF 9
ENDMDL
MODEL 4
REMARK VINA RESULT:      -8.6      0.963      1.292
REMARK  Name = 
REMARK  10 active torsions:
REMARK  status: ('A' for Active; 'I' for Inactive)
REMARK    1  A    between atoms: C_1  and  C_2
REMARK    2  A    between atoms: C_4  and  C_5
REMARK    3  A    between atoms: C_5  and  N_6
REMARK    4  A    between atoms: C_9  and  O_10
REMARK    5  A    between atoms: C_14  and  C_15
REMARK    6  A    between atoms: C_15  and  C_17
REMARK    7  A    between atoms: C_17  and  N_18
REMARK    8  A    between atoms: C_21  and  O_22
REMARK    9  A    between atoms: O_22  and  C_23
REMARK   10  A    between atoms: C_23  and  C_24
REMARK                            x       y       z     vdW  Elec       q    Type
REMARK                         _______ _______ _______ _____ _____    ______ ____
ROOT
ATOM      1  C   UNL     1       3.883   4.323  17.952  0.00  0.00    +0.000 C 
ATOM      2  O   UNL     1       3.229   3.742  17.087  0.00  0.00    +0.000 OA
ENDROOT
BRANCH   1   9
ATOM      3  C   UNL     1       2.693   3.341  20.715  0.00  0.00    +0.000 C 
ATOM      4  C   UNL     1       2.520   4.722  20.143  0.00  0.00    +0.000 A 
ATOM      5  C   UNL     1       1.701   5.619  20.875  0.00  0.00    +0.000 A 
ATOM      6  C   UNL     1       1.574   6.969  20.518  0.00  0.00    +0.000 A 
ATOM      7  C   UNL     1       2.322   7.432  19.431  0.00  0.00    +0.000 A 
ATOM      8  C   UNL     1       3.092   6.550  18.663  0.00  0.00    +0.000 A 
ATOM      9  C   UNL     1       3.160   5.180  18.969  0.00  0.00    +0.000 A 
BRANCH   6  10
ATOM     10  C   UNL     1       0.582   7.893  21.207  0.00  0.00    +0.000 C 
BRANCH  10  11
ATOM     11  N   UNL     1       1.127   9.181  21.670  0.00  0.00    +0.000 NA
ATOM     12  C   UNL     1       0.919  10.261  20.685  0.00  0.00    +0.000 C 
ATOM     13  C   UNL     1      -0.122  11.230  21.239  0.00  0.00    +0.000 C 
ATOM     14  C   UNL     1      -0.693  10.540  22.461  0.00  0.00    +0.000 C 
ATOM     15  C   UNL     1       0.443   9.624  22.903  0.00  0.00    +0.000 C 
BRANCH  14  16
ATOM     16  O   UNL     1      -1.069  11.477  23.459  0.00  0.00    +0.000 OA
ATOM     17  H   UNL     1      -0.306  11.622  24.045  0.00  0.00    +0.000 HD
ENDBRANCH  14  16
ENDBRANCH  10  11
ENDBRANCH   6  10
ENDBRANCH   1   9
BRANCH   1  18
ATOM     18  C   UNL     1       5.380   4.080  18.164  0.00  0.00    +0.000 C 
BRANCH  18  19
ATOM     19  N   UNL     1       6.365   5.132  17.871  0.00  0.00    +0.000 N 
ATOM     20  C   UNL     1       7.279   5.522  18.835  0.00  0.00    +0.000 A 
ATOM     21  C   UNL     1       7.942   6.680  18.725  0.00  0.00    +0.000 A 
ATOM     22  C   UNL     1       7.690   7.577  17.619  0.00  0.00    +0.000 A 
ATOM     23  C   UNL     1       6.930   7.160  16.602  0.00  0.00    +0.000 A 
ATOM     24  C   UNL     1       6.210   5.857  16.687  0.00  0.00    +0.000 A 
ATOM     25  O   UNL     1       5.463   5.537  15.764  0.00  0.00    +0.000 OA
BRANCH  22  26
ATOM     26  O   UNL     1       8.286   8.813  17.777  0.00  0.00    +0.000 OA
BRANCH  26  27
ATOM     27  C   UNL     1       8.689   9.204  19.093  0.00  0.00    +0.000 C 
BRANCH  27  28
ATOM     28  C   UNL     1       9.524  10.471  19.105  0.00  0.00    +0.000 A 
ATOM     29  C   UNL     1      10.146  10.959  20.261  0.00  0.00    +0.000 A 
ATOM     30  C   UNL     1      11.019  12.049  20.192  0.00  0.00    +0.000 A 
ATOM     31  C   UNL     1      11.276  12.668  18.969  0.00  0.00    +0.000 A 
ATOM     32  C   UNL     1      10.624  12.228  17.821  0.00  0.00    +0.000 A 
ATOM     33  C   UNL     1       9.748  11.143  17.890  0.00  0.00    +0.000 A 
ENDBRANCH  27  28
ENDBRANCH  26  27
ENDBRANCH  22  26
ENDBRANCH  18  19
ENDBRANCH   1  18
TORSDOF 9
ENDMDL
MODEL 5
REMARK VINA RESULT:      -8.5      1.219      1.511
REMARK  Name = 
REMARK  10 active torsions:
REMARK  status: ('A' for Active; 'I' for Inactive)
REMARK    1  A    between atoms: C_1  and  C_2
REMARK    2  A    between atoms: C_4  and  C_5
REMARK    3  A    between atoms: C_5  and  N_6
REMARK    4  A    between atoms: C_9  and  O_10
REMARK    5  A    between atoms: C_14  and  C_15
REMARK    6  A    between atoms: C_15  and  C_17
REMARK    7  A    between atoms: C_17  and  N_18
REMARK    8  A    between atoms: C_21  and  O_22
REMARK    9  A    between atoms: O_22  and  C_23
REMARK   10  A    between atoms: C_23  and  C_24
REMARK                            x       y       z     vdW  Elec       q    Type
REMARK                         _______ _______ _______ _____ _____    ______ ____
ROOT
ATOM      1  C   UNL     1       3.043   3.887  17.652  0.00  0.00    +0.000 C 
ATOM      2  O   UNL     1       2.140   3.251  17.109  0.00  0.00    +0.000 OA
ENDROOT
BRANCH   1   9
ATOM      3  C   UNL     1       2.271   3.410  20.683  0.00  0.00    +0.000 C 
ATOM      4  C   UNL     1       2.220   4.738  19.978  0.00  0.00    +0.000 A 
ATOM      5  C   UNL     1       1.720   5.838  20.722  0.00  0.00    +0.000 A 
ATOM      6  C   UNL     1       1.752   7.147  20.223  0.00  0.00    +0.000 A 
ATOM      7  C   UNL     1       2.338   7.359  18.972  0.00  0.00    +0.000 A 
ATOM      8  C   UNL     1       2.787   6.279  18.200  0.00  0.00    +0.000 A 
ATOM      9  C   UNL     1       2.685   4.956  18.662  0.00  0.00    +0.000 A 
BRANCH   6  10
ATOM     10  C   UNL     1       1.080   8.302  20.952  0.00  0.00    +0.000 C 
BRANCH  10  11
ATOM     11  N   UNL     1       0.947   9.550  20.181  0.00  0.00    +0.000 NA
ATOM     12  C   UNL     1      -0.445   9.799  19.758  0.00  0.00    +0.000 C 
ATOM     13  C   UNL     1      -0.991  10.982  20.554  0.00  0.00    +0.000 C 
ATOM     14  C   UNL     1       0.045  11.247  21.628  0.00  0.00    +0.000 C 
ATOM     15  C   UNL     1       1.331  10.715  21.006  0.00  0.00    +0.000 C 
BRANCH  14  16
ATOM     16  O   UNL     1       0.115  12.628  21.952  0.00  0.00    +0.000 OA
ATOM     17  H   UNL     1       0.871  12.763  22.550  0.00  0.00    +0.000 HD
ENDBRANCH  14  16
ENDBRANCH  10  11
ENDBRANCH   6  10
ENDBRANCH   1   9
BRANCH   1  18
ATOM     18  C   UNL     1       4.523   3.528  17.491  0.00  0.00    +0.000 C 
BRANCH  18  19
ATOM     19  N   UNL     1       5.548   4.578  17.389  0.00  0.00    +0.000 N 
ATOM     20  C   UNL     1       6.174   5.056  18.527  0.00  0.00    +0.000 A 
ATOM     21  C   UNL     1       6.840   6.218  18.510  0.00  0.00    +0.000 A 
ATOM     22  C   UNL     1       6.885   7.029  17.313  0.00  0.00    +0.000 A 
ATOM     23  C   UNL     1       6.421   6.524  16.166  0.00  0.00    +0.000 A 
ATOM     24  C   UNL     1       5.707   5.214  16.156  0.00  0.00    +0.000 A 
ATOM     25  O   UNL     1       5.230   4.814  15.095  0.00  0.00    +0.000 OA
BRANCH  22  26
ATOM     26  O   UNL     1       7.415   8.286  17.530  0.00  0.00    +0.000 OA
BRANCH  26  27
ATOM     27  C   UNL     1       8.529   8.403  18.421  0.00  0.00    +0.000 C 
BRANCH  27  28
ATOM     28  C   UNL     1       8.890   9.843  18.729  0.00  0.00    +0.000 A 
ATOM     29  C   UNL     1       9.365  10.255  19.982  0.00  0.00    +0.000 A 
ATOM     30  C   UNL     1       9.818  11.564  20.174  0.00  0.00    +0.000 A 
ATOM     31  C   UNL     1       9.796  12.478  19.122  0.00  0.00    +0.000 A 
ATOM     32  C   UNL     1       9.277  12.099  17.888  0.00  0.00    +0.000 A 
ATOM     33  C   UNL     1       8.819  10.794  17.695  0.00  0.00    +0.000 A 
ENDBRANCH  27  28
ENDBRANCH  26  27
ENDBRANCH  22  26
ENDBRANCH  18  19
ENDBRANCH   1  18
TORSDOF 9
ENDMDL
MODEL 6
REMARK VINA RESULT:      -8.5      4.353     11.207
REMARK  Name = 
REMARK  10 active torsions:
REMARK  status: ('A' for Active; 'I' for Inactive)
REMARK    1  A    between atoms: C_1  and  C_2
REMARK    2  A    between atoms: C_4  and  C_5
REMARK    3  A    between atoms: C_5  and  N_6
REMARK    4  A    between atoms: C_9  and  O_10
REMARK    5  A    between atoms: C_14  and  C_15
REMARK    6  A    between atoms: C_15  and  C_17
REMARK    7  A    between atoms: C_17  and  N_18
REMARK    8  A    between atoms: C_21  and  O_22
REMARK    9  A    between atoms: O_22  and  C_23
REMARK   10  A    between atoms: C_23  and  C_24
REMARK                            x       y       z     vdW  Elec       q    Type
REMARK                         _______ _______ _______ _____ _____    ______ ____
ROOT
ATOM      1  C   UNL     1       0.982  10.134  19.659  0.00  0.00    +0.000 C 
ATOM      2  O   UNL     1       0.990  10.470  20.842  0.00  0.00    +0.000 OA
ENDROOT
BRANCH   1   9
ATOM      3  C   UNL     1       0.942   7.442  21.321  0.00  0.00    +0.000 C 
ATOM      4  C   UNL     1       1.727   7.663  20.057  0.00  0.00    +0.000 A 
ATOM      5  C   UNL     1       2.561   6.600  19.627  0.00  0.00    +0.000 A 
ATOM      6  C   UNL     1       3.233   6.633  18.398  0.00  0.00    +0.000 A 
ATOM      7  C   UNL     1       3.025   7.738  17.566  0.00  0.00    +0.000 A 
ATOM      8  C   UNL     1       2.249   8.822  17.997  0.00  0.00    +0.000 A 
ATOM      9  C   UNL     1       1.637   8.828  19.262  0.00  0.00    +0.000 A 
BRANCH   6  10
ATOM     10  C   UNL     1       4.244   5.566  18.005  0.00  0.00    +0.000 C 
BRANCH  10  11
ATOM     11  N   UNL     1       5.209   5.957  16.962  0.00  0.00    +0.000 NA
ATOM     12  C   UNL     1       6.607   5.772  17.397  0.00  0.00    +0.000 C 
ATOM     13  C   UNL     1       7.208   4.604  16.619  0.00  0.00    +0.000 C 
ATOM     14  C   UNL     1       6.036   3.962  15.904  0.00  0.00    +0.000 C 
ATOM     15  C   UNL     1       5.046   5.111  15.760  0.00  0.00    +0.000 C 
BRANCH  14  16
ATOM     16  O   UNL     1       6.429   3.409  14.656  0.00  0.00    +0.000 OA
ATOM     17  H   UNL     1       5.641   3.032  14.227  0.00  0.00    +0.000 HD
ENDBRANCH  14  16
ENDBRANCH  10  11
ENDBRANCH   6  10
ENDBRANCH   1   9
BRANCH   1  18
ATOM     18  C   UNL     1       0.185  10.884  18.588  0.00  0.00    +0.000 C 
BRANCH  18  19
ATOM     19  N   UNL     1      -1.283  10.799  18.542  0.00  0.00    +0.000 N 
ATOM     20  C   UNL     1      -1.903   9.857  17.739  0.00  0.00    +0.000 A 
ATOM     21  C   UNL     1      -3.197   9.974  17.415  0.00  0.00    +0.000 A 
ATOM     22  C   UNL     1      -3.971  11.113  17.857  0.00  0.00    +0.000 A 
ATOM     23  C   UNL     1      -3.443  11.953  18.752  0.00  0.00    +0.000 A 
ATOM     24  C   UNL     1      -2.014  11.819  19.155  0.00  0.00    +0.000 A 
ATOM     25  O   UNL     1      -1.540  12.653  19.925  0.00  0.00    +0.000 OA
BRANCH  22  26
ATOM     26  O   UNL     1      -5.212  11.191  17.254  0.00  0.00    +0.000 OA
BRANCH  26  27
ATOM     27  C   UNL     1      -6.284  11.788  17.991  0.00  0.00    +0.000 C 
BRANCH  27  28
ATOM     28  C   UNL     1      -6.772  10.918  19.133  0.00  0.00    +0.000 A 
ATOM     29  C   UNL     1      -7.345  11.447  20.297  0.00  0.00    +0.000 A 
ATOM     30  C   UNL     1      -7.909  10.601  21.258  0.00  0.00    +0.000 A 
ATOM     31  C   UNL     1      -7.900   9.220  21.071  0.00  0.00    +0.000 A 
ATOM     32  C   UNL     1      -7.286   8.678  19.946  0.00  0.00    +0.000 A 
ATOM     33  C   UNL     1      -6.719   9.520  18.988  0.00  0.00    +0.000 A 
ENDBRANCH  27  28
ENDBRANCH  26  27
ENDBRANCH  22  26
ENDBRANCH  18  19
ENDBRANCH   1  18
TORSDOF 9
ENDMDL
MODEL 7
REMARK VINA RESULT:      -8.3      3.909      6.181
REMARK  Name = 
REMARK  10 active torsions:
REMARK  status: ('A' for Active; 'I' for Inactive)
REMARK    1  A    between atoms: C_1  and  C_2
REMARK    2  A    between atoms: C_4  and  C_5
REMARK    3  A    between atoms: C_5  and  N_6
REMARK    4  A    between atoms: C_9  and  O_10
REMARK    5  A    between atoms: C_14  and  C_15
REMARK    6  A    between atoms: C_15  and  C_17
REMARK    7  A    between atoms: C_17  and  N_18
REMARK    8  A    between atoms: C_21  and  O_22
REMARK    9  A    between atoms: O_22  and  C_23
REMARK   10  A    between atoms: C_23  and  C_24
REMARK                            x       y       z     vdW  Elec       q    Type
REMARK                         _______ _______ _______ _____ _____    ______ ____
ROOT
ATOM      1  C   UNL     1       2.785   4.231  18.386  0.00  0.00    +0.000 C 
ATOM      2  O   UNL     1       1.851   3.456  18.190  0.00  0.00    +0.000 OA
ENDROOT
BRANCH   1   9
ATOM      3  C   UNL     1       2.130   4.979  21.390  0.00  0.00    +0.000 C 
ATOM      4  C   UNL     1       2.076   5.937  20.231  0.00  0.00    +0.000 A 
ATOM      5  C   UNL     1       1.629   7.254  20.510  0.00  0.00    +0.000 A 
ATOM      6  C   UNL     1       1.666   8.270  19.545  0.00  0.00    +0.000 A 
ATOM      7  C   UNL     1       2.204   7.966  18.292  0.00  0.00    +0.000 A 
ATOM      8  C   UNL     1       2.599   6.658  17.980  0.00  0.00    +0.000 A 
ATOM      9  C   UNL     1       2.490   5.618  18.918  0.00  0.00    +0.000 A 
BRANCH   6  10
ATOM     10  C   UNL     1       1.049   9.639  19.795  0.00  0.00    +0.000 C 
BRANCH  10  11
ATOM     11  N   UNL     1       0.621  10.373  18.591  0.00  0.00    +0.000 NA
ATOM     12  C   UNL     1      -0.756  10.030  18.188  0.00  0.00    +0.000 C 
ATOM     13  C   UNL     1      -1.657  11.231  18.464  0.00  0.00    +0.000 C 
ATOM     14  C   UNL     1      -0.803  12.187  19.272  0.00  0.00    +0.000 C 
ATOM     15  C   UNL     1       0.615  11.829  18.845  0.00  0.00    +0.000 C 
BRANCH  14  16
ATOM     16  O   UNL     1      -1.139  13.540  19.000  0.00  0.00    +0.000 OA
ATOM     17  H   UNL     1      -0.361  14.093  19.192  0.00  0.00    +0.000 HD
ENDBRANCH  14  16
ENDBRANCH  10  11
ENDBRANCH   6  10
ENDBRANCH   1   9
BRANCH   1  18
ATOM     18  C   UNL     1       4.252   3.804  18.290  0.00  0.00    +0.000 C 
BRANCH  18  19
ATOM     19  N   UNL     1       5.152   4.412  17.298  0.00  0.00    +0.000 N 
ATOM     20  C   UNL     1       4.729   4.601  15.994  0.00  0.00    +0.000 A 
ATOM     21  C   UNL     1       5.610   4.825  15.010  0.00  0.00    +0.000 A 
ATOM     22  C   UNL     1       7.031   4.830  15.275  0.00  0.00    +0.000 A 
ATOM     23  C   UNL     1       7.459   4.802  16.541  0.00  0.00    +0.000 A 
ATOM     24  C   UNL     1       6.491   4.589  17.656  0.00  0.00    +0.000 A 
ATOM     25  O   UNL     1       6.926   4.497  18.802  0.00  0.00    +0.000 OA
BRANCH  22  26
ATOM     26  O   UNL     1       7.797   4.851  14.125  0.00  0.00    +0.000 OA
BRANCH  26  27
ATOM     27  C   UNL     1       7.127   5.019  12.872  0.00  0.00    +0.000 C 
BRANCH  27  28
ATOM     28  C   UNL     1       6.699   3.705  12.249  0.00  0.00    +0.000 A 
ATOM     29  C   UNL     1       5.355   3.353  12.067  0.00  0.00    +0.000 A 
ATOM     30  C   UNL     1       5.013   2.196  11.360  0.00  0.00    +0.000 A 
ATOM     31  C   UNL     1       6.008   1.373  10.834  0.00  0.00    +0.000 A 
ATOM     32  C   UNL     1       7.348   1.681  11.053  0.00  0.00    +0.000 A 
ATOM     33  C   UNL     1       7.691   2.834  11.762  0.00  0.00    +0.000 A 
ENDBRANCH  27  28
ENDBRANCH  26  27
ENDBRANCH  22  26
ENDBRANCH  18  19
ENDBRANCH   1  18
TORSDOF 9
ENDMDL
MODEL 8
REMARK VINA RESULT:      -8.2      1.643      2.261
REMARK  Name = 
REMARK  10 active torsions:
REMARK  status: ('A' for Active; 'I' for Inactive)
REMARK    1  A    between atoms: C_1  and  C_2
REMARK    2  A    between atoms: C_4  and  C_5
REMARK    3  A    between atoms: C_5  and  N_6
REMARK    4  A    between atoms: C_9  and  O_10
REMARK    5  A    between atoms: C_14  and  C_15
REMARK    6  A    between atoms: C_15  and  C_17
REMARK    7  A    between atoms: C_17  and  N_18
REMARK    8  A    between atoms: C_21  and  O_22
REMARK    9  A    between atoms: O_22  and  C_23
REMARK   10  A    between atoms: C_23  and  C_24
REMARK                            x       y       z     vdW  Elec       q    Type
REMARK                         _______ _______ _______ _____ _____    ______ ____
ROOT
ATOM      1  C   UNL     1       3.260   4.544  18.148  0.00  0.00    +0.000 C 
ATOM      2  O   UNL     1       2.933   3.480  18.671  0.00  0.00    +0.000 OA
ENDROOT
BRANCH   1   9
ATOM      3  C   UNL     1       2.083   4.924  21.061  0.00  0.00    +0.000 C 
ATOM      4  C   UNL     1       2.129   5.992  20.002  0.00  0.00    +0.000 A 
ATOM      5  C   UNL     1       1.532   7.238  20.325  0.00  0.00    +0.000 A 
ATOM      6  C   UNL     1       1.631   8.350  19.478  0.00  0.00    +0.000 A 
ATOM      7  C   UNL     1       2.382   8.218  18.307  0.00  0.00    +0.000 A 
ATOM      8  C   UNL     1       2.931   6.981  17.944  0.00  0.00    +0.000 A 
ATOM      9  C   UNL     1       2.768   5.843  18.751  0.00  0.00    +0.000 A 
BRANCH   6  10
ATOM     10  C   UNL     1       0.866   9.638  19.750  0.00  0.00    +0.000 C 
BRANCH  10  11
ATOM     11  N   UNL     1       0.625  10.494  18.575  0.00  0.00    +0.000 NA
ATOM     12  C   UNL     1      -0.703  10.258  17.977  0.00  0.00    +0.000 C 
ATOM     13  C   UNL     1      -1.583  11.477  18.249  0.00  0.00    +0.000 C 
ATOM     14  C   UNL     1      -0.800  12.314  19.240  0.00  0.00    +0.000 C 
ATOM     15  C   UNL     1       0.646  11.921  18.959  0.00  0.00    +0.000 C 
BRANCH  14  16
ATOM     16  O   UNL     1      -1.043  13.701  19.054  0.00  0.00    +0.000 OA
ATOM     17  H   UNL     1      -1.988  13.822  18.855  0.00  0.00    +0.000 HD
ENDBRANCH  14  16
ENDBRANCH  10  11
ENDBRANCH   6  10
ENDBRANCH   1   9
BRANCH   1  18
ATOM     18  C   UNL     1       4.291   4.631  17.019  0.00  0.00    +0.000 C 
BRANCH  18  19
ATOM     19  N   UNL     1       5.606   5.251  17.243  0.00  0.00    +0.000 N 
ATOM     20  C   UNL     1       6.105   5.386  18.528  0.00  0.00    +0.000 A 
ATOM     21  C   UNL     1       7.109   6.232  18.790  0.00  0.00    +0.000 A 
ATOM     22  C   UNL     1       7.671   7.061  17.747  0.00  0.00    +0.000 A 
ATOM     23  C   UNL     1       7.315   6.844  16.478  0.00  0.00    +0.000 A 
ATOM     24  C   UNL     1       6.222   5.880  16.159  0.00  0.00    +0.000 A 
ATOM     25  O   UNL     1       5.871   5.757  14.987  0.00  0.00    +0.000 OA
BRANCH  22  26
ATOM     26  O   UNL     1       8.535   8.026  18.229  0.00  0.00    +0.000 OA
BRANCH  26  27
ATOM     27  C   UNL     1       8.067   9.377  18.296  0.00  0.00    +0.000 C 
BRANCH  27  28
ATOM     28  C   UNL     1       9.134  10.350  18.761  0.00  0.00    +0.000 A 
ATOM     29  C   UNL     1       9.305  10.701  20.107  0.00  0.00    +0.000 A 
ATOM     30  C   UNL     1      10.390  11.490  20.502  0.00  0.00    +0.000 A 
ATOM     31  C   UNL     1      11.311  11.943  19.559  0.00  0.00    +0.000 A 
ATOM     32  C   UNL     1      11.124  11.647  18.212  0.00  0.00    +0.000 A 
ATOM     33  C   UNL     1      10.039  10.864  17.815  0.00  0.00    +0.000 A 
ENDBRANCH  27  28
ENDBRANCH  26  27
ENDBRANCH  22  26
ENDBRANCH  18  19
ENDBRANCH   1  18
TORSDOF 9
ENDMDL
MODEL 9
REMARK VINA RESULT:      -8.1      3.648      7.156
REMARK  Name = 
REMARK  10 active torsions:
REMARK  status: ('A' for Active; 'I' for Inactive)
REMARK    1  A    between atoms: C_1  and  C_2
REMARK    2  A    between atoms: C_4  and  C_5
REMARK    3  A    between atoms: C_5  and  N_6
REMARK    4  A    between atoms: C_9  and  O_10
REMARK    5  A    between atoms: C_14  and  C_15
REMARK    6  A    between atoms: C_15  and  C_17
REMARK    7  A    between atoms: C_17  and  N_18
REMARK    8  A    between atoms: C_21  and  O_22
REMARK    9  A    between atoms: O_22  and  C_23
REMARK   10  A    between atoms: C_23  and  C_24
REMARK                            x       y       z     vdW  Elec       q    Type
REMARK                         _______ _______ _______ _____ _____    ______ ____
ROOT
ATOM      1  C   UNL     1       0.499  10.957  19.544  0.00  0.00    +0.000 C 
ATOM      2  O   UNL     1      -0.429  11.283  18.805  0.00  0.00    +0.000 OA
ENDROOT
BRANCH   1   9
ATOM      3  C   UNL     1       0.342   8.719  21.776  0.00  0.00    +0.000 C 
ATOM      4  C   UNL     1       1.101   8.596  20.482  0.00  0.00    +0.000 A 
ATOM      5  C   UNL     1       1.854   7.409  20.293  0.00  0.00    +0.000 A 
ATOM      6  C   UNL     1       2.490   7.119  19.078  0.00  0.00    +0.000 A 
ATOM      7  C   UNL     1       2.325   8.018  18.020  0.00  0.00    +0.000 A 
ATOM      8  C   UNL     1       1.631   9.220  18.205  0.00  0.00    +0.000 A 
ATOM      9  C   UNL     1       1.060   9.554  19.445  0.00  0.00    +0.000 A 
BRANCH   6  10
ATOM     10  C   UNL     1       3.421   5.925  18.923  0.00  0.00    +0.000 C 
BRANCH  10  11
ATOM     11  N   UNL     1       2.913   4.648  19.456  0.00  0.00    +0.000 NA
ATOM     12  C   UNL     1       1.717   4.177  18.730  0.00  0.00    +0.000 C 
ATOM     13  C   UNL     1       2.100   2.949  17.909  0.00  0.00    +0.000 C 
ATOM     14  C   UNL     1       3.611   2.877  17.987  0.00  0.00    +0.000 C 
ATOM     15  C   UNL     1       3.924   3.581  19.302  0.00  0.00    +0.000 C 
BRANCH  14  16
ATOM     16  O   UNL     1       4.071   1.534  17.954  0.00  0.00    +0.000 OA
ATOM     17  H   UNL     1       4.645   1.389  18.726  0.00  0.00    +0.000 HD
ENDBRANCH  14  16
ENDBRANCH  10  11
ENDBRANCH   6  10
ENDBRANCH   1   9
BRANCH   1  18
ATOM     18  C   UNL     1       1.238  11.956  20.438  0.00  0.00    +0.000 C 
BRANCH  18  19
ATOM     19  N   UNL     1       1.938  13.113  19.860  0.00  0.00    +0.000 N 
ATOM     20  C   UNL     1       2.296  13.116  18.523  0.00  0.00    +0.000 A 
ATOM     21  C   UNL     1       3.211  13.975  18.058  0.00  0.00    +0.000 A 
ATOM     22  C   UNL     1       3.885  14.894  18.948  0.00  0.00    +0.000 A 
ATOM     23  C   UNL     1       3.454  15.017  20.207  0.00  0.00    +0.000 A 
ATOM     24  C   UNL     1       2.409  14.093  20.736  0.00  0.00    +0.000 A 
ATOM     25  O   UNL     1       2.087  14.187  21.919  0.00  0.00    +0.000 OA
BRANCH  22  26
ATOM     26  O   UNL     1       4.948  15.546  18.352  0.00  0.00    +0.000 OA
BRANCH  26  27
ATOM     27  C   UNL     1       6.177  15.636  19.079  0.00  0.00    +0.000 C 
BRANCH  27  28
ATOM     28  C   UNL     1       7.132  14.499  18.769  0.00  0.00    +0.000 A 
ATOM     29  C   UNL     1       7.085  13.774  17.571  0.00  0.00    +0.000 A 
ATOM     30  C   UNL     1       8.074  12.832  17.272  0.00  0.00    +0.000 A 
ATOM     31  C   UNL     1       9.116  12.597  18.168  0.00  0.00    +0.000 A 
ATOM     32  C   UNL     1       9.147  13.271  19.385  0.00  0.00    +0.000 A 
ATOM     33  C   UNL     1       8.157  14.209  19.687  0.00  0.00    +0.000 A 
ENDBRANCH  27  28
ENDBRANCH  26  27
ENDBRANCH  22  26
ENDBRANCH  18  19
ENDBRANCH   1  18
TORSDOF 9
ENDMDL
