MODEL 1
REMARK VINA RESULT:      -7.2      0.000      0.000
REMARK  Name = 
REMARK  11 active torsions:
REMARK  status: ('A' for Active; 'I' for Inactive)
REMARK    1  A    between atoms: C_2  and  C_3
REMARK    2  A    between atoms: N_5  and  C_6
REMARK    3  A    between atoms: C_9  and  C_10
REMARK    4  A    between atoms: C_10  and  O_12
REMARK    5  A    between atoms: C_16  and  C_17
REMARK    6  A    between atoms: C_21  and  O_22
REMARK    7  A    between atoms: O_22  and  C_23
REMARK    8  A    between atoms: C_23  and  C_24
REMARK    9  A    between atoms: C_24  and  C_25
REMARK   10  A    between atoms: C_25  and  C_26
REMARK   11  A    between atoms: C_26  and  O_27
REMARK                            x       y       z     vdW  Elec       q    Type
REMARK                         _______ _______ _______ _____ _____    ______ ____
ROOT
ATOM      1  C   UNL     1       1.944   6.172  20.416  0.00  0.00    +0.000 A 
ATOM      2  C   UNL     1       1.333   7.300  20.931  0.00  0.00    +0.000 A 
ATOM      3  N   UNL     1       1.419   8.322  20.006  0.00  0.00    +0.000 N 
ATOM      4  C   UNL     1       2.115   7.830  18.925  0.00  0.00    +0.000 A 
ATOM      5  C   UNL     1       2.457   6.508  19.141  0.00  0.00    +0.000 A 
ENDROOT
BRANCH   3   6
ATOM      6  C   UNL     1       0.884   9.639  20.120  0.00  0.00    +0.000 A 
ATOM      7  C   UNL     1       0.236  10.043  21.291  0.00  0.00    +0.000 A 
ATOM      8  C   UNL     1      -0.284  11.335  21.392  0.00  0.00    +0.000 A 
ATOM      9  C   UNL     1      -0.174  12.238  20.328  0.00  0.00    +0.000 A 
ATOM     10  C   UNL     1       0.476  11.842  19.156  0.00  0.00    +0.000 A 
ATOM     11  C   UNL     1       1.002  10.550  19.055  0.00  0.00    +0.000 A 
BRANCH   9  12
ATOM     12  C   UNL     1      -0.699  13.612  20.532  0.00  0.00    +0.000 C 
ATOM     13  O   UNL     1      -0.665  14.163  21.619  0.00  0.00    +0.000 OA
BRANCH  12  14
ATOM     14  O   UNL     1      -1.240  14.183  19.437  0.00  0.00    +0.000 OA
ATOM     15  H   UNL     1      -1.724  13.591  18.837  0.00  0.00    +0.000 HD
ENDBRANCH  12  14
ENDBRANCH   9  12
ENDBRANCH   3   6
BRANCH   5  16
ATOM     16  C   UNL     1       3.196   5.740  18.151  0.00  0.00    +0.000 A 
ATOM     17  C   UNL     1       2.890   4.403  17.876  0.00  0.00    +0.000 A 
ATOM     18  C   UNL     1       3.633   3.697  16.934  0.00  0.00    +0.000 A 
ATOM     19  C   UNL     1       4.699   4.312  16.272  0.00  0.00    +0.000 A 
ATOM     20  C   UNL     1       5.032   5.634  16.558  0.00  0.00    +0.000 A 
ATOM     21  C   UNL     1       4.263   6.347  17.474  0.00  0.00    +0.000 A 
BRANCH  20  22
ATOM     22  O   UNL     1       6.096   6.151  15.872  0.00  0.00    +0.000 OA
BRANCH  22  23
ATOM     23  C   UNL     1       7.363   6.038  16.528  0.00  0.00    +0.000 C 
BRANCH  23  24
ATOM     24  C   UNL     1       7.652   7.339  17.267  0.00  0.00    +0.000 C 
BRANCH  24  25
ATOM     25  C   UNL     1       8.083   7.069  18.709  0.00  0.00    +0.000 C 
BRANCH  25  26
ATOM     26  C   UNL     1       7.810   5.630  19.111  0.00  0.00    +0.000 C 
BRANCH  26  27
ATOM     27  O   UNL     1       8.023   5.476  20.508  0.00  0.00    +0.000 OA
ATOM     28  H   UNL     1       8.866   5.913  20.722  0.00  0.00    +0.000 HD
ENDBRANCH  26  27
ENDBRANCH  25  26
ENDBRANCH  24  25
ENDBRANCH  23  24
ENDBRANCH  22  23
ENDBRANCH  20  22
ENDBRANCH   5  16
BRANCH   1  30
ATOM     29  N   UNL     1       2.045   3.883  21.625  0.00  0.00    +0.000 NA
ATOM     30  C   UNL     1       1.996   4.907  21.082  0.00  0.00    +0.000 C 
ENDBRANCH   1  30
TORSDOF 11
ENDMDL
MODEL 2
REMARK VINA RESULT:      -7.2      2.487      3.855
REMARK  Name = 
REMARK  11 active torsions:
REMARK  status: ('A' for Active; 'I' for Inactive)
REMARK    1  A    between atoms: C_2  and  C_3
REMARK    2  A    between atoms: N_5  and  C_6
REMARK    3  A    between atoms: C_9  and  C_10
REMARK    4  A    between atoms: C_10  and  O_12
REMARK    5  A    between atoms: C_16  and  C_17
REMARK    6  A    between atoms: C_21  and  O_22
REMARK    7  A    between atoms: O_22  and  C_23
REMARK    8  A    between atoms: C_23  and  C_24
REMARK    9  A    between atoms: C_24  and  C_25
REMARK   10  A    between atoms: C_25  and  C_26
REMARK   11  A    between atoms: C_26  and  O_27
REMARK                            x       y       z     vdW  Elec       q    Type
REMARK                         _______ _______ _______ _____ _____    ______ ____
ROOT
ATOM      1  C   UNL     1       3.059   5.042  19.623  0.00  0.00    +0.000 A 
ATOM      2  C   UNL     1       2.128   5.962  20.068  0.00  0.00    +0.000 A 
ATOM      3  N   UNL     1       2.338   7.165  19.423  0.00  0.00    +0.000 N 
ATOM      4  C   UNL     1       3.427   6.995  18.597  0.00  0.00    +0.000 A 
ATOM      5  C   UNL     1       3.900   5.699  18.694  0.00  0.00    +0.000 A 
ENDROOT
BRANCH   3   6
ATOM      6  C   UNL     1       1.578   8.364  19.559  0.00  0.00    +0.000 A 
ATOM      7  C   UNL     1       1.390   9.213  18.465  0.00  0.00    +0.000 A 
ATOM      8  C   UNL     1       0.644  10.385  18.610  0.00  0.00    +0.000 A 
ATOM      9  C   UNL     1       0.083  10.730  19.845  0.00  0.00    +0.000 A 
ATOM     10  C   UNL     1       0.264   9.884  20.942  0.00  0.00    +0.000 A 
ATOM     11  C   UNL     1       1.007   8.708  20.798  0.00  0.00    +0.000 A 
BRANCH   9  12
ATOM     12  C   UNL     1      -0.746  11.961  19.906  0.00  0.00    +0.000 C 
ATOM     13  O   UNL     1      -1.954  11.920  20.069  0.00  0.00    +0.000 OA
BRANCH  12  14
ATOM     14  O   UNL     1      -0.068  13.113  19.735  0.00  0.00    +0.000 OA
ATOM     15  H   UNL     1       0.790  13.045  19.281  0.00  0.00    +0.000 HD
ENDBRANCH  12  14
ENDBRANCH   9  12
ENDBRANCH   3   6
BRANCH   5  16
ATOM     16  C   UNL     1       5.044   5.246  17.920  0.00  0.00    +0.000 A 
ATOM     17  C   UNL     1       6.329   5.185  18.469  0.00  0.00    +0.000 A 
ATOM     18  C   UNL     1       7.403   4.763  17.690  0.00  0.00    +0.000 A 
ATOM     19  C   UNL     1       7.207   4.416  16.350  0.00  0.00    +0.000 A 
ATOM     20  C   UNL     1       5.938   4.500  15.782  0.00  0.00    +0.000 A 
ATOM     21  C   UNL     1       4.861   4.888  16.577  0.00  0.00    +0.000 A 
BRANCH  20  22
ATOM     22  O   UNL     1       5.841   4.153  14.463  0.00  0.00    +0.000 OA
BRANCH  22  23
ATOM     23  C   UNL     1       6.963   4.510  13.651  0.00  0.00    +0.000 C 
BRANCH  23  24
ATOM     24  C   UNL     1       6.718   4.017  12.229  0.00  0.00    +0.000 C 
BRANCH  24  25
ATOM     25  C   UNL     1       5.466   3.142  12.159  0.00  0.00    +0.000 C 
BRANCH  25  26
ATOM     26  C   UNL     1       5.744   1.829  11.448  0.00  0.00    +0.000 C 
BRANCH  26  27
ATOM     27  O   UNL     1       7.146   1.613  11.375  0.00  0.00    +0.000 OA
ATOM     28  H   UNL     1       7.447   1.358  12.265  0.00  0.00    +0.000 HD
ENDBRANCH  26  27
ENDBRANCH  25  26
ENDBRANCH  24  25
ENDBRANCH  23  24
ENDBRANCH  22  23
ENDBRANCH  20  22
ENDBRANCH   5  16
BRANCH   1  30
ATOM     29  N   UNL     1       3.135   2.565  20.378  0.00  0.00    +0.000 NA
ATOM     30  C   UNL     1       3.105   3.674  20.038  0.00  0.00    +0.000 C 
ENDBRANCH   1  30
TORSDOF 11
ENDMDL
MODEL 3
REMARK VINA RESULT:      -7.1      2.032      2.569
REMARK  Name = 
REMARK  11 active torsions:
REMARK  status: ('A' for Active; 'I' for Inactive)
REMARK    1  A    between atoms: C_2  and  C_3
REMARK    2  A    between atoms: N_5  and  C_6
REMARK    3  A    between atoms: C_9  and  C_10
REMARK    4  A    between atoms: C_10  and  O_12
REMARK    5  A    between atoms: C_16  and  C_17
REMARK    6  A    between atoms: C_21  and  O_22
REMARK    7  A    between atoms: O_22  and  C_23
REMARK    8  A    between atoms: C_23  and  C_24
REMARK    9  A    between atoms: C_24  and  C_25
REMARK   10  A    between atoms: C_25  and  C_26
REMARK   11  A    between atoms: C_26  and  O_27
REMARK                            x       y       z     vdW  Elec       q    Type
REMARK                         _______ _______ _______ _____ _____    ______ ____
ROOT
ATOM      1  C   UNL     1       2.528   5.090  19.753  0.00  0.00    +0.000 A 
ATOM      2  C   UNL     1       1.718   5.901  20.525  0.00  0.00    +0.000 A 
ATOM      3  N   UNL     1       1.869   7.212  20.117  0.00  0.00    +0.000 N 
ATOM      4  C   UNL     1       2.803   7.213  19.105  0.00  0.00    +0.000 A 
ATOM      5  C   UNL     1       3.234   5.924  18.854  0.00  0.00    +0.000 A 
ENDROOT
BRANCH   3   6
ATOM      6  C   UNL     1       1.189   8.359  20.620  0.00  0.00    +0.000 A 
ATOM      7  C   UNL     1       0.932   9.454  19.789  0.00  0.00    +0.000 A 
ATOM      8  C   UNL     1       0.265  10.573  20.293  0.00  0.00    +0.000 A 
ATOM      9  C   UNL     1      -0.147  10.620  21.630  0.00  0.00    +0.000 A 
ATOM     10  C   UNL     1       0.102   9.528  22.465  0.00  0.00    +0.000 A 
ATOM     11  C   UNL     1       0.766   8.405  21.961  0.00  0.00    +0.000 A 
BRANCH   9  12
ATOM     12  C   UNL     1      -0.903  11.818  22.077  0.00  0.00    +0.000 C 
ATOM     13  O   UNL     1      -0.625  12.413  23.104  0.00  0.00    +0.000 OA
BRANCH  12  14
ATOM     14  O   UNL     1      -1.931  12.172  21.279  0.00  0.00    +0.000 OA
ATOM     15  H   UNL     1      -1.775  12.926  20.685  0.00  0.00    +0.000 HD
ENDBRANCH  12  14
ENDBRANCH   9  12
ENDBRANCH   3   6
BRANCH   5  16
ATOM     16  C   UNL     1       4.221   5.637  17.825  0.00  0.00    +0.000 A 
ATOM     17  C   UNL     1       4.043   4.603  16.900  0.00  0.00    +0.000 A 
ATOM     18  C   UNL     1       5.020   4.348  15.941  0.00  0.00    +0.000 A 
ATOM     19  C   UNL     1       6.191   5.110  15.909  0.00  0.00    +0.000 A 
ATOM     20  C   UNL     1       6.394   6.125  16.842  0.00  0.00    +0.000 A 
ATOM     21  C   UNL     1       5.397   6.399  17.775  0.00  0.00    +0.000 A 
BRANCH  20  22
ATOM     22  O   UNL     1       7.572   6.811  16.743  0.00  0.00    +0.000 OA
BRANCH  22  23
ATOM     23  C   UNL     1       7.996   7.476  17.937  0.00  0.00    +0.000 C 
BRANCH  23  24
ATOM     24  C   UNL     1       8.040   8.977  17.675  0.00  0.00    +0.000 C 
BRANCH  24  25
ATOM     25  C   UNL     1       8.885   9.696  18.727  0.00  0.00    +0.000 C 
BRANCH  25  26
ATOM     26  C   UNL     1       9.168  11.133  18.327  0.00  0.00    +0.000 C 
BRANCH  26  27
ATOM     27  O   UNL     1       9.448  11.905  19.487  0.00  0.00    +0.000 OA
ATOM     28  H   UNL     1       8.816  12.645  19.502  0.00  0.00    +0.000 HD
ENDBRANCH  26  27
ENDBRANCH  25  26
ENDBRANCH  24  25
ENDBRANCH  23  24
ENDBRANCH  22  23
ENDBRANCH  20  22
ENDBRANCH   5  16
BRANCH   1  30
ATOM     29  N   UNL     1       2.624   2.509  19.952  0.00  0.00    +0.000 NA
ATOM     30  C   UNL     1       2.585   3.666  19.864  0.00  0.00    +0.000 C 
ENDBRANCH   1  30
TORSDOF 11
ENDMDL
MODEL 4
REMARK VINA RESULT:      -7.0      2.588      4.157
REMARK  Name = 
REMARK  11 active torsions:
REMARK  status: ('A' for Active; 'I' for Inactive)
REMARK    1  A    between atoms: C_2  and  C_3
REMARK    2  A    between atoms: N_5  and  C_6
REMARK    3  A    between atoms: C_9  and  C_10
REMARK    4  A    between atoms: C_10  and  O_12
REMARK    5  A    between atoms: C_16  and  C_17
REMARK    6  A    between atoms: C_21  and  O_22
REMARK    7  A    between atoms: O_22  and  C_23
REMARK    8  A    between atoms: C_23  and  C_24
REMARK    9  A    between atoms: C_24  and  C_25
REMARK   10  A    between atoms: C_25  and  C_26
REMARK   11  A    between atoms: C_26  and  O_27
REMARK                            x       y       z     vdW  Elec       q    Type
REMARK                         _______ _______ _______ _____ _____    ______ ____
ROOT
ATOM      1  C   UNL     1       2.642   4.861  18.310  0.00  0.00    +0.000 A 
ATOM      2  C   UNL     1       1.735   5.656  18.984  0.00  0.00    +0.000 A 
ATOM      3  N   UNL     1       2.300   6.897  19.208  0.00  0.00    +0.000 N 
ATOM      4  C   UNL     1       3.577   6.856  18.695  0.00  0.00    +0.000 A 
ATOM      5  C   UNL     1       3.825   5.617  18.135  0.00  0.00    +0.000 A 
ENDROOT
BRANCH   3   6
ATOM      6  C   UNL     1       1.692   8.024  19.835  0.00  0.00    +0.000 A 
ATOM      7  C   UNL     1       1.401   9.175  19.098  0.00  0.00    +0.000 A 
ATOM      8  C   UNL     1       0.806  10.274  19.722  0.00  0.00    +0.000 A 
ATOM      9  C   UNL     1       0.500  10.243  21.088  0.00  0.00    +0.000 A 
ATOM     10  C   UNL     1       0.783   9.094  21.830  0.00  0.00    +0.000 A 
ATOM     11  C   UNL     1       1.376   7.992  21.205  0.00  0.00    +0.000 A 
BRANCH   9  12
ATOM     12  C   UNL     1      -0.186  11.427  21.667  0.00  0.00    +0.000 C 
ATOM     13  O   UNL     1      -0.478  12.399  20.993  0.00  0.00    +0.000 OA
BRANCH  12  14
ATOM     14  O   UNL     1      -0.429  11.352  22.992  0.00  0.00    +0.000 OA
ATOM     15  H   UNL     1      -0.709  10.485  23.330  0.00  0.00    +0.000 HD
ENDBRANCH  12  14
ENDBRANCH   9  12
ENDBRANCH   3   6
BRANCH   5  16
ATOM     16  C   UNL     1       5.102   5.304  17.514  0.00  0.00    +0.000 A 
ATOM     17  C   UNL     1       6.193   4.843  18.259  0.00  0.00    +0.000 A 
ATOM     18  C   UNL     1       7.404   4.572  17.630  0.00  0.00    +0.000 A 
ATOM     19  C   UNL     1       7.545   4.776  16.255  0.00  0.00    +0.000 A 
ATOM     20  C   UNL     1       6.476   5.262  15.505  0.00  0.00    +0.000 A 
ATOM     21  C   UNL     1       5.256   5.497  16.133  0.00  0.00    +0.000 A 
BRANCH  20  22
ATOM     22  O   UNL     1       6.707   5.442  14.169  0.00  0.00    +0.000 OA
BRANCH  22  23
ATOM     23  C   UNL     1       6.832   4.241  13.401  0.00  0.00    +0.000 C 
BRANCH  23  24
ATOM     24  C   UNL     1       5.446   3.640  13.199  0.00  0.00    +0.000 C 
BRANCH  24  25
ATOM     25  C   UNL     1       5.310   3.024  11.806  0.00  0.00    +0.000 C 
BRANCH  25  26
ATOM     26  C   UNL     1       6.451   2.066  11.508  0.00  0.00    +0.000 C 
BRANCH  26  27
ATOM     27  O   UNL     1       5.954   0.737  11.443  0.00  0.00    +0.000 OA
ATOM     28  H   UNL     1       6.682   0.142  11.695  0.00  0.00    +0.000 HD
ENDBRANCH  26  27
ENDBRANCH  25  26
ENDBRANCH  24  25
ENDBRANCH  23  24
ENDBRANCH  22  23
ENDBRANCH  20  22
ENDBRANCH   5  16
BRANCH   1  30
ATOM     29  N   UNL     1       2.151   2.450  17.500  0.00  0.00    +0.000 NA
ATOM     30  C   UNL     1       2.374   3.529  17.866  0.00  0.00    +0.000 C 
ENDBRANCH   1  30
TORSDOF 11
ENDMDL
MODEL 5
REMARK VINA RESULT:      -7.0      2.246      3.683
REMARK  Name = 
REMARK  11 active torsions:
REMARK  status: ('A' for Active; 'I' for Inactive)
REMARK    1  A    between atoms: C_2  and  C_3
REMARK    2  A    between atoms: N_5  and  C_6
REMARK    3  A    between atoms: C_9  and  C_10
REMARK    4  A    between atoms: C_10  and  O_12
REMARK    5  A    between atoms: C_16  and  C_17
REMARK    6  A    between atoms: C_21  and  O_22
REMARK    7  A    between atoms: O_22  and  C_23
REMARK    8  A    between atoms: C_23  and  C_24
REMARK    9  A    between atoms: C_24  and  C_25
REMARK   10  A    between atoms: C_25  and  C_26
REMARK   11  A    between atoms: C_26  and  O_27
REMARK                            x       y       z     vdW  Elec       q    Type
REMARK                         _______ _______ _______ _____ _____    ______ ____
ROOT
ATOM      1  C   UNL     1       2.789   4.955  19.869  0.00  0.00    +0.000 A 
ATOM      2  C   UNL     1       1.826   5.746  20.467  0.00  0.00    +0.000 A 
ATOM      3  N   UNL     1       2.062   7.068  20.142  0.00  0.00    +0.000 N 
ATOM      4  C   UNL     1       3.197   7.095  19.363  0.00  0.00    +0.000 A 
ATOM      5  C   UNL     1       3.675   5.812  19.174  0.00  0.00    +0.000 A 
ENDROOT
BRANCH   3   6
ATOM      6  C   UNL     1       1.286   8.203  20.517  0.00  0.00    +0.000 A 
ATOM      7  C   UNL     1       0.782   8.321  21.816  0.00  0.00    +0.000 A 
ATOM      8  C   UNL     1       0.022   9.437  22.173  0.00  0.00    +0.000 A 
ATOM      9  C   UNL     1      -0.253  10.445  21.241  0.00  0.00    +0.000 A 
ATOM     10  C   UNL     1       0.251  10.337  19.943  0.00  0.00    +0.000 A 
ATOM     11  C   UNL     1       1.016   9.221  19.585  0.00  0.00    +0.000 A 
BRANCH   9  12
ATOM     12  C   UNL     1      -1.017  11.629  21.712  0.00  0.00    +0.000 C 
ATOM     13  O   UNL     1      -1.010  12.686  21.105  0.00  0.00    +0.000 OA
BRANCH  12  14
ATOM     14  O   UNL     1      -1.685  11.451  22.869  0.00  0.00    +0.000 OA
ATOM     15  H   UNL     1      -2.310  12.153  23.118  0.00  0.00    +0.000 HD
ENDBRANCH  12  14
ENDBRANCH   9  12
ENDBRANCH   3   6
BRANCH   5  16
ATOM     16  C   UNL     1       4.866   5.551  18.381  0.00  0.00    +0.000 A 
ATOM     17  C   UNL     1       6.061   5.117  18.965  0.00  0.00    +0.000 A 
ATOM     18  C   UNL     1       7.185   4.896  18.174  0.00  0.00    +0.000 A 
ATOM     19  C   UNL     1       7.133   5.124  16.796  0.00  0.00    +0.000 A 
ATOM     20  C   UNL     1       5.957   5.583  16.205  0.00  0.00    +0.000 A 
ATOM     21  C   UNL     1       4.825   5.768  16.997  0.00  0.00    +0.000 A 
BRANCH  20  22
ATOM     22  O   UNL     1       5.999   5.790  14.854  0.00  0.00    +0.000 OA
BRANCH  22  23
ATOM     23  C   UNL     1       6.834   4.887  14.122  0.00  0.00    +0.000 C 
BRANCH  23  24
ATOM     24  C   UNL     1       5.977   3.739  13.601  0.00  0.00    +0.000 C 
BRANCH  24  25
ATOM     25  C   UNL     1       6.386   3.347  12.181  0.00  0.00    +0.000 C 
BRANCH  25  26
ATOM     26  C   UNL     1       5.330   2.479  11.517  0.00  0.00    +0.000 C 
BRANCH  26  27
ATOM     27  O   UNL     1       4.100   3.186  11.458  0.00  0.00    +0.000 OA
ATOM     28  H   UNL     1       3.511   2.695  10.859  0.00  0.00    +0.000 HD
ENDBRANCH  26  27
ENDBRANCH  25  26
ENDBRANCH  24  25
ENDBRANCH  23  24
ENDBRANCH  22  23
ENDBRANCH  20  22
ENDBRANCH   5  16
BRANCH   1  30
ATOM     29  N   UNL     1       2.844   2.369  20.004  0.00  0.00    +0.000 NA
ATOM     30  C   UNL     1       2.822   3.528  19.946  0.00  0.00    +0.000 C 
ENDBRANCH   1  30
TORSDOF 11
ENDMDL
MODEL 6
REMARK VINA RESULT:      -6.9      2.654      4.109
REMARK  Name = 
REMARK  11 active torsions:
REMARK  status: ('A' for Active; 'I' for Inactive)
REMARK    1  A    between atoms: C_2  and  C_3
REMARK    2  A    between atoms: N_5  and  C_6
REMARK    3  A    between atoms: C_9  and  C_10
REMARK    4  A    between atoms: C_10  and  O_12
REMARK    5  A    between atoms: C_16  and  C_17
REMARK    6  A    between atoms: C_21  and  O_22
REMARK    7  A    between atoms: O_22  and  C_23
REMARK    8  A    between atoms: C_23  and  C_24
REMARK    9  A    between atoms: C_24  and  C_25
REMARK   10  A    between atoms: C_25  and  C_26
REMARK   11  A    between atoms: C_26  and  O_27
REMARK                            x       y       z     vdW  Elec       q    Type
REMARK                         _______ _______ _______ _____ _____    ______ ____
ROOT
ATOM      1  C   UNL     1       2.803   4.545  18.799  0.00  0.00    +0.000 A 
ATOM      2  C   UNL     1       1.896   5.393  19.406  0.00  0.00    +0.000 A 
ATOM      3  N   UNL     1       2.382   6.685  19.356  0.00  0.00    +0.000 N 
ATOM      4  C   UNL     1       3.613   6.629  18.742  0.00  0.00    +0.000 A 
ATOM      5  C   UNL     1       3.908   5.326  18.385  0.00  0.00    +0.000 A 
ENDROOT
BRANCH   3   6
ATOM      6  C   UNL     1       1.743   7.868  19.830  0.00  0.00    +0.000 A 
ATOM      7  C   UNL     1       1.334   7.968  21.163  0.00  0.00    +0.000 A 
ATOM      8  C   UNL     1       0.709   9.132  21.617  0.00  0.00    +0.000 A 
ATOM      9  C   UNL     1       0.477  10.207  20.750  0.00  0.00    +0.000 A 
ATOM     10  C   UNL     1       0.888  10.116  19.418  0.00  0.00    +0.000 A 
ATOM     11  C   UNL     1       1.518   8.952  18.963  0.00  0.00    +0.000 A 
BRANCH   9  12
ATOM     12  C   UNL     1      -0.138  11.432  21.321  0.00  0.00    +0.000 C 
ATOM     13  O   UNL     1      -0.582  12.322  20.616  0.00  0.00    +0.000 OA
BRANCH  12  14
ATOM     14  O   UNL     1      -0.137  11.495  22.668  0.00  0.00    +0.000 OA
ATOM     15  H   UNL     1      -0.958  11.226  23.112  0.00  0.00    +0.000 HD
ENDBRANCH  12  14
ENDBRANCH   9  12
ENDBRANCH   3   6
BRANCH   5  16
ATOM     16  C   UNL     1       5.150   4.983  17.712  0.00  0.00    +0.000 A 
ATOM     17  C   UNL     1       6.397   5.183  18.316  0.00  0.00    +0.000 A 
ATOM     18  C   UNL     1       7.564   4.858  17.631  0.00  0.00    +0.000 A 
ATOM     19  C   UNL     1       7.501   4.350  16.331  0.00  0.00    +0.000 A 
ATOM     20  C   UNL     1       6.268   4.172  15.707  0.00  0.00    +0.000 A 
ATOM     21  C   UNL     1       5.101   4.464  16.411  0.00  0.00    +0.000 A 
BRANCH  20  22
ATOM     22  O   UNL     1       6.300   3.681  14.432  0.00  0.00    +0.000 OA
BRANCH  22  23
ATOM     23  C   UNL     1       5.178   4.026  13.613  0.00  0.00    +0.000 C 
BRANCH  23  24
ATOM     24  C   UNL     1       5.363   3.397  12.237  0.00  0.00    +0.000 C 
BRANCH  24  25
ATOM     25  C   UNL     1       6.845   3.200  11.916  0.00  0.00    +0.000 C 
BRANCH  25  26
ATOM     26  C   UNL     1       7.085   1.897  11.173  0.00  0.00    +0.000 C 
BRANCH  26  27
ATOM     27  O   UNL     1       6.030   0.987  11.451  0.00  0.00    +0.000 OA
ATOM     28  H   UNL     1       5.473   0.937  10.655  0.00  0.00    +0.000 HD
ENDBRANCH  26  27
ENDBRANCH  25  26
ENDBRANCH  24  25
ENDBRANCH  23  24
ENDBRANCH  22  23
ENDBRANCH  20  22
ENDBRANCH   5  16
BRANCH   1  30
ATOM     29  N   UNL     1       2.435   2.000  18.484  0.00  0.00    +0.000 NA
ATOM     30  C   UNL     1       2.601   3.140  18.622  0.00  0.00    +0.000 C 
ENDBRANCH   1  30
TORSDOF 11
ENDMDL
MODEL 7
REMARK VINA RESULT:      -6.9      2.775      4.499
REMARK  Name = 
REMARK  11 active torsions:
REMARK  status: ('A' for Active; 'I' for Inactive)
REMARK    1  A    between atoms: C_2  and  C_3
REMARK    2  A    between atoms: N_5  and  C_6
REMARK    3  A    between atoms: C_9  and  C_10
REMARK    4  A    between atoms: C_10  and  O_12
REMARK    5  A    between atoms: C_16  and  C_17
REMARK    6  A    between atoms: C_21  and  O_22
REMARK    7  A    between atoms: O_22  and  C_23
REMARK    8  A    between atoms: C_23  and  C_24
REMARK    9  A    between atoms: C_24  and  C_25
REMARK   10  A    between atoms: C_25  and  C_26
REMARK   11  A    between atoms: C_26  and  O_27
REMARK                            x       y       z     vdW  Elec       q    Type
REMARK                         _______ _______ _______ _____ _____    ______ ____
ROOT
ATOM      1  C   UNL     1       3.721   4.942  19.174  0.00  0.00    +0.000 A 
ATOM      2  C   UNL     1       2.801   5.733  19.837  0.00  0.00    +0.000 A 
ATOM      3  N   UNL     1       2.690   6.944  19.182  0.00  0.00    +0.000 N 
ATOM      4  C   UNL     1       3.571   6.911  18.124  0.00  0.00    +0.000 A 
ATOM      5  C   UNL     1       4.226   5.694  18.087  0.00  0.00    +0.000 A 
ENDROOT
BRANCH   3   6
ATOM      6  C   UNL     1       1.826   8.029  19.510  0.00  0.00    +0.000 A 
ATOM      7  C   UNL     1       1.298   8.152  20.798  0.00  0.00    +0.000 A 
ATOM      8  C   UNL     1       0.453   9.219  21.109  0.00  0.00    +0.000 A 
ATOM      9  C   UNL     1       0.116  10.172  20.141  0.00  0.00    +0.000 A 
ATOM     10  C   UNL     1       0.643  10.059  18.852  0.00  0.00    +0.000 A 
ATOM     11  C   UNL     1       1.494   8.992  18.541  0.00  0.00    +0.000 A 
BRANCH   9  12
ATOM     12  C   UNL     1      -0.741  11.310  20.563  0.00  0.00    +0.000 C 
ATOM     13  O   UNL     1      -1.032  12.217  19.803  0.00  0.00    +0.000 OA
BRANCH  12  14
ATOM     14  O   UNL     1      -1.139  11.275  21.851  0.00  0.00    +0.000 OA
ATOM     15  H   UNL     1      -1.653  10.496  22.121  0.00  0.00    +0.000 HD
ENDBRANCH  12  14
ENDBRANCH   9  12
ENDBRANCH   3   6
BRANCH   5  16
ATOM     16  C   UNL     1       5.212   5.390  17.063  0.00  0.00    +0.000 A 
ATOM     17  C   UNL     1       6.481   5.979  17.061  0.00  0.00    +0.000 A 
ATOM     18  C   UNL     1       7.390   5.675  16.052  0.00  0.00    +0.000 A 
ATOM     19  C   UNL     1       7.036   4.796  15.025  0.00  0.00    +0.000 A 
ATOM     20  C   UNL     1       5.766   4.225  14.999  0.00  0.00    +0.000 A 
ATOM     21  C   UNL     1       4.873   4.503  16.031  0.00  0.00    +0.000 A 
BRANCH  20  22
ATOM     22  O   UNL     1       5.501   3.386  13.952  0.00  0.00    +0.000 OA
BRANCH  22  23
ATOM     23  C   UNL     1       6.314   3.579  12.790  0.00  0.00    +0.000 C 
BRANCH  23  24
ATOM     24  C   UNL     1       5.552   3.079  11.568  0.00  0.00    +0.000 C 
BRANCH  24  25
ATOM     25  C   UNL     1       4.092   3.530  11.607  0.00  0.00    +0.000 C 
BRANCH  25  26
ATOM     26  C   UNL     1       3.368   3.187  10.316  0.00  0.00    +0.000 C 
BRANCH  26  27
ATOM     27  O   UNL     1       2.879   4.376   9.713  0.00  0.00    +0.000 OA
ATOM     28  H   UNL     1       3.539   4.662   9.058  0.00  0.00    +0.000 HD
ENDBRANCH  26  27
ENDBRANCH  25  26
ENDBRANCH  24  25
ENDBRANCH  23  24
ENDBRANCH  22  23
ENDBRANCH  20  22
ENDBRANCH   5  16
BRANCH   1  30
ATOM     29  N   UNL     1       4.304   2.509  19.846  0.00  0.00    +0.000 NA
ATOM     30  C   UNL     1       4.047   3.600  19.545  0.00  0.00    +0.000 C 
ENDBRANCH   1  30
TORSDOF 11
ENDMDL
MODEL 8
REMARK VINA RESULT:      -6.9      3.277      8.976
REMARK  Name = 
REMARK  11 active torsions:
REMARK  status: ('A' for Active; 'I' for Inactive)
REMARK    1  A    between atoms: C_2  and  C_3
REMARK    2  A    between atoms: N_5  and  C_6
REMARK    3  A    between atoms: C_9  and  C_10
REMARK    4  A    between atoms: C_10  and  O_12
REMARK    5  A    between atoms: C_16  and  C_17
REMARK    6  A    between atoms: C_21  and  O_22
REMARK    7  A    between atoms: O_22  and  C_23
REMARK    8  A    between atoms: C_23  and  C_24
REMARK    9  A    between atoms: C_24  and  C_25
REMARK   10  A    between atoms: C_25  and  C_26
REMARK   11  A    between atoms: C_26  and  O_27
REMARK                            x       y       z     vdW  Elec       q    Type
REMARK                         _______ _______ _______ _____ _____    ______ ____
ROOT
ATOM      1  C   UNL     1       0.511   9.240  21.529  0.00  0.00    +0.000 A 
ATOM      2  C   UNL     1       1.060   7.981  21.679  0.00  0.00    +0.000 A 
ATOM      3  N   UNL     1       1.564   7.560  20.464  0.00  0.00    +0.000 N 
ATOM      4  C   UNL     1       1.295   8.554  19.551  0.00  0.00    +0.000 A 
ATOM      5  C   UNL     1       0.645   9.606  20.169  0.00  0.00    +0.000 A 
ENDROOT
BRANCH   3   6
ATOM      6  C   UNL     1       2.248   6.340  20.187  0.00  0.00    +0.000 A 
ATOM      7  C   UNL     1       3.304   6.311  19.271  0.00  0.00    +0.000 A 
ATOM      8  C   UNL     1       3.967   5.110  19.007  0.00  0.00    +0.000 A 
ATOM      9  C   UNL     1       3.583   3.924  19.644  0.00  0.00    +0.000 A 
ATOM     10  C   UNL     1       2.531   3.947  20.563  0.00  0.00    +0.000 A 
ATOM     11  C   UNL     1       1.869   5.149  20.832  0.00  0.00    +0.000 A 
BRANCH   9  12
ATOM     12  C   UNL     1       4.374   2.700  19.356  0.00  0.00    +0.000 C 
ATOM     13  O   UNL     1       5.009   2.121  20.220  0.00  0.00    +0.000 OA
BRANCH  12  14
ATOM     14  O   UNL     1       4.359   2.303  18.067  0.00  0.00    +0.000 OA
ATOM     15  H   UNL     1       4.876   2.842  17.444  0.00  0.00    +0.000 HD
ENDBRANCH  12  14
ENDBRANCH   9  12
ENDBRANCH   3   6
BRANCH   5  16
ATOM     16  C   UNL     1       0.248  10.795  19.432  0.00  0.00    +0.000 A 
ATOM     17  C   UNL     1       0.965  11.993  19.521  0.00  0.00    +0.000 A 
ATOM     18  C   UNL     1       0.541  13.115  18.815  0.00  0.00    +0.000 A 
ATOM     19  C   UNL     1      -0.612  13.058  18.028  0.00  0.00    +0.000 A 
ATOM     20  C   UNL     1      -1.352  11.880  17.953  0.00  0.00    +0.000 A 
ATOM     21  C   UNL     1      -0.904  10.750  18.633  0.00  0.00    +0.000 A 
BRANCH  20  22
ATOM     22  O   UNL     1      -2.472  11.918  17.169  0.00  0.00    +0.000 OA
BRANCH  22  23
ATOM     23  C   UNL     1      -3.433  10.888  17.423  0.00  0.00    +0.000 C 
BRANCH  23  24
ATOM     24  C   UNL     1      -3.157   9.717  16.488  0.00  0.00    +0.000 C 
BRANCH  24  25
ATOM     25  C   UNL     1      -2.795  10.206  15.084  0.00  0.00    +0.000 C 
BRANCH  25  26
ATOM     26  C   UNL     1      -3.992  10.151  14.150  0.00  0.00    +0.000 C 
BRANCH  26  27
ATOM     27  O   UNL     1      -3.544  10.018  12.809  0.00  0.00    +0.000 OA
ATOM     28  H   UNL     1      -4.282   9.652  12.291  0.00  0.00    +0.000 HD
ENDBRANCH  26  27
ENDBRANCH  25  26
ENDBRANCH  24  25
ENDBRANCH  23  24
ENDBRANCH  22  23
ENDBRANCH  20  22
ENDBRANCH   5  16
BRANCH   1  30
ATOM     29  N   UNL     1      -0.514  10.623  23.466  0.00  0.00    +0.000 NA
ATOM     30  C   UNL     1      -0.055  10.007  22.596  0.00  0.00    +0.000 C 
ENDBRANCH   1  30
TORSDOF 11
ENDMDL
MODEL 9
REMARK VINA RESULT:      -6.9      2.518      3.819
REMARK  Name = 
REMARK  11 active torsions:
REMARK  status: ('A' for Active; 'I' for Inactive)
REMARK    1  A    between atoms: C_2  and  C_3
REMARK    2  A    between atoms: N_5  and  C_6
REMARK    3  A    between atoms: C_9  and  C_10
REMARK    4  A    between atoms: C_10  and  O_12
REMARK    5  A    between atoms: C_16  and  C_17
REMARK    6  A    between atoms: C_21  and  O_22
REMARK    7  A    between atoms: O_22  and  C_23
REMARK    8  A    between atoms: C_23  and  C_24
REMARK    9  A    between atoms: C_24  and  C_25
REMARK   10  A    between atoms: C_25  and  C_26
REMARK   11  A    between atoms: C_26  and  O_27
REMARK                            x       y       z     vdW  Elec       q    Type
REMARK                         _______ _______ _______ _____ _____    ______ ____
ROOT
ATOM      1  C   UNL     1       2.492   4.871  19.779  0.00  0.00    +0.000 A 
ATOM      2  C   UNL     1       1.631   5.733  20.431  0.00  0.00    +0.000 A 
ATOM      3  N   UNL     1       2.012   7.035  20.171  0.00  0.00    +0.000 N 
ATOM      4  C   UNL     1       3.135   6.975  19.377  0.00  0.00    +0.000 A 
ATOM      5  C   UNL     1       3.463   5.658  19.115  0.00  0.00    +0.000 A 
ENDROOT
BRANCH   3   6
ATOM      6  C   UNL     1       1.372   8.229  20.616  0.00  0.00    +0.000 A 
ATOM      7  C   UNL     1       1.004   9.220  19.702  0.00  0.00    +0.000 A 
ATOM      8  C   UNL     1       0.378  10.386  20.149  0.00  0.00    +0.000 A 
ATOM      9  C   UNL     1       0.117  10.583  21.510  0.00  0.00    +0.000 A 
ATOM     10  C   UNL     1       0.478   9.595  22.429  0.00  0.00    +0.000 A 
ATOM     11  C   UNL     1       1.101   8.425  21.982  0.00  0.00    +0.000 A 
BRANCH   9  12
ATOM     12  C   UNL     1      -0.605  11.821  21.901  0.00  0.00    +0.000 C 
ATOM     13  O   UNL     1      -0.718  12.164  23.065  0.00  0.00    +0.000 OA
BRANCH  12  14
ATOM     14  O   UNL     1      -1.148  12.511  20.877  0.00  0.00    +0.000 OA
ATOM     15  H   UNL     1      -1.466  11.984  20.124  0.00  0.00    +0.000 HD
ENDBRANCH  12  14
ENDBRANCH   9  12
ENDBRANCH   3   6
BRANCH   5  16
ATOM     16  C   UNL     1       4.609   5.307  18.291  0.00  0.00    +0.000 A 
ATOM     17  C   UNL     1       5.875   5.085  18.844  0.00  0.00    +0.000 A 
ATOM     18  C   UNL     1       6.951   4.769  18.019  0.00  0.00    +0.000 A 
ATOM     19  C   UNL     1       6.778   4.691  16.634  0.00  0.00    +0.000 A 
ATOM     20  C   UNL     1       5.529   4.938  16.068  0.00  0.00    +0.000 A 
ATOM     21  C   UNL     1       4.448   5.218  16.901  0.00  0.00    +0.000 A 
BRANCH  20  22
ATOM     22  O   UNL     1       5.455   4.851  14.706  0.00  0.00    +0.000 OA
BRANCH  22  23
ATOM     23  C   UNL     1       6.332   3.894  14.103  0.00  0.00    +0.000 C 
BRANCH  23  24
ATOM     24  C   UNL     1       5.759   3.485  12.752  0.00  0.00    +0.000 C 
BRANCH  24  25
ATOM     25  C   UNL     1       6.836   3.514  11.666  0.00  0.00    +0.000 C 
BRANCH  25  26
ATOM     26  C   UNL     1       7.282   2.113  11.286  0.00  0.00    +0.000 C 
BRANCH  26  27
ATOM     27  O   UNL     1       6.182   1.219  11.386  0.00  0.00    +0.000 OA
ATOM     28  H   UNL     1       6.067   0.802  10.514  0.00  0.00    +0.000 HD
ENDBRANCH  26  27
ENDBRANCH  25  26
ENDBRANCH  24  25
ENDBRANCH  23  24
ENDBRANCH  22  23
ENDBRANCH  20  22
ENDBRANCH   5  16
BRANCH   1  30
ATOM     29  N   UNL     1       2.266   2.291  19.780  0.00  0.00    +0.000 NA
ATOM     30  C   UNL     1       2.365   3.447  19.782  0.00  0.00    +0.000 C 
ENDBRANCH   1  30
TORSDOF 11
ENDMDL
