MODEL 1
REMARK VINA RESULT:      -6.6      0.000      0.000
REMARK  Name = 
REMARK  4 active torsions:
REMARK  status: ('A' for Active; 'I' for Inactive)
REMARK    1  A    between atoms: C_1  and  C_2
REMARK    2  A    between atoms: C_5  and  C_6
REMARK    3  A    between atoms: C_7  and  C_8
REMARK    4  A    between atoms: C_16  and  C_17
REMARK                            x       y       z     vdW  Elec       q    Type
REMARK                         _______ _______ _______ _____ _____    ______ ____
ROOT
ATOM      1  C   UNL     1       3.958   0.653  18.669  0.00  0.00    +0.000 C 
ATOM      2  C   UNL     1       3.990   2.114  18.196  0.00  0.00    +0.000 C 
ATOM      3  C   UNL     1       2.602   2.602  17.874  0.00  0.00    +0.000 C 
ATOM      4  O   UNL     1       2.253   2.784  16.716  0.00  0.00    +0.000 OA
ATOM      5  C   UNL     1       1.686   2.893  19.038  0.00  0.00    +0.000 C 
ATOM      6  C   UNL     1       0.253   3.307  18.648  0.00  0.00    +0.000 C 
ATOM      7  C   UNL     1       2.378   3.913  19.983  0.00  0.00    +0.000 C 
ATOM      8  N   UNL     1       3.731   3.427  20.352  0.00  0.00    +0.000 NA
ATOM      9  C   UNL     1       4.653   3.082  19.236  0.00  0.00    +0.000 C 
ATOM     10  H   UNL     1       4.175   4.049  21.068  0.00  0.00    +0.000 HD
ENDROOT
BRANCH   7  11
ATOM     11  C   UNL     1       2.344   5.400  19.585  0.00  0.00    +0.000 A 
ATOM     12  C   UNL     1       2.011   6.350  20.573  0.00  0.00    +0.000 A 
ATOM     13  C   UNL     1       1.848   7.702  20.242  0.00  0.00    +0.000 A 
ATOM     14  C   UNL     1       2.007   8.128  18.925  0.00  0.00    +0.000 A 
ATOM     15 CL   UNL     1       1.751   9.813  18.500  0.00  0.00    +0.000 Cl
ATOM     16  C   UNL     1       2.354   7.206  17.938  0.00  0.00    +0.000 A 
ATOM     17  C   UNL     1       2.523   5.856  18.263  0.00  0.00    +0.000 A 
ENDBRANCH   7  11
BRANCH   9  18
ATOM     18  C   UNL     1       5.333   4.309  18.631  0.00  0.00    +0.000 A 
ATOM     19  C   UNL     1       6.052   5.169  19.486  0.00  0.00    +0.000 A 
ATOM     20  C   UNL     1       6.783   6.244  18.970  0.00  0.00    +0.000 A 
ATOM     21  C   UNL     1       6.810   6.475  17.594  0.00  0.00    +0.000 A 
ATOM     22 CL   UNL     1       7.764   7.793  16.940  0.00  0.00    +0.000 Cl
ATOM     23  C   UNL     1       6.091   5.646  16.734  0.00  0.00    +0.000 A 
ATOM     24  C   UNL     1       5.356   4.576  17.243  0.00  0.00    +0.000 A 
ENDBRANCH   9  18
TORSDOF 2
ENDMDL
MODEL 2
REMARK VINA RESULT:      -6.6      2.709      4.684
REMARK  Name = 
REMARK  4 active torsions:
REMARK  status: ('A' for Active; 'I' for Inactive)
REMARK    1  A    between atoms: C_1  and  C_2
REMARK    2  A    between atoms: C_5  and  C_6
REMARK    3  A    between atoms: C_7  and  C_8
REMARK    4  A    between atoms: C_16  and  C_17
REMARK                            x       y       z     vdW  Elec       q    Type
REMARK                         _______ _______ _______ _____ _____    ______ ____
ROOT
ATOM      1  C   UNL     1       7.442   4.111  15.946  0.00  0.00    +0.000 C 
ATOM      2  C   UNL     1       6.426   4.319  17.079  0.00  0.00    +0.000 C 
ATOM      3  C   UNL     1       6.664   5.634  17.774  0.00  0.00    +0.000 C 
ATOM      4  O   UNL     1       7.138   5.673  18.901  0.00  0.00    +0.000 OA
ATOM      5  C   UNL     1       6.252   6.886  17.039  0.00  0.00    +0.000 C 
ATOM      6  C   UNL     1       6.596   8.204  17.761  0.00  0.00    +0.000 C 
ATOM      7  C   UNL     1       4.752   6.776  16.654  0.00  0.00    +0.000 C 
ATOM      8  N   UNL     1       4.505   5.508  15.924  0.00  0.00    +0.000 NA
ATOM      9  C   UNL     1       4.939   4.250  16.590  0.00  0.00    +0.000 C 
ATOM     10  H   UNL     1       3.522   5.461  15.568  0.00  0.00    +0.000 HD
ENDROOT
BRANCH   7  11
ATOM     11  C   UNL     1       3.706   7.074  17.744  0.00  0.00    +0.000 A 
ATOM     12  C   UNL     1       2.773   8.107  17.514  0.00  0.00    +0.000 A 
ATOM     13  C   UNL     1       1.877   8.501  18.516  0.00  0.00    +0.000 A 
ATOM     14  C   UNL     1       1.899   7.880  19.764  0.00  0.00    +0.000 A 
ATOM     15 CL   UNL     1       0.812   8.409  21.038  0.00  0.00    +0.000 Cl
ATOM     16  C   UNL     1       2.802   6.845  20.003  0.00  0.00    +0.000 A 
ATOM     17  C   UNL     1       3.696   6.443  19.005  0.00  0.00    +0.000 A 
ENDBRANCH   7  11
BRANCH   9  18
ATOM     18  C   UNL     1       3.939   3.763  17.638  0.00  0.00    +0.000 A 
ATOM     19  C   UNL     1       4.430   3.337  18.889  0.00  0.00    +0.000 A 
ATOM     20  C   UNL     1       3.554   2.985  19.920  0.00  0.00    +0.000 A 
ATOM     21  C   UNL     1       2.174   3.057  19.721  0.00  0.00    +0.000 A 
ATOM     22 CL   UNL     1       1.073   2.664  21.027  0.00  0.00    +0.000 Cl
ATOM     23  C   UNL     1       1.670   3.460  18.485  0.00  0.00    +0.000 A 
ATOM     24  C   UNL     1       2.538   3.806  17.451  0.00  0.00    +0.000 A 
ENDBRANCH   9  18
TORSDOF 2
ENDMDL
MODEL 3
REMARK VINA RESULT:      -6.4      2.741      4.732
REMARK  Name = 
REMARK  4 active torsions:
REMARK  status: ('A' for Active; 'I' for Inactive)
REMARK    1  A    between atoms: C_1  and  C_2
REMARK    2  A    between atoms: C_5  and  C_6
REMARK    3  A    between atoms: C_7  and  C_8
REMARK    4  A    between atoms: C_16  and  C_17
REMARK                            x       y       z     vdW  Elec       q    Type
REMARK                         _______ _______ _______ _____ _____    ______ ____
ROOT
ATOM      1  C   UNL     1       7.147   3.801  15.262  0.00  0.00    +0.000 C 
ATOM      2  C   UNL     1       6.233   4.001  16.482  0.00  0.00    +0.000 C 
ATOM      3  C   UNL     1       6.715   5.151  17.326  0.00  0.00    +0.000 C 
ATOM      4  O   UNL     1       7.242   4.955  18.413  0.00  0.00    +0.000 OA
ATOM      5  C   UNL     1       6.479   6.543  16.795  0.00  0.00    +0.000 C 
ATOM      6  C   UNL     1       7.067   7.676  17.660  0.00  0.00    +0.000 C 
ATOM      7  C   UNL     1       4.964   6.724  16.504  0.00  0.00    +0.000 C 
ATOM      8  N   UNL     1       4.479   5.626  15.631  0.00  0.00    +0.000 NA
ATOM      9  C   UNL     1       4.733   4.234  16.093  0.00  0.00    +0.000 C 
ATOM     10  H   UNL     1       3.486   5.783  15.341  0.00  0.00    +0.000 HD
ENDROOT
BRANCH   7  11
ATOM     11  C   UNL     1       4.034   7.021  17.695  0.00  0.00    +0.000 A 
ATOM     12  C   UNL     1       4.177   6.247  18.866  0.00  0.00    +0.000 A 
ATOM     13  C   UNL     1       3.283   6.391  19.935  0.00  0.00    +0.000 A 
ATOM     14  C   UNL     1       2.230   7.301  19.854  0.00  0.00    +0.000 A 
ATOM     15 CL   UNL     1       1.078   7.445  21.172  0.00  0.00    +0.000 Cl
ATOM     16  C   UNL     1       2.083   8.086  18.711  0.00  0.00    +0.000 A 
ATOM     17  C   UNL     1       2.976   7.951  17.643  0.00  0.00    +0.000 A 
ENDBRANCH   7  11
BRANCH   9  18
ATOM     18  C   UNL     1       3.718   3.763  17.134  0.00  0.00    +0.000 A 
ATOM     19  C   UNL     1       4.184   3.034  18.246  0.00  0.00    +0.000 A 
ATOM     20  C   UNL     1       3.317   2.674  19.281  0.00  0.00    +0.000 A 
ATOM     21  C   UNL     1       1.971   3.040  19.225  0.00  0.00    +0.000 A 
ATOM     22 CL   UNL     1       0.890   2.633  20.544  0.00  0.00    +0.000 Cl
ATOM     23  C   UNL     1       1.487   3.747  18.125  0.00  0.00    +0.000 A 
ATOM     24  C   UNL     1       2.346   4.104  17.087  0.00  0.00    +0.000 A 
ENDBRANCH   9  18
TORSDOF 2
ENDMDL
MODEL 4
REMARK VINA RESULT:      -6.3      2.236      3.878
REMARK  Name = 
REMARK  4 active torsions:
REMARK  status: ('A' for Active; 'I' for Inactive)
REMARK    1  A    between atoms: C_1  and  C_2
REMARK    2  A    between atoms: C_5  and  C_6
REMARK    3  A    between atoms: C_7  and  C_8
REMARK    4  A    between atoms: C_16  and  C_17
REMARK                            x       y       z     vdW  Elec       q    Type
REMARK                         _______ _______ _______ _____ _____    ______ ____
ROOT
ATOM      1  C   UNL     1       2.202   2.228  17.910  0.00  0.00    +0.000 C 
ATOM      2  C   UNL     1       3.027   3.355  17.270  0.00  0.00    +0.000 C 
ATOM      3  C   UNL     1       2.808   4.655  17.998  0.00  0.00    +0.000 C 
ATOM      4  O   UNL     1       2.155   5.557  17.490  0.00  0.00    +0.000 OA
ATOM      5  C   UNL     1       3.462   4.808  19.349  0.00  0.00    +0.000 C 
ATOM      6  C   UNL     1       3.134   6.124  20.083  0.00  0.00    +0.000 C 
ATOM      7  C   UNL     1       4.987   4.555  19.204  0.00  0.00    +0.000 C 
ATOM      8  N   UNL     1       5.226   3.254  18.533  0.00  0.00    +0.000 NA
ATOM      9  C   UNL     1       4.561   3.040  17.218  0.00  0.00    +0.000 C 
ATOM     10  H   UNL     1       6.245   3.017  18.515  0.00  0.00    +0.000 HD
ENDROOT
BRANCH   7  11
ATOM     11  C   UNL     1       5.857   5.701  18.654  0.00  0.00    +0.000 A 
ATOM     12  C   UNL     1       7.197   5.790  19.086  0.00  0.00    +0.000 A 
ATOM     13  C   UNL     1       8.000   6.877  18.714  0.00  0.00    +0.000 A 
ATOM     14  C   UNL     1       7.480   7.894  17.914  0.00  0.00    +0.000 A 
ATOM     15 CL   UNL     1       8.470   9.282  17.491  0.00  0.00    +0.000 Cl
ATOM     16  C   UNL     1       6.163   7.813  17.464  0.00  0.00    +0.000 A 
ATOM     17  C   UNL     1       5.358   6.728  17.827  0.00  0.00    +0.000 A 
ENDBRANCH   7  11
BRANCH   9  18
ATOM     18  C   UNL     1       5.315   3.697  16.063  0.00  0.00    +0.000 A 
ATOM     19  C   UNL     1       6.665   4.053  16.256  0.00  0.00    +0.000 A 
ATOM     20  C   UNL     1       7.431   4.556  15.201  0.00  0.00    +0.000 A 
ATOM     21  C   UNL     1       6.863   4.709  13.935  0.00  0.00    +0.000 A 
ATOM     22 CL   UNL     1       7.835   5.293  12.597  0.00  0.00    +0.000 Cl
ATOM     23  C   UNL     1       5.525   4.378  13.728  0.00  0.00    +0.000 A 
ATOM     24  C   UNL     1       4.754   3.881  14.778  0.00  0.00    +0.000 A 
ENDBRANCH   9  18
TORSDOF 2
ENDMDL
MODEL 5
REMARK VINA RESULT:      -6.3      1.475      4.514
REMARK  Name = 
REMARK  4 active torsions:
REMARK  status: ('A' for Active; 'I' for Inactive)
REMARK    1  A    between atoms: C_1  and  C_2
REMARK    2  A    between atoms: C_5  and  C_6
REMARK    3  A    between atoms: C_7  and  C_8
REMARK    4  A    between atoms: C_16  and  C_17
REMARK                            x       y       z     vdW  Elec       q    Type
REMARK                         _______ _______ _______ _____ _____    ______ ____
ROOT
ATOM      1  C   UNL     1       0.390   1.998  19.276  0.00  0.00    +0.000 C 
ATOM      2  C   UNL     1       1.322   3.197  19.511  0.00  0.00    +0.000 C 
ATOM      3  C   UNL     1       2.666   2.737  20.012  0.00  0.00    +0.000 C 
ATOM      4  O   UNL     1       3.000   2.920  21.174  0.00  0.00    +0.000 OA
ATOM      5  C   UNL     1       3.589   2.087  19.011  0.00  0.00    +0.000 C 
ATOM      6  C   UNL     1       4.914   1.561  19.597  0.00  0.00    +0.000 C 
ATOM      7  C   UNL     1       3.794   3.051  17.811  0.00  0.00    +0.000 C 
ATOM      8  N   UNL     1       2.480   3.478  17.270  0.00  0.00    +0.000 NA
ATOM      9  C   UNL     1       1.518   4.082  18.232  0.00  0.00    +0.000 C 
ATOM     10  H   UNL     1       2.595   4.047  16.400  0.00  0.00    +0.000 HD
ENDROOT
BRANCH   7  11
ATOM     11  C   UNL     1       4.796   4.208  17.982  0.00  0.00    +0.000 A 
ATOM     12  C   UNL     1       5.259   4.869  16.824  0.00  0.00    +0.000 A 
ATOM     13  C   UNL     1       6.258   5.847  16.908  0.00  0.00    +0.000 A 
ATOM     14  C   UNL     1       6.818   6.177  18.141  0.00  0.00    +0.000 A 
ATOM     15 CL   UNL     1       8.108   7.366  18.241  0.00  0.00    +0.000 Cl
ATOM     16  C   UNL     1       6.361   5.547  19.298  0.00  0.00    +0.000 A 
ATOM     17  C   UNL     1       5.359   4.573  19.222  0.00  0.00    +0.000 A 
ENDBRANCH   7  11
BRANCH   9  18
ATOM     18  C   UNL     1       1.808   5.557  18.508  0.00  0.00    +0.000 A 
ATOM     19  C   UNL     1       1.954   6.430  17.411  0.00  0.00    +0.000 A 
ATOM     20  C   UNL     1       2.111   7.805  17.607  0.00  0.00    +0.000 A 
ATOM     21  C   UNL     1       2.120   8.331  18.900  0.00  0.00    +0.000 A 
ATOM     22 CL   UNL     1       2.268  10.060  19.147  0.00  0.00    +0.000 Cl
ATOM     23  C   UNL     1       1.993   7.481  19.998  0.00  0.00    +0.000 A 
ATOM     24  C   UNL     1       1.842   6.108  19.810  0.00  0.00    +0.000 A 
ENDBRANCH   9  18
TORSDOF 2
ENDMDL
MODEL 6
REMARK VINA RESULT:      -6.2      2.220      3.773
REMARK  Name = 
REMARK  4 active torsions:
REMARK  status: ('A' for Active; 'I' for Inactive)
REMARK    1  A    between atoms: C_1  and  C_2
REMARK    2  A    between atoms: C_5  and  C_6
REMARK    3  A    between atoms: C_7  and  C_8
REMARK    4  A    between atoms: C_16  and  C_17
REMARK                            x       y       z     vdW  Elec       q    Type
REMARK                         _______ _______ _______ _____ _____    ______ ____
ROOT
ATOM      1  C   UNL     1       2.049   2.151  17.830  0.00  0.00    +0.000 C 
ATOM      2  C   UNL     1       2.914   3.308  17.307  0.00  0.00    +0.000 C 
ATOM      3  C   UNL     1       2.687   4.554  18.123  0.00  0.00    +0.000 C 
ATOM      4  O   UNL     1       2.069   5.503  17.660  0.00  0.00    +0.000 OA
ATOM      5  C   UNL     1       3.291   4.593  19.505  0.00  0.00    +0.000 C 
ATOM      6  C   UNL     1       2.955   5.856  20.323  0.00  0.00    +0.000 C 
ATOM      7  C   UNL     1       4.816   4.324  19.399  0.00  0.00    +0.000 C 
ATOM      8  N   UNL     1       5.061   3.073  18.641  0.00  0.00    +0.000 NA
ATOM      9  C   UNL     1       4.445   2.970  17.290  0.00  0.00    +0.000 C 
ATOM     10  H   UNL     1       6.077   2.820  18.643  0.00  0.00    +0.000 HD
ENDROOT
BRANCH   7  11
ATOM     11  C   UNL     1       5.724   5.492  18.970  0.00  0.00    +0.000 A 
ATOM     12  C   UNL     1       5.215   6.434  18.051  0.00  0.00    +0.000 A 
ATOM     13  C   UNL     1       6.032   7.447  17.535  0.00  0.00    +0.000 A 
ATOM     14  C   UNL     1       7.370   7.536  17.918  0.00  0.00    +0.000 A 
ATOM     15 CL   UNL     1       8.409   8.774  17.231  0.00  0.00    +0.000 Cl
ATOM     16  C   UNL     1       7.885   6.625  18.839  0.00  0.00    +0.000 A 
ATOM     17  C   UNL     1       7.073   5.614  19.363  0.00  0.00    +0.000 A 
ENDBRANCH   7  11
BRANCH   9  18
ATOM     18  C   UNL     1       5.252   3.698  16.216  0.00  0.00    +0.000 A 
ATOM     19  C   UNL     1       6.630   3.903  16.434  0.00  0.00    +0.000 A 
ATOM     20  C   UNL     1       7.436   4.465  15.440  0.00  0.00    +0.000 A 
ATOM     21  C   UNL     1       6.882   4.828  14.212  0.00  0.00    +0.000 A 
ATOM     22 CL   UNL     1       7.899   5.488  12.945  0.00  0.00    +0.000 Cl
ATOM     23  C   UNL     1       5.518   4.649  13.983  0.00  0.00    +0.000 A 
ATOM     24  C   UNL     1       4.707   4.094  14.973  0.00  0.00    +0.000 A 
ENDBRANCH   9  18
TORSDOF 2
ENDMDL
MODEL 7
REMARK VINA RESULT:      -6.1      0.403      1.076
REMARK  Name = 
REMARK  4 active torsions:
REMARK  status: ('A' for Active; 'I' for Inactive)
REMARK    1  A    between atoms: C_1  and  C_2
REMARK    2  A    between atoms: C_5  and  C_6
REMARK    3  A    between atoms: C_7  and  C_8
REMARK    4  A    between atoms: C_16  and  C_17
REMARK                            x       y       z     vdW  Elec       q    Type
REMARK                         _______ _______ _______ _____ _____    ______ ____
ROOT
ATOM      1  C   UNL     1       4.058   0.427  19.000  0.00  0.00    +0.000 C 
ATOM      2  C   UNL     1       4.012   1.854  18.432  0.00  0.00    +0.000 C 
ATOM      3  C   UNL     1       2.600   2.243  18.080  0.00  0.00    +0.000 C 
ATOM      4  O   UNL     1       2.246   2.330  16.912  0.00  0.00    +0.000 OA
ATOM      5  C   UNL     1       1.666   2.560  19.222  0.00  0.00    +0.000 C 
ATOM      6  C   UNL     1       0.214   2.868  18.806  0.00  0.00    +0.000 C 
ATOM      7  C   UNL     1       2.299   3.675  20.098  0.00  0.00    +0.000 C 
ATOM      8  N   UNL     1       3.675   3.289  20.498  0.00  0.00    +0.000 NA
ATOM      9  C   UNL     1       4.618   2.922  19.407  0.00  0.00    +0.000 C 
ATOM     10  H   UNL     1       4.082   3.980  21.171  0.00  0.00    +0.000 HD
ENDROOT
BRANCH   7  11
ATOM     11  C   UNL     1       2.185   5.129  19.604  0.00  0.00    +0.000 A 
ATOM     12  C   UNL     1       2.309   5.377  18.220  0.00  0.00    +0.000 A 
ATOM     13  C   UNL     1       2.333   6.687  17.726  0.00  0.00    +0.000 A 
ATOM     14  C   UNL     1       2.243   7.770  18.598  0.00  0.00    +0.000 A 
ATOM     15 CL   UNL     1       2.326   9.414  17.985  0.00  0.00    +0.000 Cl
ATOM     16  C   UNL     1       2.103   7.544  19.967  0.00  0.00    +0.000 A 
ATOM     17  C   UNL     1       2.072   6.238  20.467  0.00  0.00    +0.000 A 
ENDBRANCH   7  11
BRANCH   9  18
ATOM     18  C   UNL     1       5.231   4.143  18.722  0.00  0.00    +0.000 A 
ATOM     19  C   UNL     1       5.825   5.137  19.526  0.00  0.00    +0.000 A 
ATOM     20  C   UNL     1       6.496   6.219  18.949  0.00  0.00    +0.000 A 
ATOM     21  C   UNL     1       6.589   6.324  17.560  0.00  0.00    +0.000 A 
ATOM     22 CL   UNL     1       7.472   7.653  16.833  0.00  0.00    +0.000 Cl
ATOM     23  C   UNL     1       5.994   5.359  16.748  0.00  0.00    +0.000 A 
ATOM     24  C   UNL     1       5.319   4.281  17.318  0.00  0.00    +0.000 A 
ENDBRANCH   9  18
TORSDOF 2
ENDMDL
MODEL 8
REMARK VINA RESULT:      -6.0      2.212      3.946
REMARK  Name = 
REMARK  4 active torsions:
REMARK  status: ('A' for Active; 'I' for Inactive)
REMARK    1  A    between atoms: C_1  and  C_2
REMARK    2  A    between atoms: C_5  and  C_6
REMARK    3  A    between atoms: C_7  and  C_8
REMARK    4  A    between atoms: C_16  and  C_17
REMARK                            x       y       z     vdW  Elec       q    Type
REMARK                         _______ _______ _______ _____ _____    ______ ____
ROOT
ATOM      1  C   UNL     1       2.208   2.215  18.048  0.00  0.00    +0.000 C 
ATOM      2  C   UNL     1       3.081   3.283  17.371  0.00  0.00    +0.000 C 
ATOM      3  C   UNL     1       2.852   4.634  17.998  0.00  0.00    +0.000 C 
ATOM      4  O   UNL     1       2.240   5.507  17.399  0.00  0.00    +0.000 OA
ATOM      5  C   UNL     1       3.446   4.870  19.364  0.00  0.00    +0.000 C 
ATOM      6  C   UNL     1       3.108   6.238  19.990  0.00  0.00    +0.000 C 
ATOM      7  C   UNL     1       4.971   4.585  19.310  0.00  0.00    +0.000 C 
ATOM      8  N   UNL     1       5.217   3.237  18.741  0.00  0.00    +0.000 NA
ATOM      9  C   UNL     1       4.610   2.942  17.414  0.00  0.00    +0.000 C 
ATOM     10  H   UNL     1       6.232   2.984  18.788  0.00  0.00    +0.000 HD
ENDROOT
BRANCH   7  11
ATOM     11  C   UNL     1       5.886   5.677  18.724  0.00  0.00    +0.000 A 
ATOM     12  C   UNL     1       7.205   5.779  19.214  0.00  0.00    +0.000 A 
ATOM     13  C   UNL     1       8.043   6.825  18.807  0.00  0.00    +0.000 A 
ATOM     14  C   UNL     1       7.580   7.790  17.913  0.00  0.00    +0.000 A 
ATOM     15 CL   UNL     1       8.612   9.131  17.443  0.00  0.00    +0.000 Cl
ATOM     16  C   UNL     1       6.285   7.695  17.405  0.00  0.00    +0.000 A 
ATOM     17  C   UNL     1       5.445   6.650  17.803  0.00  0.00    +0.000 A 
ENDBRANCH   7  11
BRANCH   9  18
ATOM     18  C   UNL     1       5.427   3.507  16.253  0.00  0.00    +0.000 A 
ATOM     19  C   UNL     1       4.782   3.720  15.017  0.00  0.00    +0.000 A 
ATOM     20  C   UNL     1       5.453   4.336  13.957  0.00  0.00    +0.000 A 
ATOM     21  C   UNL     1       6.777   4.751  14.112  0.00  0.00    +0.000 A 
ATOM     22 CL   UNL     1       7.605   5.567  12.800  0.00  0.00    +0.000 Cl
ATOM     23  C   UNL     1       7.437   4.534  15.321  0.00  0.00    +0.000 A 
ATOM     24  C   UNL     1       6.775   3.916  16.381  0.00  0.00    +0.000 A 
ENDBRANCH   9  18
TORSDOF 2
ENDMDL
MODEL 9
REMARK VINA RESULT:      -6.0      2.716      4.809
REMARK  Name = 
REMARK  4 active torsions:
REMARK  status: ('A' for Active; 'I' for Inactive)
REMARK    1  A    between atoms: C_1  and  C_2
REMARK    2  A    between atoms: C_5  and  C_6
REMARK    3  A    between atoms: C_7  and  C_8
REMARK    4  A    between atoms: C_16  and  C_17
REMARK                            x       y       z     vdW  Elec       q    Type
REMARK                         _______ _______ _______ _____ _____    ______ ____
ROOT
ATOM      1  C   UNL     1       7.469   4.134  16.148  0.00  0.00    +0.000 C 
ATOM      2  C   UNL     1       6.454   4.407  17.268  0.00  0.00    +0.000 C 
ATOM      3  C   UNL     1       6.659   5.781  17.850  0.00  0.00    +0.000 C 
ATOM      4  O   UNL     1       7.138   5.924  18.967  0.00  0.00    +0.000 OA
ATOM      5  C   UNL     1       6.210   6.957  17.019  0.00  0.00    +0.000 C 
ATOM      6  C   UNL     1       6.522   8.338  17.627  0.00  0.00    +0.000 C 
ATOM      7  C   UNL     1       4.711   6.776  16.655  0.00  0.00    +0.000 C 
ATOM      8  N   UNL     1       4.495   5.446  16.033  0.00  0.00    +0.000 NA
ATOM      9  C   UNL     1       4.966   4.258  16.797  0.00  0.00    +0.000 C 
ATOM     10  H   UNL     1       3.512   5.343  15.689  0.00  0.00    +0.000 HD
ENDROOT
BRANCH   7  11
ATOM     11  C   UNL     1       3.664   7.133  17.725  0.00  0.00    +0.000 A 
ATOM     12  C   UNL     1       2.782   8.205  17.468  0.00  0.00    +0.000 A 
ATOM     13  C   UNL     1       1.890   8.652  18.451  0.00  0.00    +0.000 A 
ATOM     14  C   UNL     1       1.865   8.046  19.706  0.00  0.00    +0.000 A 
ATOM     15 CL   UNL     1       0.783   8.639  20.956  0.00  0.00    +0.000 Cl
ATOM     16  C   UNL     1       2.716   6.974  19.972  0.00  0.00    +0.000 A 
ATOM     17  C   UNL     1       3.605   6.519  18.993  0.00  0.00    +0.000 A 
ENDBRANCH   7  11
BRANCH   9  18
ATOM     18  C   UNL     1       3.986   3.832  17.889  0.00  0.00    +0.000 A 
ATOM     19  C   UNL     1       2.614   3.759  17.570  0.00  0.00    +0.000 A 
ATOM     20  C   UNL     1       1.689   3.271  18.497  0.00  0.00    +0.000 A 
ATOM     21  C   UNL     1       2.117   2.846  19.755  0.00  0.00    +0.000 A 
ATOM     22 CL   UNL     1       0.966   2.188  20.902  0.00  0.00    +0.000 Cl
ATOM     23  C   UNL     1       3.467   2.925  20.095  0.00  0.00    +0.000 A 
ATOM     24  C   UNL     1       4.394   3.417  19.177  0.00  0.00    +0.000 A 
ENDBRANCH   9  18
TORSDOF 2
ENDMDL
