MODEL 1
REMARK VINA RESULT:      -8.6      0.000      0.000
REMARK  Name = 
REMARK  5 active torsions:
REMARK  status: ('A' for Active; 'I' for Inactive)
REMARK    1  A    between atoms: C_5  and  C_6
REMARK    2  A    between atoms: N_8  and  C_9
REMARK    3  A    between atoms: C_9  and  C_10
REMARK    4  A    between atoms: C_10  and  N_11
REMARK    5  A    between atoms: C_16  and  C_17
REMARK                            x       y       z     vdW  Elec       q    Type
REMARK                         _______ _______ _______ _____ _____    ______ ____
ROOT
ATOM      1  C   UNL     1       7.609   7.413  17.273  0.00  0.00    +0.000 C 
ENDROOT
BRANCH   1   2
ATOM      2  N   UNL     1       6.583   6.479  17.718  0.00  0.00    +0.000 N 
ATOM      3  C   UNL     1       6.873   5.482  18.612  0.00  0.00    +0.000 C 
ATOM      4  O   UNL     1       7.954   5.235  19.117  0.00  0.00    +0.000 OA
ATOM      5  S   UNL     1       5.428   4.556  18.974  0.00  0.00    +0.000 S 
ATOM      6  C   UNL     1       4.451   5.514  17.931  0.00  0.00    +0.000 C 
ATOM      7  C   UNL     1       3.126   5.414  17.741  0.00  0.00    +0.000 C 
ATOM      8  C   UNL     1       5.291   6.541  17.252  0.00  0.00    +0.000 C 
ATOM      9  O   UNL     1       4.869   7.317  16.408  0.00  0.00    +0.000 OA
BRANCH   7  10
ATOM     10  C   UNL     1       2.260   4.453  18.424  0.00  0.00    +0.000 A 
ATOM     11  C   UNL     1       1.739   4.728  19.690  0.00  0.00    +0.000 A 
ATOM     12  C   UNL     1       0.953   3.773  20.334  0.00  0.00    +0.000 A 
ATOM     13  C   UNL     1       0.704   2.577  19.683  0.00  0.00    +0.000 A 
ATOM     14  N   UNL     1       1.180   2.279  18.455  0.00  0.00    +0.000 NA
ATOM     15  C   UNL     1       1.947   3.221  17.856  0.00  0.00    +0.000 A 
ENDBRANCH   7  10
ENDBRANCH   1   2
BRANCH   1  16
ATOM     16  C   UNL     1       8.215   8.230  18.422  0.00  0.00    +0.000 C 
BRANCH  16  19
ATOM     17  C   UNL     1       9.267  10.419  18.883  0.00  0.00    +0.000 C 
ATOM     18  O   UNL     1       9.264  10.283  20.096  0.00  0.00    +0.000 OA
ATOM     19  N   UNL     1       8.778   9.497  17.985  0.00  0.00    +0.000 N 
ATOM     20  H   UNL     1       8.800   9.749  17.000  0.00  0.00    +0.000 HD
BRANCH  17  25
ATOM     21  O   UNL     1      11.235  15.108  16.658  0.00  0.00    +0.000 OA
ATOM     22  C   UNL     1      10.864  14.021  17.097  0.00  0.00    +0.000 C 
ATOM     23  C   UNL     1      11.814  12.872  17.283  0.00  0.00    +0.000 C 
ATOM     24  C   UNL     1      11.327  11.855  18.290  0.00  0.00    +0.000 C 
ATOM     25  C   UNL     1       9.831  11.704  18.271  0.00  0.00    +0.000 C 
ATOM     26  N   UNL     1       9.004  12.616  17.848  0.00  0.00    +0.000 NA
ATOM     27  N   UNL     1       9.541  13.770  17.355  0.00  0.00    +0.000 N 
ATOM     28  H   UNL     1       8.892  14.526  17.145  0.00  0.00    +0.000 HD
ENDBRANCH  17  25
ENDBRANCH  16  19
ENDBRANCH   1  16
TORSDOF 5
ENDMDL
MODEL 2
REMARK VINA RESULT:      -8.3      0.652      1.013
REMARK  Name = 
REMARK  5 active torsions:
REMARK  status: ('A' for Active; 'I' for Inactive)
REMARK    1  A    between atoms: C_5  and  C_6
REMARK    2  A    between atoms: N_8  and  C_9
REMARK    3  A    between atoms: C_9  and  C_10
REMARK    4  A    between atoms: C_10  and  N_11
REMARK    5  A    between atoms: C_16  and  C_17
REMARK                            x       y       z     vdW  Elec       q    Type
REMARK                         _______ _______ _______ _____ _____    ______ ____
ROOT
ATOM      1  C   UNL     1       7.844   7.689  17.426  0.00  0.00    +0.000 C 
ENDROOT
BRANCH   1   2
ATOM      2  N   UNL     1       6.822   6.735  17.839  0.00  0.00    +0.000 N 
ATOM      3  C   UNL     1       7.085   5.780  18.785  0.00  0.00    +0.000 C 
ATOM      4  O   UNL     1       8.139   5.587  19.367  0.00  0.00    +0.000 OA
ATOM      5  S   UNL     1       5.651   4.817  19.087  0.00  0.00    +0.000 S 
ATOM      6  C   UNL     1       4.713   5.705  17.950  0.00  0.00    +0.000 C 
ATOM      7  C   UNL     1       3.407   5.553  17.680  0.00  0.00    +0.000 C 
ATOM      8  C   UNL     1       5.561   6.737  17.289  0.00  0.00    +0.000 C 
ATOM      9  O   UNL     1       5.170   7.469  16.392  0.00  0.00    +0.000 OA
BRANCH   7  10
ATOM     10  C   UNL     1       2.530   4.586  18.340  0.00  0.00    +0.000 A 
ATOM     11  C   UNL     1       2.211   3.372  17.729  0.00  0.00    +0.000 A 
ATOM     12  C   UNL     1       1.336   2.490  18.363  0.00  0.00    +0.000 A 
ATOM     13  C   UNL     1       0.818   2.849  19.596  0.00  0.00    +0.000 A 
ATOM     14  N   UNL     1       1.111   4.008  20.224  0.00  0.00    +0.000 NA
ATOM     15  C   UNL     1       1.957   4.849  19.581  0.00  0.00    +0.000 A 
ENDBRANCH   7  10
ENDBRANCH   1   2
BRANCH   1  16
ATOM     16  C   UNL     1       8.279   8.628  18.559  0.00  0.00    +0.000 C 
BRANCH  16  19
ATOM     17  C   UNL     1       9.482  10.758  18.916  0.00  0.00    +0.000 C 
ATOM     18  O   UNL     1       9.658  10.581  20.110  0.00  0.00    +0.000 OA
ATOM     19  N   UNL     1       8.823   9.887  18.077  0.00  0.00    +0.000 N 
ATOM     20  H   UNL     1       8.706  10.172  17.107  0.00  0.00    +0.000 HD
BRANCH  17  25
ATOM     21  O   UNL     1      11.292  15.443  16.551  0.00  0.00    +0.000 OA
ATOM     22  C   UNL     1      10.943  14.356  17.008  0.00  0.00    +0.000 C 
ATOM     23  C   UNL     1      11.842  13.153  16.976  0.00  0.00    +0.000 C 
ATOM     24  C   UNL     1      11.483  12.115  18.014  0.00  0.00    +0.000 C 
ATOM     25  C   UNL     1      10.002  12.040  18.260  0.00  0.00    +0.000 C 
ATOM     26  N   UNL     1       9.168  13.013  18.029  0.00  0.00    +0.000 NA
ATOM     27  N   UNL     1       9.674  14.161  17.491  0.00  0.00    +0.000 N 
ATOM     28  H   UNL     1       9.044  14.957  17.432  0.00  0.00    +0.000 HD
ENDBRANCH  17  25
ENDBRANCH  16  19
ENDBRANCH   1  16
TORSDOF 5
ENDMDL
MODEL 3
REMARK VINA RESULT:      -8.3      0.934      1.338
REMARK  Name = 
REMARK  5 active torsions:
REMARK  status: ('A' for Active; 'I' for Inactive)
REMARK    1  A    between atoms: C_5  and  C_6
REMARK    2  A    between atoms: N_8  and  C_9
REMARK    3  A    between atoms: C_9  and  C_10
REMARK    4  A    between atoms: C_10  and  N_11
REMARK    5  A    between atoms: C_16  and  C_17
REMARK                            x       y       z     vdW  Elec       q    Type
REMARK                         _______ _______ _______ _____ _____    ______ ____
ROOT
ATOM      1  C   UNL     1       7.582   7.415  17.306  0.00  0.00    +0.000 C 
ENDROOT
BRANCH   1   2
ATOM      2  N   UNL     1       6.570   6.475  17.773  0.00  0.00    +0.000 N 
ATOM      3  C   UNL     1       6.883   5.481  18.662  0.00  0.00    +0.000 C 
ATOM      4  O   UNL     1       7.976   5.240  19.145  0.00  0.00    +0.000 OA
ATOM      5  S   UNL     1       5.451   4.547  19.054  0.00  0.00    +0.000 S 
ATOM      6  C   UNL     1       4.448   5.498  18.030  0.00  0.00    +0.000 C 
ATOM      7  C   UNL     1       3.120   5.392  17.868  0.00  0.00    +0.000 C 
ATOM      8  C   UNL     1       5.268   6.530  17.334  0.00  0.00    +0.000 C 
ATOM      9  O   UNL     1       4.825   7.302  16.497  0.00  0.00    +0.000 OA
BRANCH   7  10
ATOM     10  C   UNL     1       2.273   4.426  18.569  0.00  0.00    +0.000 A 
ATOM     11  C   UNL     1       1.886   3.233  17.956  0.00  0.00    +0.000 A 
ATOM     12  C   UNL     1       1.041   2.353  18.632  0.00  0.00    +0.000 A 
ATOM     13  C   UNL     1       0.621   2.692  19.907  0.00  0.00    +0.000 A 
ATOM     14  N   UNL     1       0.983   3.831  20.537  0.00  0.00    +0.000 NA
ATOM     15  C   UNL     1       1.797   4.671  19.854  0.00  0.00    +0.000 A 
ENDBRANCH   7  10
ENDBRANCH   1   2
BRANCH   1  16
ATOM     16  C   UNL     1       8.191   8.250  18.439  0.00  0.00    +0.000 C 
BRANCH  16  19
ATOM     17  C   UNL     1       9.300  10.421  18.855  0.00  0.00    +0.000 C 
ATOM     18  O   UNL     1       9.358  10.279  20.065  0.00  0.00    +0.000 OA
ATOM     19  N   UNL     1       8.750   9.511  17.980  0.00  0.00    +0.000 N 
ATOM     20  H   UNL     1       8.725   9.768  16.995  0.00  0.00    +0.000 HD
BRANCH  17  25
ATOM     21  O   UNL     1      11.363  15.014  16.520  0.00  0.00    +0.000 OA
ATOM     22  C   UNL     1      10.881  14.052  17.114  0.00  0.00    +0.000 C 
ATOM     23  C   UNL     1       9.698  14.192  18.029  0.00  0.00    +0.000 C 
ATOM     24  C   UNL     1       8.943  12.898  18.228  0.00  0.00    +0.000 C 
ATOM     25  C   UNL     1       9.851  11.700  18.220  0.00  0.00    +0.000 C 
ATOM     26  N   UNL     1      11.018  11.665  17.644  0.00  0.00    +0.000 NA
ATOM     27  N   UNL     1      11.457  12.809  17.043  0.00  0.00    +0.000 N 
ATOM     28  H   UNL     1      12.308  12.740  16.489  0.00  0.00    +0.000 HD
ENDBRANCH  17  25
ENDBRANCH  16  19
ENDBRANCH   1  16
TORSDOF 5
ENDMDL
MODEL 4
REMARK VINA RESULT:      -7.9      5.492      7.188
REMARK  Name = 
REMARK  5 active torsions:
REMARK  status: ('A' for Active; 'I' for Inactive)
REMARK    1  A    between atoms: C_5  and  C_6
REMARK    2  A    between atoms: N_8  and  C_9
REMARK    3  A    between atoms: C_9  and  C_10
REMARK    4  A    between atoms: C_10  and  N_11
REMARK    5  A    between atoms: C_16  and  C_17
REMARK                            x       y       z     vdW  Elec       q    Type
REMARK                         _______ _______ _______ _____ _____    ______ ____
ROOT
ATOM      1  C   UNL     1       2.788   2.838  19.418  0.00  0.00    +0.000 C 
ENDROOT
BRANCH   1   2
ATOM      2  N   UNL     1       2.431   4.240  19.595  0.00  0.00    +0.000 N 
ATOM      3  C   UNL     1       2.189   4.757  20.840  0.00  0.00    +0.000 C 
ATOM      4  O   UNL     1       2.216   4.162  21.905  0.00  0.00    +0.000 OA
ATOM      5  S   UNL     1       1.823   6.468  20.724  0.00  0.00    +0.000 S 
ATOM      6  C   UNL     1       2.002   6.477  19.014  0.00  0.00    +0.000 C 
ATOM      7  C   UNL     1       1.924   7.536  18.194  0.00  0.00    +0.000 C 
ATOM      8  C   UNL     1       2.303   5.099  18.529  0.00  0.00    +0.000 C 
ATOM      9  O   UNL     1       2.416   4.801  17.350  0.00  0.00    +0.000 OA
BRANCH   7  10
ATOM     10  C   UNL     1       1.680   8.910  18.635  0.00  0.00    +0.000 A 
ATOM     11  C   UNL     1       2.121   9.996  17.876  0.00  0.00    +0.000 A 
ATOM     12  C   UNL     1       1.913  11.293  18.344  0.00  0.00    +0.000 A 
ATOM     13  C   UNL     1       1.258  11.460  19.552  0.00  0.00    +0.000 A 
ATOM     14  N   UNL     1       0.806  10.436  20.308  0.00  0.00    +0.000 NA
ATOM     15  C   UNL     1       1.029   9.187  19.834  0.00  0.00    +0.000 A 
ENDBRANCH   7  10
ENDBRANCH   1   2
BRANCH   1  16
ATOM     16  C   UNL     1       4.303   2.611  19.349  0.00  0.00    +0.000 C 
BRANCH  16  19
ATOM     17  C   UNL     1       5.764   4.125  18.050  0.00  0.00    +0.000 C 
ATOM     18  O   UNL     1       6.110   4.789  19.012  0.00  0.00    +0.000 OA
ATOM     19  N   UNL     1       4.892   3.061  18.098  0.00  0.00    +0.000 N 
ATOM     20  H   UNL     1       4.650   2.615  17.216  0.00  0.00    +0.000 HD
BRANCH  17  25
ATOM     21  O   UNL     1       7.767   5.451  13.046  0.00  0.00    +0.000 OA
ATOM     22  C   UNL     1       7.235   5.152  14.113  0.00  0.00    +0.000 C 
ATOM     23  C   UNL     1       6.043   4.241  14.180  0.00  0.00    +0.000 C 
ATOM     24  C   UNL     1       5.873   3.582  15.530  0.00  0.00    +0.000 C 
ATOM     25  C   UNL     1       6.302   4.476  16.660  0.00  0.00    +0.000 C 
ATOM     26  N   UNL     1       7.149   5.457  16.541  0.00  0.00    +0.000 NA
ATOM     27  N   UNL     1       7.648   5.710  15.296  0.00  0.00    +0.000 N 
ATOM     28  H   UNL     1       8.400   6.391  15.232  0.00  0.00    +0.000 HD
ENDBRANCH  17  25
ENDBRANCH  16  19
ENDBRANCH   1  16
TORSDOF 5
ENDMDL
MODEL 5
REMARK VINA RESULT:      -7.9      1.177      1.407
REMARK  Name = 
REMARK  5 active torsions:
REMARK  status: ('A' for Active; 'I' for Inactive)
REMARK    1  A    between atoms: C_5  and  C_6
REMARK    2  A    between atoms: N_8  and  C_9
REMARK    3  A    between atoms: C_9  and  C_10
REMARK    4  A    between atoms: C_10  and  N_11
REMARK    5  A    between atoms: C_16  and  C_17
REMARK                            x       y       z     vdW  Elec       q    Type
REMARK                         _______ _______ _______ _____ _____    ______ ____
ROOT
ATOM      1  C   UNL     1       7.616   7.439  17.183  0.00  0.00    +0.000 C 
ENDROOT
BRANCH   1   2
ATOM      2  N   UNL     1       6.599   6.520  17.678  0.00  0.00    +0.000 N 
ATOM      3  C   UNL     1       6.904   5.557  18.603  0.00  0.00    +0.000 C 
ATOM      4  O   UNL     1       7.994   5.330  19.101  0.00  0.00    +0.000 OA
ATOM      5  S   UNL     1       5.467   4.642  19.020  0.00  0.00    +0.000 S 
ATOM      6  C   UNL     1       4.472   5.559  17.958  0.00  0.00    +0.000 C 
ATOM      7  C   UNL     1       3.145   5.451  17.793  0.00  0.00    +0.000 C 
ATOM      8  C   UNL     1       5.299   6.562  17.229  0.00  0.00    +0.000 C 
ATOM      9  O   UNL     1       4.863   7.306  16.363  0.00  0.00    +0.000 OA
BRANCH   7  10
ATOM     10  C   UNL     1       2.291   4.513  18.523  0.00  0.00    +0.000 A 
ATOM     11  C   UNL     1       1.821   4.818  19.802  0.00  0.00    +0.000 A 
ATOM     12  C   UNL     1       1.046   3.886  20.491  0.00  0.00    +0.000 A 
ATOM     13  C   UNL     1       0.757   2.682  19.871  0.00  0.00    +0.000 A 
ATOM     14  N   UNL     1       1.184   2.356  18.632  0.00  0.00    +0.000 NA
ATOM     15  C   UNL     1       1.942   3.276  17.989  0.00  0.00    +0.000 A 
ENDBRANCH   7  10
ENDBRANCH   1   2
BRANCH   1  16
ATOM     16  C   UNL     1       8.312   8.221  18.304  0.00  0.00    +0.000 C 
BRANCH  16  19
ATOM     17  C   UNL     1       9.066  10.511  18.850  0.00  0.00    +0.000 C 
ATOM     18  O   UNL     1       9.798  10.166  19.763  0.00  0.00    +0.000 OA
ATOM     19  N   UNL     1       8.298   9.659  18.089  0.00  0.00    +0.000 N 
ATOM     20  H   UNL     1       7.696  10.078  17.384  0.00  0.00    +0.000 HD
BRANCH  17  25
ATOM     21  O   UNL     1       8.703  15.914  17.629  0.00  0.00    +0.000 OA
ATOM     22  C   UNL     1       8.686  14.717  17.909  0.00  0.00    +0.000 C 
ATOM     23  C   UNL     1       7.546  13.822  17.511  0.00  0.00    +0.000 C 
ATOM     24  C   UNL     1       7.929  12.361  17.457  0.00  0.00    +0.000 C 
ATOM     25  C   UNL     1       8.947  11.997  18.502  0.00  0.00    +0.000 C 
ATOM     26  N   UNL     1       9.769  12.843  19.053  0.00  0.00    +0.000 NA
ATOM     27  N   UNL     1       9.668  14.152  18.681  0.00  0.00    +0.000 N 
ATOM     28  H   UNL     1      10.392  14.782  19.018  0.00  0.00    +0.000 HD
ENDBRANCH  17  25
ENDBRANCH  16  19
ENDBRANCH   1  16
TORSDOF 5
ENDMDL
MODEL 6
REMARK VINA RESULT:      -7.8      5.400      7.199
REMARK  Name = 
REMARK  5 active torsions:
REMARK  status: ('A' for Active; 'I' for Inactive)
REMARK    1  A    between atoms: C_5  and  C_6
REMARK    2  A    between atoms: N_8  and  C_9
REMARK    3  A    between atoms: C_9  and  C_10
REMARK    4  A    between atoms: C_10  and  N_11
REMARK    5  A    between atoms: C_16  and  C_17
REMARK                            x       y       z     vdW  Elec       q    Type
REMARK                         _______ _______ _______ _____ _____    ______ ____
ROOT
ATOM      1  C   UNL     1       3.344   3.492  19.388  0.00  0.00    +0.000 C 
ENDROOT
BRANCH   1   2
ATOM      2  N   UNL     1       2.766   4.829  19.442  0.00  0.00    +0.000 N 
ATOM      3  C   UNL     1       2.318   5.359  20.623  0.00  0.00    +0.000 C 
ATOM      4  O   UNL     1       2.318   4.826  21.719  0.00  0.00    +0.000 OA
ATOM      5  S   UNL     1       1.717   6.987  20.365  0.00  0.00    +0.000 S 
ATOM      6  C   UNL     1       2.076   6.944  18.683  0.00  0.00    +0.000 C 
ATOM      7  C   UNL     1       1.931   7.939  17.796  0.00  0.00    +0.000 C 
ATOM      8  C   UNL     1       2.628   5.608  18.317  0.00  0.00    +0.000 C 
ATOM      9  O   UNL     1       2.910   5.277  17.176  0.00  0.00    +0.000 OA
BRANCH   7  10
ATOM     10  C   UNL     1       1.439   9.278  18.124  0.00  0.00    +0.000 A 
ATOM     11  C   UNL     1       0.070   9.550  18.167  0.00  0.00    +0.000 A 
ATOM     12  C   UNL     1      -0.366  10.846  18.438  0.00  0.00    +0.000 A 
ATOM     13  C   UNL     1       0.583  11.827  18.670  0.00  0.00    +0.000 A 
ATOM     14  N   UNL     1       1.914  11.600  18.648  0.00  0.00    +0.000 NA
ATOM     15  C   UNL     1       2.311  10.334  18.374  0.00  0.00    +0.000 A 
ENDBRANCH   7  10
ENDBRANCH   1   2
BRANCH   1  16
ATOM     16  C   UNL     1       4.874   3.505  19.279  0.00  0.00    +0.000 C 
BRANCH  16  19
ATOM     17  C   UNL     1       6.119   4.726  17.525  0.00  0.00    +0.000 C 
ATOM     18  O   UNL     1       6.462   5.640  18.256  0.00  0.00    +0.000 OA
ATOM     19  N   UNL     1       5.346   3.654  17.911  0.00  0.00    +0.000 N 
ATOM     20  H   UNL     1       5.093   2.979  17.193  0.00  0.00    +0.000 HD
BRANCH  17  25
ATOM     21  O   UNL     1       7.713   4.829  12.209  0.00  0.00    +0.000 OA
ATOM     22  C   UNL     1       7.268   4.804  13.355  0.00  0.00    +0.000 C 
ATOM     23  C   UNL     1       6.000   4.075  13.701  0.00  0.00    +0.000 C 
ATOM     24  C   UNL     1       5.906   3.708  15.164  0.00  0.00    +0.000 C 
ATOM     25  C   UNL     1       6.541   4.740  16.054  0.00  0.00    +0.000 C 
ATOM     26  N   UNL     1       7.469   5.569  15.672  0.00  0.00    +0.000 NA
ATOM     27  N   UNL     1       7.858   5.520  14.365  0.00  0.00    +0.000 N 
ATOM     28  H   UNL     1       8.667   6.079  14.105  0.00  0.00    +0.000 HD
ENDBRANCH  17  25
ENDBRANCH  16  19
ENDBRANCH   1  16
TORSDOF 5
ENDMDL
MODEL 7
REMARK VINA RESULT:      -7.8      5.664      7.422
REMARK  Name = 
REMARK  5 active torsions:
REMARK  status: ('A' for Active; 'I' for Inactive)
REMARK    1  A    between atoms: C_5  and  C_6
REMARK    2  A    between atoms: N_8  and  C_9
REMARK    3  A    between atoms: C_9  and  C_10
REMARK    4  A    between atoms: C_10  and  N_11
REMARK    5  A    between atoms: C_16  and  C_17
REMARK                            x       y       z     vdW  Elec       q    Type
REMARK                         _______ _______ _______ _____ _____    ______ ____
ROOT
ATOM      1  C   UNL     1       2.350   2.442  19.682  0.00  0.00    +0.000 C 
ENDROOT
BRANCH   1   2
ATOM      2  N   UNL     1       2.154   3.847  19.349  0.00  0.00    +0.000 N 
ATOM      3  C   UNL     1       1.898   4.241  18.062  0.00  0.00    +0.000 C 
ATOM      4  O   UNL     1       1.820   3.530  17.074  0.00  0.00    +0.000 OA
ATOM      5  S   UNL     1       1.675   5.979  17.995  0.00  0.00    +0.000 S 
ATOM      6  C   UNL     1       1.920   6.161  19.688  0.00  0.00    +0.000 C 
ATOM      7  C   UNL     1       1.827   7.291  20.405  0.00  0.00    +0.000 C 
ATOM      8  C   UNL     1       2.234   4.838  20.299  0.00  0.00    +0.000 C 
ATOM      9  O   UNL     1       2.517   4.681  21.477  0.00  0.00    +0.000 OA
BRANCH   7  10
ATOM     10  C   UNL     1       1.474   8.599  19.851  0.00  0.00    +0.000 A 
ATOM     11  C   UNL     1       1.954   9.004  18.604  0.00  0.00    +0.000 A 
ATOM     12  C   UNL     1       1.638  10.273  18.123  0.00  0.00    +0.000 A 
ATOM     13  C   UNL     1       0.840  11.093  18.903  0.00  0.00    +0.000 A 
ATOM     14  N   UNL     1       0.347  10.733  20.107  0.00  0.00    +0.000 NA
ATOM     15  C   UNL     1       0.678   9.498  20.554  0.00  0.00    +0.000 A 
ENDBRANCH   7  10
ENDBRANCH   1   2
BRANCH   1  16
ATOM     16  C   UNL     1       3.813   1.996  19.557  0.00  0.00    +0.000 C 
BRANCH  16  19
ATOM     17  C   UNL     1       5.322   3.653  18.513  0.00  0.00    +0.000 C 
ATOM     18  O   UNL     1       5.564   4.244  19.553  0.00  0.00    +0.000 OA
ATOM     19  N   UNL     1       4.486   2.565  18.401  0.00  0.00    +0.000 N 
ATOM     20  H   UNL     1       4.333   2.189  17.468  0.00  0.00    +0.000 HD
BRANCH  17  25
ATOM     21  O   UNL     1       7.709   5.393  13.814  0.00  0.00    +0.000 OA
ATOM     22  C   UNL     1       7.108   5.070  14.837  0.00  0.00    +0.000 C 
ATOM     23  C   UNL     1       5.607   5.066  14.910  0.00  0.00    +0.000 C 
ATOM     24  C   UNL     1       5.068   4.166  15.998  0.00  0.00    +0.000 C 
ATOM     25  C   UNL     1       5.959   4.134  17.207  0.00  0.00    +0.000 C 
ATOM     26  N   UNL     1       7.233   4.406  17.190  0.00  0.00    +0.000 NA
ATOM     27  N   UNL     1       7.779   4.783  15.998  0.00  0.00    +0.000 N 
ATOM     28  H   UNL     1       8.792   4.871  15.964  0.00  0.00    +0.000 HD
ENDBRANCH  17  25
ENDBRANCH  16  19
ENDBRANCH   1  16
TORSDOF 5
ENDMDL
MODEL 8
REMARK VINA RESULT:      -7.6      1.260      1.945
REMARK  Name = 
REMARK  5 active torsions:
REMARK  status: ('A' for Active; 'I' for Inactive)
REMARK    1  A    between atoms: C_5  and  C_6
REMARK    2  A    between atoms: N_8  and  C_9
REMARK    3  A    between atoms: C_9  and  C_10
REMARK    4  A    between atoms: C_10  and  N_11
REMARK    5  A    between atoms: C_16  and  C_17
REMARK                            x       y       z     vdW  Elec       q    Type
REMARK                         _______ _______ _______ _____ _____    ______ ____
ROOT
ATOM      1  C   UNL     1       7.858   7.077  17.600  0.00  0.00    +0.000 C 
ENDROOT
BRANCH   1   2
ATOM      2  N   UNL     1       6.554   6.438  17.725  0.00  0.00    +0.000 N 
ATOM      3  C   UNL     1       5.554   6.685  16.823  0.00  0.00    +0.000 C 
ATOM      4  O   UNL     1       5.596   7.434  15.861  0.00  0.00    +0.000 OA
ATOM      5  S   UNL     1       4.131   5.743  17.224  0.00  0.00    +0.000 S 
ATOM      6  C   UNL     1       4.888   5.024  18.591  0.00  0.00    +0.000 C 
ATOM      7  C   UNL     1       4.379   4.083  19.400  0.00  0.00    +0.000 C 
ATOM      8  C   UNL     1       6.262   5.578  18.758  0.00  0.00    +0.000 C 
ATOM      9  O   UNL     1       7.004   5.292  19.686  0.00  0.00    +0.000 OA
BRANCH   7  10
ATOM     10  C   UNL     1       3.055   3.480  19.242  0.00  0.00    +0.000 A 
ATOM     11  C   UNL     1       2.039   3.725  20.168  0.00  0.00    +0.000 A 
ATOM     12  C   UNL     1       0.802   3.100  20.014  0.00  0.00    +0.000 A 
ATOM     13  C   UNL     1       0.619   2.258  18.930  0.00  0.00    +0.000 A 
ATOM     14  N   UNL     1       1.573   2.006  18.008  0.00  0.00    +0.000 NA
ATOM     15  C   UNL     1       2.767   2.619  18.186  0.00  0.00    +0.000 A 
ENDBRANCH   7  10
ENDBRANCH   1   2
BRANCH   1  16
ATOM     16  C   UNL     1       8.080   8.192  18.629  0.00  0.00    +0.000 C 
BRANCH  16  19
ATOM     17  C   UNL     1       9.314  10.315  18.919  0.00  0.00    +0.000 C 
ATOM     18  O   UNL     1       9.132  10.379  20.123  0.00  0.00    +0.000 OA
ATOM     19  N   UNL     1       8.844   9.312  18.102  0.00  0.00    +0.000 N 
ATOM     20  H   UNL     1       9.028   9.397  17.105  0.00  0.00    +0.000 HD
BRANCH  17  25
ATOM     21  O   UNL     1      12.249  14.280  16.373  0.00  0.00    +0.000 OA
ATOM     22  C   UNL     1      11.554  13.473  16.987  0.00  0.00    +0.000 C 
ATOM     23  C   UNL     1      10.155  13.798  17.427  0.00  0.00    +0.000 C 
ATOM     24  C   UNL     1       9.306  12.571  17.666  0.00  0.00    +0.000 C 
ATOM     25  C   UNL     1      10.105  11.422  18.216  0.00  0.00    +0.000 C 
ATOM     26  N   UNL     1      11.389  11.278  18.061  0.00  0.00    +0.000 NA
ATOM     27  N   UNL     1      12.055  12.260  17.386  0.00  0.00    +0.000 N 
ATOM     28  H   UNL     1      13.030  12.081  17.159  0.00  0.00    +0.000 HD
ENDBRANCH  17  25
ENDBRANCH  16  19
ENDBRANCH   1  16
TORSDOF 5
ENDMDL
MODEL 9
REMARK VINA RESULT:      -7.5      5.525      7.453
REMARK  Name = 
REMARK  5 active torsions:
REMARK  status: ('A' for Active; 'I' for Inactive)
REMARK    1  A    between atoms: C_5  and  C_6
REMARK    2  A    between atoms: N_8  and  C_9
REMARK    3  A    between atoms: C_9  and  C_10
REMARK    4  A    between atoms: C_10  and  N_11
REMARK    5  A    between atoms: C_16  and  C_17
REMARK                            x       y       z     vdW  Elec       q    Type
REMARK                         _______ _______ _______ _____ _____    ______ ____
ROOT
ATOM      1  C   UNL     1       3.863   4.879  19.210  0.00  0.00    +0.000 C 
ENDROOT
BRANCH   1   2
ATOM      2  N   UNL     1       2.954   5.997  19.430  0.00  0.00    +0.000 N 
ATOM      3  C   UNL     1       2.143   6.044  20.532  0.00  0.00    +0.000 C 
ATOM      4  O   UNL     1       2.052   5.212  21.419  0.00  0.00    +0.000 OA
ATOM      5  S   UNL     1       1.201   7.524  20.527  0.00  0.00    +0.000 S 
ATOM      6  C   UNL     1       1.906   8.067  19.055  0.00  0.00    +0.000 C 
ATOM      7  C   UNL     1       1.693   9.238  18.437  0.00  0.00    +0.000 C 
ATOM      8  C   UNL     1       2.855   7.040  18.539  0.00  0.00    +0.000 C 
ATOM      9  O   UNL     1       3.450   7.134  17.476  0.00  0.00    +0.000 OA
BRANCH   7  10
ATOM     10  C   UNL     1       0.807  10.291  18.935  0.00  0.00    +0.000 A 
ATOM     11  C   UNL     1      -0.524  10.366  18.520  0.00  0.00    +0.000 A 
ATOM     12  C   UNL     1      -1.330  11.408  18.977  0.00  0.00    +0.000 A 
ATOM     13  C   UNL     1      -0.780  12.334  19.846  0.00  0.00    +0.000 A 
ATOM     14  N   UNL     1       0.498  12.289  20.279  0.00  0.00    +0.000 NA
ATOM     15  C   UNL     1       1.262  11.272  19.812  0.00  0.00    +0.000 A 
ENDBRANCH   7  10
ENDBRANCH   1   2
BRANCH   1  16
ATOM     16  C   UNL     1       5.276   5.325  18.815  0.00  0.00    +0.000 C 
BRANCH  16  19
ATOM     17  C   UNL     1       6.831   4.954  16.928  0.00  0.00    +0.000 C 
ATOM     18  O   UNL     1       7.832   4.914  17.623  0.00  0.00    +0.000 OA
ATOM     19  N   UNL     1       5.552   5.156  17.397  0.00  0.00    +0.000 N 
ATOM     20  H   UNL     1       4.805   5.210  16.708  0.00  0.00    +0.000 HD
BRANCH  17  25
ATOM     21  O   UNL     1       7.360   4.412  11.429  0.00  0.00    +0.000 OA
ATOM     22  C   UNL     1       7.146   4.525  12.635  0.00  0.00    +0.000 C 
ATOM     23  C   UNL     1       5.993   3.835  13.307  0.00  0.00    +0.000 C 
ATOM     24  C   UNL     1       6.195   3.651  14.794  0.00  0.00    +0.000 C 
ATOM     25  C   UNL     1       6.959   4.789  15.412  0.00  0.00    +0.000 C 
ATOM     26  N   UNL     1       7.769   5.572  14.759  0.00  0.00    +0.000 NA
ATOM     27  N   UNL     1       7.898   5.364  13.416  0.00  0.00    +0.000 N 
ATOM     28  H   UNL     1       8.624   5.893  12.937  0.00  0.00    +0.000 HD
ENDBRANCH  17  25
ENDBRANCH  16  19
ENDBRANCH   1  16
TORSDOF 5
ENDMDL
