MODEL 1
REMARK VINA RESULT:      -7.7      0.000      0.000
REMARK  Name = 
REMARK  5 active torsions:
REMARK  status: ('A' for Active; 'I' for Inactive)
REMARK    1  A    between atoms: O_1  and  C_2
REMARK    2  A    between atoms: C_5  and  C_6
REMARK    3  A    between atoms: N_7  and  N_8
REMARK    4  A    between atoms: N_8  and  C_9
REMARK    5  A    between atoms: C_19  and  O_20
REMARK                            x       y       z     vdW  Elec       q    Type
REMARK                         _______ _______ _______ _____ _____    ______ ____
ROOT
ATOM      1  C   UNL     1       3.733   5.638  18.876  0.00  0.00    +0.000 C 
ATOM      2  N   UNL     1       3.347   6.810  19.273  0.00  0.00    +0.000 NA
ENDROOT
BRANCH   1   6
ATOM      3  C   UNL     1       6.650   5.293  15.787  0.00  0.00    +0.000 A 
ATOM      4  C   UNL     1       5.582   6.176  15.647  0.00  0.00    +0.000 A 
ATOM      5  C   UNL     1       4.629   6.272  16.666  0.00  0.00    +0.000 A 
ATOM      6  C   UNL     1       4.752   5.483  17.816  0.00  0.00    +0.000 A 
ATOM      7  C   UNL     1       5.828   4.596  17.937  0.00  0.00    +0.000 A 
ATOM      8  C   UNL     1       6.779   4.500  16.923  0.00  0.00    +0.000 A 
BRANCH   3   9
ATOM      9  O   UNL     1       7.603   5.175  14.818  0.00  0.00    +0.000 OA
ATOM     10  H   UNL     1       7.996   4.288  14.866  0.00  0.00    +0.000 HD
ENDBRANCH   3   9
BRANCH   7  11
ATOM     11  O   UNL     1       6.012   3.792  19.029  0.00  0.00    +0.000 OA
ATOM     12  H   UNL     1       5.132   3.431  19.275  0.00  0.00    +0.000 HD
ENDBRANCH   7  11
ENDBRANCH   1   6
BRANCH   2  13
ATOM     13  N   UNL     1       2.386   6.803  20.232  0.00  0.00    +0.000 N 
ATOM     14  H   UNL     1       2.532   6.285  21.096  0.00  0.00    +0.000 HD
BRANCH  13  15
ATOM     15  C   UNL     1       1.567   7.944  20.381  0.00  0.00    +0.000 A 
ATOM     16  C   UNL     1       1.463   8.861  19.327  0.00  0.00    +0.000 A 
ATOM     17  C   UNL     1       0.715  10.037  19.465  0.00  0.00    +0.000 A 
ATOM     18  C   UNL     1       0.067  10.336  20.673  0.00  0.00    +0.000 A 
ATOM     19  C   UNL     1      -0.690  11.508  20.838  0.00  0.00    +0.000 A 
ATOM     20  C   UNL     1      -1.318  11.786  22.055  0.00  0.00    +0.000 A 
ATOM     21  C   UNL     1      -1.194  10.900  23.121  0.00  0.00    +0.000 A 
ATOM     22  C   UNL     1      -0.444   9.733  22.971  0.00  0.00    +0.000 A 
ATOM     23  C   UNL     1       0.189   9.438  21.754  0.00  0.00    +0.000 A 
ATOM     24  C   UNL     1       0.947   8.266  21.595  0.00  0.00    +0.000 A 
ENDBRANCH  13  15
ENDBRANCH   2  13
TORSDOF 5
ENDMDL
MODEL 2
REMARK VINA RESULT:      -7.6      2.146      2.779
REMARK  Name = 
REMARK  5 active torsions:
REMARK  status: ('A' for Active; 'I' for Inactive)
REMARK    1  A    between atoms: O_1  and  C_2
REMARK    2  A    between atoms: C_5  and  C_6
REMARK    3  A    between atoms: N_7  and  N_8
REMARK    4  A    between atoms: N_8  and  C_9
REMARK    5  A    between atoms: C_19  and  O_20
REMARK                            x       y       z     vdW  Elec       q    Type
REMARK                         _______ _______ _______ _____ _____    ______ ____
ROOT
ATOM      1  C   UNL     1       2.614   6.091  17.774  0.00  0.00    +0.000 C 
ATOM      2  N   UNL     1       2.784   7.034  18.647  0.00  0.00    +0.000 NA
ENDROOT
BRANCH   1   6
ATOM      3  C   UNL     1       3.688   2.034  18.520  0.00  0.00    +0.000 A 
ATOM      4  C   UNL     1       2.589   2.332  17.719  0.00  0.00    +0.000 A 
ATOM      5  C   UNL     1       2.244   3.668  17.490  0.00  0.00    +0.000 A 
ATOM      6  C   UNL     1       3.002   4.695  18.066  0.00  0.00    +0.000 A 
ATOM      7  C   UNL     1       4.101   4.377  18.873  0.00  0.00    +0.000 A 
ATOM      8  C   UNL     1       4.446   3.046  19.100  0.00  0.00    +0.000 A 
BRANCH   3   9
ATOM      9  O   UNL     1       4.059   0.744  18.761  0.00  0.00    +0.000 OA
ATOM     10  H   UNL     1       4.299   0.653  19.697  0.00  0.00    +0.000 HD
ENDBRANCH   3   9
BRANCH   7  11
ATOM     11  O   UNL     1       4.886   5.326  19.470  0.00  0.00    +0.000 OA
ATOM     12  H   UNL     1       4.476   5.537  20.338  0.00  0.00    +0.000 HD
ENDBRANCH   7  11
ENDBRANCH   1   6
BRANCH   2  13
ATOM     13  N   UNL     1       2.409   8.272  18.235  0.00  0.00    +0.000 N 
ATOM     14  H   UNL     1       2.334   8.477  17.240  0.00  0.00    +0.000 HD
BRANCH  13  15
ATOM     15  C   UNL     1       1.517   9.015  19.040  0.00  0.00    +0.000 A 
ATOM     16  C   UNL     1       0.908  10.162  18.517  0.00  0.00    +0.000 A 
ATOM     17  C   UNL     1       0.073  10.960  19.308  0.00  0.00    +0.000 A 
ATOM     18  C   UNL     1      -0.161  10.638  20.653  0.00  0.00    +0.000 A 
ATOM     19  C   UNL     1      -0.996  11.420  21.469  0.00  0.00    +0.000 A 
ATOM     20  C   UNL     1      -1.205  11.082  22.808  0.00  0.00    +0.000 A 
ATOM     21  C   UNL     1      -0.579   9.962  23.349  0.00  0.00    +0.000 A 
ATOM     22  C   UNL     1       0.254   9.178  22.551  0.00  0.00    +0.000 A 
ATOM     23  C   UNL     1       0.470   9.502  21.203  0.00  0.00    +0.000 A 
ATOM     24  C   UNL     1       1.307   8.718  20.393  0.00  0.00    +0.000 A 
ENDBRANCH  13  15
ENDBRANCH   2  13
TORSDOF 5
ENDMDL
MODEL 3
REMARK VINA RESULT:      -7.6      2.213      3.031
REMARK  Name = 
REMARK  5 active torsions:
REMARK  status: ('A' for Active; 'I' for Inactive)
REMARK    1  A    between atoms: O_1  and  C_2
REMARK    2  A    between atoms: C_5  and  C_6
REMARK    3  A    between atoms: N_7  and  N_8
REMARK    4  A    between atoms: N_8  and  C_9
REMARK    5  A    between atoms: C_19  and  O_20
REMARK                            x       y       z     vdW  Elec       q    Type
REMARK                         _______ _______ _______ _____ _____    ______ ____
ROOT
ATOM      1  C   UNL     1       2.439   6.254  18.263  0.00  0.00    +0.000 C 
ATOM      2  N   UNL     1       2.359   6.970  19.340  0.00  0.00    +0.000 NA
ENDROOT
BRANCH   1   6
ATOM      3  C   UNL     1       3.550   2.139  18.316  0.00  0.00    +0.000 A 
ATOM      4  C   UNL     1       2.361   2.536  17.709  0.00  0.00    +0.000 A 
ATOM      5  C   UNL     1       2.007   3.889  17.706  0.00  0.00    +0.000 A 
ATOM      6  C   UNL     1       2.844   4.833  18.313  0.00  0.00    +0.000 A 
ATOM      7  C   UNL     1       4.033   4.415  18.925  0.00  0.00    +0.000 A 
ATOM      8  C   UNL     1       4.388   3.067  18.926  0.00  0.00    +0.000 A 
BRANCH   3   9
ATOM      9  O   UNL     1       3.933   0.830  18.334  0.00  0.00    +0.000 OA
ATOM     10  H   UNL     1       3.331   0.316  17.772  0.00  0.00    +0.000 HD
ENDBRANCH   3   9
BRANCH   7  11
ATOM     11  O   UNL     1       4.899   5.279  19.538  0.00  0.00    +0.000 OA
ATOM     12  H   UNL     1       4.580   6.190  19.352  0.00  0.00    +0.000 HD
ENDBRANCH   7  11
ENDBRANCH   1   6
BRANCH   2  13
ATOM     13  N   UNL     1       2.003   8.265  19.142  0.00  0.00    +0.000 N 
ATOM     14  H   UNL     1       1.810   8.603  18.202  0.00  0.00    +0.000 HD
BRANCH  13  15
ATOM     15  C   UNL     1       1.267   8.929  20.149  0.00  0.00    +0.000 A 
ATOM     16  C   UNL     1       0.761   8.195  21.230  0.00  0.00    +0.000 A 
ATOM     17  C   UNL     1      -0.029   8.807  22.210  0.00  0.00    +0.000 A 
ATOM     18  C   UNL     1      -0.350  10.170  22.123  0.00  0.00    +0.000 A 
ATOM     19  C   UNL     1      -1.141  10.810  23.093  0.00  0.00    +0.000 A 
ATOM     20  C   UNL     1      -1.453  12.166  22.978  0.00  0.00    +0.000 A 
ATOM     21  C   UNL     1      -0.984  12.899  21.891  0.00  0.00    +0.000 A 
ATOM     22  C   UNL     1      -0.200  12.276  20.919  0.00  0.00    +0.000 A 
ATOM     23  C   UNL     1       0.126  10.915  21.024  0.00  0.00    +0.000 A 
ATOM     24  C   UNL     1       0.915  10.281  20.050  0.00  0.00    +0.000 A 
ENDBRANCH  13  15
ENDBRANCH   2  13
TORSDOF 5
ENDMDL
MODEL 4
REMARK VINA RESULT:      -7.6      4.357      8.121
REMARK  Name = 
REMARK  5 active torsions:
REMARK  status: ('A' for Active; 'I' for Inactive)
REMARK    1  A    between atoms: O_1  and  C_2
REMARK    2  A    between atoms: C_5  and  C_6
REMARK    3  A    between atoms: N_7  and  N_8
REMARK    4  A    between atoms: N_8  and  C_9
REMARK    5  A    between atoms: C_19  and  O_20
REMARK                            x       y       z     vdW  Elec       q    Type
REMARK                         _______ _______ _______ _____ _____    ______ ____
ROOT
ATOM      1  C   UNL     1       0.731   9.583  19.462  0.00  0.00    +0.000 C 
ATOM      2  N   UNL     1       0.810   8.822  20.508  0.00  0.00    +0.000 NA
ENDROOT
BRANCH   1   6
ATOM      3  C   UNL     1      -2.851  11.690  18.514  0.00  0.00    +0.000 A 
ATOM      4  C   UNL     1      -2.345  10.738  17.634  0.00  0.00    +0.000 A 
ATOM      5  C   UNL     1      -1.164  10.060  17.956  0.00  0.00    +0.000 A 
ATOM      6  C   UNL     1      -0.499  10.343  19.155  0.00  0.00    +0.000 A 
ATOM      7  C   UNL     1      -1.020  11.309  20.025  0.00  0.00    +0.000 A 
ATOM      8  C   UNL     1      -2.197  11.983  19.707  0.00  0.00    +0.000 A 
BRANCH   3   9
ATOM      9  O   UNL     1      -4.003  12.367  18.239  0.00  0.00    +0.000 OA
ATOM     10  H   UNL     1      -4.157  13.026  18.934  0.00  0.00    +0.000 HD
ENDBRANCH   3   9
BRANCH   7  11
ATOM     11  O   UNL     1      -0.425  11.639  21.213  0.00  0.00    +0.000 OA
ATOM     12  H   UNL     1       0.016  10.829  21.552  0.00  0.00    +0.000 HD
ENDBRANCH   7  11
ENDBRANCH   1   6
BRANCH   2  13
ATOM     13  N   UNL     1       1.988   8.163  20.650  0.00  0.00    +0.000 N 
ATOM     14  H   UNL     1       2.491   8.202  21.535  0.00  0.00    +0.000 HD
BRANCH  13  15
ATOM     15  C   UNL     1       2.184   6.961  19.935  0.00  0.00    +0.000 A 
ATOM     16  C   UNL     1       2.812   6.998  18.684  0.00  0.00    +0.000 A 
ATOM     17  C   UNL     1       2.961   5.836  17.917  0.00  0.00    +0.000 A 
ATOM     18  C   UNL     1       2.466   4.606  18.376  0.00  0.00    +0.000 A 
ATOM     19  C   UNL     1       2.603   3.425  17.628  0.00  0.00    +0.000 A 
ATOM     20  C   UNL     1       2.093   2.215  18.104  0.00  0.00    +0.000 A 
ATOM     21  C   UNL     1       1.437   2.171  19.331  0.00  0.00    +0.000 A 
ATOM     22  C   UNL     1       1.292   3.337  20.084  0.00  0.00    +0.000 A 
ATOM     23  C   UNL     1       1.803   4.559  19.620  0.00  0.00    +0.000 A 
ATOM     24  C   UNL     1       1.661   5.737  20.372  0.00  0.00    +0.000 A 
ENDBRANCH  13  15
ENDBRANCH   2  13
TORSDOF 5
ENDMDL
MODEL 5
REMARK VINA RESULT:      -7.5      4.189      8.301
REMARK  Name = 
REMARK  5 active torsions:
REMARK  status: ('A' for Active; 'I' for Inactive)
REMARK    1  A    between atoms: O_1  and  C_2
REMARK    2  A    between atoms: C_5  and  C_6
REMARK    3  A    between atoms: N_7  and  N_8
REMARK    4  A    between atoms: N_8  and  C_9
REMARK    5  A    between atoms: C_19  and  O_20
REMARK                            x       y       z     vdW  Elec       q    Type
REMARK                         _______ _______ _______ _____ _____    ______ ____
ROOT
ATOM      1  C   UNL     1       0.819   9.840  20.442  0.00  0.00    +0.000 C 
ATOM      2  N   UNL     1       0.682   8.652  20.944  0.00  0.00    +0.000 NA
ENDROOT
BRANCH   1   6
ATOM      3  C   UNL     1      -2.517  12.432  19.880  0.00  0.00    +0.000 A 
ATOM      4  C   UNL     1      -1.968  12.263  21.148  0.00  0.00    +0.000 A 
ATOM      5  C   UNL     1      -0.878  11.403  21.317  0.00  0.00    +0.000 A 
ATOM      6  C   UNL     1      -0.348  10.718  20.217  0.00  0.00    +0.000 A 
ATOM      7  C   UNL     1      -0.918  10.896  18.950  0.00  0.00    +0.000 A 
ATOM      8  C   UNL     1      -2.002  11.754  18.779  0.00  0.00    +0.000 A 
BRANCH   3   9
ATOM      9  O   UNL     1      -3.576  13.267  19.673  0.00  0.00    +0.000 OA
ATOM     10  H   UNL     1      -4.400  12.760  19.751  0.00  0.00    +0.000 HD
ENDBRANCH   3   9
BRANCH   7  11
ATOM     11  O   UNL     1      -0.456  10.260  17.830  0.00  0.00    +0.000 OA
ATOM     12  H   UNL     1       0.521  10.195  17.915  0.00  0.00    +0.000 HD
ENDBRANCH   7  11
ENDBRANCH   1   6
BRANCH   2  13
ATOM     13  N   UNL     1       1.835   7.946  21.068  0.00  0.00    +0.000 N 
ATOM     14  H   UNL     1       2.285   7.862  21.977  0.00  0.00    +0.000 HD
BRANCH  13  15
ATOM     15  C   UNL     1       2.045   6.835  20.222  0.00  0.00    +0.000 A 
ATOM     16  C   UNL     1       2.539   7.038  18.927  0.00  0.00    +0.000 A 
ATOM     17  C   UNL     1       2.695   5.967  18.039  0.00  0.00    +0.000 A 
ATOM     18  C   UNL     1       2.340   4.663  18.419  0.00  0.00    +0.000 A 
ATOM     19  C   UNL     1       2.488   3.571  17.548  0.00  0.00    +0.000 A 
ATOM     20  C   UNL     1       2.118   2.284  17.948  0.00  0.00    +0.000 A 
ATOM     21  C   UNL     1       1.594   2.075  19.220  0.00  0.00    +0.000 A 
ATOM     22  C   UNL     1       1.441   3.151  20.095  0.00  0.00    +0.000 A 
ATOM     23  C   UNL     1       1.812   4.448  19.709  0.00  0.00    +0.000 A 
ATOM     24  C   UNL     1       1.660   5.537  20.583  0.00  0.00    +0.000 A 
ENDBRANCH  13  15
ENDBRANCH   2  13
TORSDOF 5
ENDMDL
MODEL 6
REMARK VINA RESULT:      -7.5      4.345      8.392
REMARK  Name = 
REMARK  5 active torsions:
REMARK  status: ('A' for Active; 'I' for Inactive)
REMARK    1  A    between atoms: O_1  and  C_2
REMARK    2  A    between atoms: C_5  and  C_6
REMARK    3  A    between atoms: N_7  and  N_8
REMARK    4  A    between atoms: N_8  and  C_9
REMARK    5  A    between atoms: C_19  and  O_20
REMARK                            x       y       z     vdW  Elec       q    Type
REMARK                         _______ _______ _______ _____ _____    ______ ____
ROOT
ATOM      1  C   UNL     1       0.146   9.121  21.315  0.00  0.00    +0.000 C 
ATOM      2  N   UNL     1       1.299   8.821  20.803  0.00  0.00    +0.000 NA
ENDROOT
BRANCH   1   6
ATOM      3  C   UNL     1      -1.911  12.680  20.188  0.00  0.00    +0.000 A 
ATOM      4  C   UNL     1      -1.585  11.725  19.228  0.00  0.00    +0.000 A 
ATOM      5  C   UNL     1      -0.903  10.566  19.612  0.00  0.00    +0.000 A 
ATOM      6  C   UNL     1      -0.552  10.373  20.954  0.00  0.00    +0.000 A 
ATOM      7  C   UNL     1      -0.883  11.346  21.904  0.00  0.00    +0.000 A 
ATOM      8  C   UNL     1      -1.564  12.500  21.523  0.00  0.00    +0.000 A 
BRANCH   3   9
ATOM      9  O   UNL     1      -2.582  13.820  19.853  0.00  0.00    +0.000 OA
ATOM     10  H   UNL     1      -2.373  14.053  18.935  0.00  0.00    +0.000 HD
ENDBRANCH   3   9
BRANCH   7  11
ATOM     11  O   UNL     1      -0.571  11.227  23.231  0.00  0.00    +0.000 OA
ATOM     12  H   UNL     1      -1.393  11.404  23.740  0.00  0.00    +0.000 HD
ENDBRANCH   7  11
ENDBRANCH   1   6
BRANCH   2  13
ATOM     13  N   UNL     1       1.836   7.655  21.246  0.00  0.00    +0.000 N 
ATOM     14  H   UNL     1       1.634   7.326  22.188  0.00  0.00    +0.000 HD
BRANCH  13  15
ATOM     15  C   UNL     1       2.068   6.618  20.316  0.00  0.00    +0.000 A 
ATOM     16  C   UNL     1       2.516   6.934  19.027  0.00  0.00    +0.000 A 
ATOM     17  C   UNL     1       2.690   5.938  18.059  0.00  0.00    +0.000 A 
ATOM     18  C   UNL     1       2.401   4.596  18.352  0.00  0.00    +0.000 A 
ATOM     19  C   UNL     1       2.569   3.577  17.400  0.00  0.00    +0.000 A 
ATOM     20  C   UNL     1       2.265   2.250  17.715  0.00  0.00    +0.000 A 
ATOM     21  C   UNL     1       1.788   1.927  18.982  0.00  0.00    +0.000 A 
ATOM     22  C   UNL     1       1.615   2.929  19.936  0.00  0.00    +0.000 A 
ATOM     23  C   UNL     1       1.920   4.266  19.636  0.00  0.00    +0.000 A 
ATOM     24  C   UNL     1       1.749   5.281  20.591  0.00  0.00    +0.000 A 
ENDBRANCH  13  15
ENDBRANCH   2  13
TORSDOF 5
ENDMDL
MODEL 7
REMARK VINA RESULT:      -7.4      1.244      2.044
REMARK  Name = 
REMARK  5 active torsions:
REMARK  status: ('A' for Active; 'I' for Inactive)
REMARK    1  A    between atoms: O_1  and  C_2
REMARK    2  A    between atoms: C_5  and  C_6
REMARK    3  A    between atoms: N_7  and  N_8
REMARK    4  A    between atoms: N_8  and  C_9
REMARK    5  A    between atoms: C_19  and  O_20
REMARK                            x       y       z     vdW  Elec       q    Type
REMARK                         _______ _______ _______ _____ _____    ______ ____
ROOT
ATOM      1  C   UNL     1       3.642   7.304  17.583  0.00  0.00    +0.000 C 
ATOM      2  N   UNL     1       2.934   7.514  18.648  0.00  0.00    +0.000 NA
ENDROOT
BRANCH   1   6
ATOM      3  C   UNL     1       7.128   4.852  17.655  0.00  0.00    +0.000 A 
ATOM      4  C   UNL     1       7.163   6.102  17.042  0.00  0.00    +0.000 A 
ATOM      5  C   UNL     1       6.009   6.891  17.020  0.00  0.00    +0.000 A 
ATOM      6  C   UNL     1       4.829   6.423  17.610  0.00  0.00    +0.000 A 
ATOM      7  C   UNL     1       4.810   5.161  18.216  0.00  0.00    +0.000 A 
ATOM      8  C   UNL     1       5.960   4.374  18.241  0.00  0.00    +0.000 A 
BRANCH   3   9
ATOM      9  O   UNL     1       8.234   4.055  17.702  0.00  0.00    +0.000 OA
ATOM     10  H   UNL     1       8.271   3.515  16.896  0.00  0.00    +0.000 HD
ENDBRANCH   3   9
BRANCH   7  11
ATOM     11  O   UNL     1       3.694   4.637  18.810  0.00  0.00    +0.000 OA
ATOM     12  H   UNL     1       3.806   4.741  19.781  0.00  0.00    +0.000 HD
ENDBRANCH   7  11
ENDBRANCH   1   6
BRANCH   2  13
ATOM     13  N   UNL     1       1.890   8.367  18.484  0.00  0.00    +0.000 N 
ATOM     14  H   UNL     1       1.265   8.260  17.688  0.00  0.00    +0.000 HD
BRANCH  13  15
ATOM     15  C   UNL     1       1.268   8.906  19.631  0.00  0.00    +0.000 A 
ATOM     16  C   UNL     1       1.398   8.247  20.861  0.00  0.00    +0.000 A 
ATOM     17  C   UNL     1       0.739   8.716  22.003  0.00  0.00    +0.000 A 
ATOM     18  C   UNL     1      -0.086   9.849  21.940  0.00  0.00    +0.000 A 
ATOM     19  C   UNL     1      -0.758  10.341  23.072  0.00  0.00    +0.000 A 
ATOM     20  C   UNL     1      -1.582  11.466  22.980  0.00  0.00    +0.000 A 
ATOM     21  C   UNL     1      -1.746  12.110  21.757  0.00  0.00    +0.000 A 
ATOM     22  C   UNL     1      -1.086  11.631  20.624  0.00  0.00    +0.000 A 
ATOM     23  C   UNL     1      -0.252  10.505  20.703  0.00  0.00    +0.000 A 
ATOM     24  C   UNL     1       0.415  10.016  19.568  0.00  0.00    +0.000 A 
ENDBRANCH  13  15
ENDBRANCH   2  13
TORSDOF 5
ENDMDL
MODEL 8
REMARK VINA RESULT:      -7.4      2.984      8.663
REMARK  Name = 
REMARK  5 active torsions:
REMARK  status: ('A' for Active; 'I' for Inactive)
REMARK    1  A    between atoms: O_1  and  C_2
REMARK    2  A    between atoms: C_5  and  C_6
REMARK    3  A    between atoms: N_7  and  N_8
REMARK    4  A    between atoms: N_8  and  C_9
REMARK    5  A    between atoms: C_19  and  O_20
REMARK                            x       y       z     vdW  Elec       q    Type
REMARK                         _______ _______ _______ _____ _____    ______ ____
ROOT
ATOM      1  C   UNL     1       3.403   5.901  18.049  0.00  0.00    +0.000 C 
ATOM      2  N   UNL     1       4.300   5.303  18.769  0.00  0.00    +0.000 NA
ENDROOT
BRANCH   1   6
ATOM      3  C   UNL     1       1.245   9.313  19.417  0.00  0.00    +0.000 A 
ATOM      4  C   UNL     1       1.703   9.254  18.103  0.00  0.00    +0.000 A 
ATOM      5  C   UNL     1       2.416   8.131  17.671  0.00  0.00    +0.000 A 
ATOM      6  C   UNL     1       2.667   7.077  18.559  0.00  0.00    +0.000 A 
ATOM      7  C   UNL     1       2.204   7.157  19.878  0.00  0.00    +0.000 A 
ATOM      8  C   UNL     1       1.492   8.274  20.309  0.00  0.00    +0.000 A 
BRANCH   3   9
ATOM      9  O   UNL     1       0.541  10.388  19.874  0.00  0.00    +0.000 OA
ATOM     10  H   UNL     1      -0.399  10.264  19.663  0.00  0.00    +0.000 HD
ENDBRANCH   3   9
BRANCH   7  11
ATOM     11  O   UNL     1       2.413   6.168  20.800  0.00  0.00    +0.000 OA
ATOM     12  H   UNL     1       2.477   6.600  21.681  0.00  0.00    +0.000 HD
ENDBRANCH   7  11
ENDBRANCH   1   6
BRANCH   2  13
ATOM     13  N   UNL     1       4.875   4.221  18.185  0.00  0.00    +0.000 N 
ATOM     14  H   UNL     1       4.431   3.308  18.255  0.00  0.00    +0.000 HD
BRANCH  13  15
ATOM     15  C   UNL     1       5.619   4.405  16.998  0.00  0.00    +0.000 A 
ATOM     16  C   UNL     1       6.718   5.274  17.001  0.00  0.00    +0.000 A 
ATOM     17  C   UNL     1       7.435   5.532  15.826  0.00  0.00    +0.000 A 
ATOM     18  C   UNL     1       7.058   4.940  14.612  0.00  0.00    +0.000 A 
ATOM     19  C   UNL     1       7.762   5.181  13.419  0.00  0.00    +0.000 A 
ATOM     20  C   UNL     1       7.359   4.586  12.221  0.00  0.00    +0.000 A 
ATOM     21  C   UNL     1       6.249   3.746  12.199  0.00  0.00    +0.000 A 
ATOM     22  C   UNL     1       5.541   3.500  13.375  0.00  0.00    +0.000 A 
ATOM     23  C   UNL     1       5.935   4.087  14.587  0.00  0.00    +0.000 A 
ATOM     24  C   UNL     1       5.227   3.844  15.776  0.00  0.00    +0.000 A 
ENDBRANCH  13  15
ENDBRANCH   2  13
TORSDOF 5
ENDMDL
MODEL 9
REMARK VINA RESULT:      -7.4      2.330      3.016
REMARK  Name = 
REMARK  5 active torsions:
REMARK  status: ('A' for Active; 'I' for Inactive)
REMARK    1  A    between atoms: O_1  and  C_2
REMARK    2  A    between atoms: C_5  and  C_6
REMARK    3  A    between atoms: N_7  and  N_8
REMARK    4  A    between atoms: N_8  and  C_9
REMARK    5  A    between atoms: C_19  and  O_20
REMARK                            x       y       z     vdW  Elec       q    Type
REMARK                         _______ _______ _______ _____ _____    ______ ____
ROOT
ATOM      1  C   UNL     1       3.202   6.235  17.853  0.00  0.00    +0.000 C 
ATOM      2  N   UNL     1       2.293   6.899  18.498  0.00  0.00    +0.000 NA
ENDROOT
BRANCH   1   6
ATOM      3  C   UNL     1       3.686   2.035  18.392  0.00  0.00    +0.000 A 
ATOM      4  C   UNL     1       4.727   2.906  18.705  0.00  0.00    +0.000 A 
ATOM      5  C   UNL     1       4.555   4.281  18.515  0.00  0.00    +0.000 A 
ATOM      6  C   UNL     1       3.344   4.773  18.013  0.00  0.00    +0.000 A 
ATOM      7  C   UNL     1       2.311   3.881  17.698  0.00  0.00    +0.000 A 
ATOM      8  C   UNL     1       2.480   2.512  17.889  0.00  0.00    +0.000 A 
BRANCH   3   9
ATOM      9  O   UNL     1       3.813   0.688  18.569  0.00  0.00    +0.000 OA
ATOM     10  H   UNL     1       3.399   0.439  19.411  0.00  0.00    +0.000 HD
ENDBRANCH   3   9
BRANCH   7  11
ATOM     11  O   UNL     1       1.102   4.288  17.202  0.00  0.00    +0.000 OA
ATOM     12  H   UNL     1       0.450   4.224  17.936  0.00  0.00    +0.000 HD
ENDBRANCH   7  11
ENDBRANCH   1   6
BRANCH   2  13
ATOM     13  N   UNL     1       2.296   8.238  18.277  0.00  0.00    +0.000 N 
ATOM     14  H   UNL     1       2.466   8.600  17.340  0.00  0.00    +0.000 HD
BRANCH  13  15
ATOM     15  C   UNL     1       1.456   9.057  19.062  0.00  0.00    +0.000 A 
ATOM     16  C   UNL     1       1.026  10.291  18.556  0.00  0.00    +0.000 A 
ATOM     17  C   UNL     1       0.249  11.158  19.333  0.00  0.00    +0.000 A 
ATOM     18  C   UNL     1      -0.104  10.820  20.649  0.00  0.00    +0.000 A 
ATOM     19  C   UNL     1      -0.884  11.671  21.450  0.00  0.00    +0.000 A 
ATOM     20  C   UNL     1      -1.213  11.314  22.760  0.00  0.00    +0.000 A 
ATOM     21  C   UNL     1      -0.764  10.106  23.286  0.00  0.00    +0.000 A 
ATOM     22  C   UNL     1       0.013   9.252  22.502  0.00  0.00    +0.000 A 
ATOM     23  C   UNL     1       0.348   9.595  21.183  0.00  0.00    +0.000 A 
ATOM     24  C   UNL     1       1.130   8.741  20.388  0.00  0.00    +0.000 A 
ENDBRANCH  13  15
ENDBRANCH   2  13
TORSDOF 5
ENDMDL
