MODEL 1
REMARK VINA RESULT:      -8.1      0.000      0.000
REMARK  Name = 
REMARK  13 active torsions:
REMARK  status: ('A' for Active; 'I' for Inactive)
REMARK    1  A    between atoms: C_1  and  C_2
REMARK    2  A    between atoms: C_2  and  C_3
REMARK    3  A    between atoms: C_2  and  C_16
REMARK    4  A    between atoms: C_3  and  C_4
REMARK    5  A    between atoms: C_12  and  O_13
REMARK    6  A    between atoms: C_19  and  C_20
REMARK    7  A    between atoms: N_22  and  CA_23
REMARK    8  A    between atoms: CA_23  and  CB_24
REMARK    9  A    between atoms: CA_23  and  C_29
REMARK   10  A    between atoms: CB_24  and  CG_25
REMARK   11  A    between atoms: CG_25  and  CD_26
REMARK   12  A    between atoms: CD_26  and  OE2_28
REMARK   13  A    between atoms: C_29  and  OXT_31
REMARK                            x       y       z     vdW  Elec       q    Type
REMARK                         _______ _______ _______ _____ _____    ______ ____
ROOT
ATOM      1  C   UNK A   0       1.123   9.660  19.768  0.00  0.00    +0.000 A 
ATOM      2  C   UNK A   0       1.670   9.321  18.522  0.00  0.00    +0.000 A 
ATOM      3  C   UNK A   0       2.161   8.044  18.276  0.00  0.00    +0.000 A 
ATOM      4  C   UNK A   0       2.110   7.072  19.276  0.00  0.00    +0.000 A 
ATOM      5  C   UNK A   0       1.656   7.414  20.552  0.00  0.00    +0.000 A 
ATOM      6  C   UNK A   0       1.177   8.701  20.795  0.00  0.00    +0.000 A 
ENDROOT
BRANCH   4   7
ATOM      7  C   UNK A   0       2.532   5.702  18.907  0.00  0.00    +0.000 C 
ATOM      8  O   UNK A   0       1.837   4.736  19.195  0.00  0.00    +0.000 OA
ATOM      9  N   GLU A   1       3.746   5.591  18.276  0.00  0.00    +0.000 N 
ATOM     10  H   GLU A   1       4.350   6.402  18.181  0.00  0.00    +0.000 HD
BRANCH   9  11
ATOM     11  CA  GLU A   1       4.297   4.295  17.895  0.00  0.00    +0.000 C 
BRANCH  11  12
ATOM     12  C   GLU A   1       5.236   3.884  19.035  0.00  0.00    +0.000 C 
ATOM     13  O   GLU A   1       6.186   4.566  19.400  0.00  0.00    +0.000 OA
BRANCH  12  14
ATOM     14  OXT GLU A   1       4.901   2.730  19.647  0.00  0.00    +0.000 OA
ATOM     15  HXT GLU A   1       5.237   2.630  20.563  0.00  0.00    +0.000 HD
ENDBRANCH  12  14
ENDBRANCH  11  12
BRANCH  11  16
ATOM     16  CB  GLU A   1       5.061   4.405  16.563  0.00  0.00    +0.000 C 
BRANCH  16  17
ATOM     17  CG  GLU A   1       5.585   5.797  16.248  0.00  0.00    +0.000 C 
BRANCH  17  18
ATOM     18  CD  GLU A   1       7.074   5.865  16.458  0.00  0.00    +0.000 C 
ATOM     19  OE1 GLU A   1       7.684   6.927  16.481  0.00  0.00    +0.000 OA
BRANCH  18  20
ATOM     20  OE2 GLU A   1       7.649   4.677  16.709  0.00  0.00    +0.000 OA
ATOM     21  HE2 GLU A   1       7.188   3.903  16.313  0.00  0.00    +0.000 HD
ENDBRANCH  18  20
ENDBRANCH  17  18
ENDBRANCH  16  17
ENDBRANCH  11  16
ENDBRANCH   9  11
ENDBRANCH   4   7
BRANCH   1  23
ATOM     22  C   UNK A   0       1.431  12.055  20.620  0.00  0.00    +0.000 C 
ATOM     23  C   UNK A   0       0.465  11.017  20.022  0.00  0.00    +0.000 C 
BRANCH  23  24
ATOM     24  C   UNK A   0      -0.164  11.548  18.707  0.00  0.00    +0.000 C 
BRANCH  24  25
ATOM     25  C   UNK A   0      -1.579  12.128  18.836  0.00  0.00    +0.000 C 
ATOM     26  C   UNK A   0      -2.134  12.059  20.266  0.00  0.00    +0.000 C 
ATOM     27  N   UNK A   0      -3.407  12.744  20.298  0.00  0.00    +0.000 N 
ATOM     28  C   UNK A   0      -4.346  12.405  19.338  0.00  0.00    +0.000 A 
ATOM     29  N   UNK A   0      -5.613  12.750  19.588  0.00  0.00    +0.000 NA
ATOM     30  C   UNK A   0      -6.520  12.494  18.643  0.00  0.00    +0.000 A 
ATOM     31  N   UNK A   0      -7.820  12.876  18.889  0.00  0.00    +0.000 N 
ATOM     32  N   UNK A   0      -6.272  11.860  17.494  0.00  0.00    +0.000 NA
ATOM     33  C   UNK A   0      -4.995  11.532  17.295  0.00  0.00    +0.000 A 
ATOM     34  C   UNK A   0      -3.966  11.791  18.158  0.00  0.00    +0.000 A 
ATOM     35  C   UNK A   0      -2.549  11.389  17.896  0.00  0.00    +0.000 C 
ATOM     36  H   UNK A   0      -3.832  12.985  21.185  0.00  0.00    +0.000 HD
ATOM     37  H   UNK A   0      -7.959  12.985  19.885  0.00  0.00    +0.000 HD
ATOM     38  H   UNK A   0      -8.465  12.288  18.387  0.00  0.00    +0.000 HD
BRANCH  33  39
ATOM     39  O   UNK A   0      -4.774  10.886  16.120  0.00  0.00    +0.000 OA
ATOM     40  H   UNK A   0      -5.689  10.661  15.870  0.00  0.00    +0.000 HD
ENDBRANCH  33  39
ENDBRANCH  24  25
ENDBRANCH  23  24
ENDBRANCH   1  23
TORSDOF 12
ENDMDL
MODEL 2
REMARK VINA RESULT:      -8.0      3.013      3.557
REMARK  Name = 
REMARK  13 active torsions:
REMARK  status: ('A' for Active; 'I' for Inactive)
REMARK    1  A    between atoms: C_1  and  C_2
REMARK    2  A    between atoms: C_2  and  C_3
REMARK    3  A    between atoms: C_2  and  C_16
REMARK    4  A    between atoms: C_3  and  C_4
REMARK    5  A    between atoms: C_12  and  O_13
REMARK    6  A    between atoms: C_19  and  C_20
REMARK    7  A    between atoms: N_22  and  CA_23
REMARK    8  A    between atoms: CA_23  and  CB_24
REMARK    9  A    between atoms: CA_23  and  C_29
REMARK   10  A    between atoms: CB_24  and  CG_25
REMARK   11  A    between atoms: CG_25  and  CD_26
REMARK   12  A    between atoms: CD_26  and  OE2_28
REMARK   13  A    between atoms: C_29  and  OXT_31
REMARK                            x       y       z     vdW  Elec       q    Type
REMARK                         _______ _______ _______ _____ _____    ______ ____
ROOT
ATOM      1  C   UNK A   0       1.083   9.611  19.699  0.00  0.00    +0.000 A 
ATOM      2  C   UNK A   0       1.623   9.209  18.468  0.00  0.00    +0.000 A 
ATOM      3  C   UNK A   0       2.147   7.932  18.296  0.00  0.00    +0.000 A 
ATOM      4  C   UNK A   0       2.136   7.024  19.355  0.00  0.00    +0.000 A 
ATOM      5  C   UNK A   0       1.690   7.433  20.614  0.00  0.00    +0.000 A 
ATOM      6  C   UNK A   0       1.178   8.720  20.783  0.00  0.00    +0.000 A 
ENDROOT
BRANCH   4   7
ATOM      7  C   UNK A   0       2.592   5.646  19.067  0.00  0.00    +0.000 C 
ATOM      8  O   UNK A   0       2.073   4.687  19.626  0.00  0.00    +0.000 OA
ATOM      9  N   GLU A   1       3.638   5.525  18.187  0.00  0.00    +0.000 N 
ATOM     10  H   GLU A   1       4.125   6.351  17.855  0.00  0.00    +0.000 HD
BRANCH   9  11
ATOM     11  CA  GLU A   1       4.209   4.226  17.847  0.00  0.00    +0.000 C 
BRANCH  11  12
ATOM     12  C   GLU A   1       5.258   3.931  18.925  0.00  0.00    +0.000 C 
ATOM     13  O   GLU A   1       6.034   4.777  19.355  0.00  0.00    +0.000 OA
BRANCH  12  14
ATOM     14  OXT GLU A   1       5.224   2.673  19.410  0.00  0.00    +0.000 OA
ATOM     15  HXT GLU A   1       5.203   1.964  18.732  0.00  0.00    +0.000 HD
ENDBRANCH  12  14
ENDBRANCH  11  12
BRANCH  11  16
ATOM     16  CB  GLU A   1       4.851   4.269  16.450  0.00  0.00    +0.000 C 
BRANCH  16  17
ATOM     17  CG  GLU A   1       5.697   5.503  16.179  0.00  0.00    +0.000 C 
BRANCH  17  18
ATOM     18  CD  GLU A   1       7.112   5.116  15.843  0.00  0.00    +0.000 C 
ATOM     19  OE1 GLU A   1       7.829   4.509  16.630  0.00  0.00    +0.000 OA
BRANCH  18  20
ATOM     20  OE2 GLU A   1       7.479   5.409  14.584  0.00  0.00    +0.000 OA
ATOM     21  HE2 GLU A   1       8.441   5.579  14.464  0.00  0.00    +0.000 HD
ENDBRANCH  18  20
ENDBRANCH  17  18
ENDBRANCH  16  17
ENDBRANCH  11  16
ENDBRANCH   9  11
ENDBRANCH   4   7
BRANCH   1  23
ATOM     22  C   UNK A   0      -0.859  11.123  18.994  0.00  0.00    +0.000 C 
ATOM     23  C   UNK A   0       0.390  10.962  19.877  0.00  0.00    +0.000 C 
BRANCH  23  24
ATOM     24  C   UNK A   0       0.034  11.174  21.373  0.00  0.00    +0.000 C 
BRANCH  24  25
ATOM     25  C   UNK A   0      -1.034  12.238  21.655  0.00  0.00    +0.000 C 
ATOM     26  C   UNK A   0      -0.446  13.629  21.934  0.00  0.00    +0.000 C 
ATOM     27  N   UNK A   0      -1.534  14.573  22.057  0.00  0.00    +0.000 N 
ATOM     28  C   UNK A   0      -2.577  14.247  22.909  0.00  0.00    +0.000 A 
ATOM     29  N   UNK A   0      -3.369  15.250  23.299  0.00  0.00    +0.000 NA
ATOM     30  C   UNK A   0      -4.419  14.945  24.065  0.00  0.00    +0.000 A 
ATOM     31  N   UNK A   0      -5.252  15.974  24.443  0.00  0.00    +0.000 N 
ATOM     32  N   UNK A   0      -4.703  13.724  24.524  0.00  0.00    +0.000 NA
ATOM     33  C   UNK A   0      -3.880  12.759  24.111  0.00  0.00    +0.000 A 
ATOM     34  C   UNK A   0      -2.806  12.935  23.282  0.00  0.00    +0.000 A 
ATOM     35  C   UNK A   0      -1.902  11.822  22.858  0.00  0.00    +0.000 C 
ATOM     36  H   UNK A   0      -1.349  15.568  22.036  0.00  0.00    +0.000 HD
ATOM     37  H   UNK A   0      -4.758  16.854  24.369  0.00  0.00    +0.000 HD
ATOM     38  H   UNK A   0      -5.706  15.762  25.315  0.00  0.00    +0.000 HD
BRANCH  33  39
ATOM     39  O   UNK A   0      -4.192  11.529  24.598  0.00  0.00    +0.000 OA
ATOM     40  H   UNK A   0      -4.800  11.776  25.318  0.00  0.00    +0.000 HD
ENDBRANCH  33  39
ENDBRANCH  24  25
ENDBRANCH  23  24
ENDBRANCH   1  23
TORSDOF 12
ENDMDL
MODEL 3
REMARK VINA RESULT:      -8.0      2.168      2.949
REMARK  Name = 
REMARK  13 active torsions:
REMARK  status: ('A' for Active; 'I' for Inactive)
REMARK    1  A    between atoms: C_1  and  C_2
REMARK    2  A    between atoms: C_2  and  C_3
REMARK    3  A    between atoms: C_2  and  C_16
REMARK    4  A    between atoms: C_3  and  C_4
REMARK    5  A    between atoms: C_12  and  O_13
REMARK    6  A    between atoms: C_19  and  C_20
REMARK    7  A    between atoms: N_22  and  CA_23
REMARK    8  A    between atoms: CA_23  and  CB_24
REMARK    9  A    between atoms: CA_23  and  C_29
REMARK   10  A    between atoms: CB_24  and  CG_25
REMARK   11  A    between atoms: CG_25  and  CD_26
REMARK   12  A    between atoms: CD_26  and  OE2_28
REMARK   13  A    between atoms: C_29  and  OXT_31
REMARK                            x       y       z     vdW  Elec       q    Type
REMARK                         _______ _______ _______ _____ _____    ______ ____
ROOT
ATOM      1  C   UNK A   0       1.362   9.777  19.089  0.00  0.00    +0.000 A 
ATOM      2  C   UNK A   0       1.852   9.273  17.876  0.00  0.00    +0.000 A 
ATOM      3  C   UNK A   0       2.289   7.956  17.769  0.00  0.00    +0.000 A 
ATOM      4  C   UNK A   0       2.238   7.112  18.878  0.00  0.00    +0.000 A 
ATOM      5  C   UNK A   0       1.842   7.619  20.117  0.00  0.00    +0.000 A 
ATOM      6  C   UNK A   0       1.418   8.943  20.221  0.00  0.00    +0.000 A 
ENDROOT
BRANCH   4   7
ATOM      7  C   UNK A   0       2.598   5.692  18.661  0.00  0.00    +0.000 C 
ATOM      8  O   UNK A   0       1.879   4.795  19.085  0.00  0.00    +0.000 OA
ATOM      9  N   GLU A   1       3.783   5.460  18.010  0.00  0.00    +0.000 N 
ATOM     10  H   GLU A   1       4.411   6.229  17.800  0.00  0.00    +0.000 HD
BRANCH   9  11
ATOM     11  CA  GLU A   1       4.274   4.107  17.768  0.00  0.00    +0.000 C 
BRANCH  11  12
ATOM     12  C   GLU A   1       5.194   3.774  18.949  0.00  0.00    +0.000 C 
ATOM     13  O   GLU A   1       6.024   4.559  19.393  0.00  0.00    +0.000 OA
BRANCH  12  14
ATOM     14  OXT GLU A   1       4.979   2.563  19.501  0.00  0.00    +0.000 OA
ATOM     15  HXT GLU A   1       4.081   2.194  19.363  0.00  0.00    +0.000 HD
ENDBRANCH  12  14
ENDBRANCH  11  12
BRANCH  11  16
ATOM     16  CB  GLU A   1       5.040   4.042  16.436  0.00  0.00    +0.000 C 
BRANCH  16  17
ATOM     17  CG  GLU A   1       5.603   5.374  15.964  0.00  0.00    +0.000 C 
BRANCH  17  18
ATOM     18  CD  GLU A   1       7.073   5.469  16.274  0.00  0.00    +0.000 C 
ATOM     19  OE1 GLU A   1       7.793   4.480  16.344  0.00  0.00    +0.000 OA
BRANCH  18  20
ATOM     20  OE2 GLU A   1       7.534   6.728  16.372  0.00  0.00    +0.000 OA
ATOM     21  HE2 GLU A   1       7.853   7.118  15.526  0.00  0.00    +0.000 HD
ENDBRANCH  18  20
ENDBRANCH  17  18
ENDBRANCH  16  17
ENDBRANCH  11  16
ENDBRANCH   9  11
ENDBRANCH   4   7
BRANCH   1  23
ATOM     22  C   UNK A   0       1.640  12.265  18.555  0.00  0.00    +0.000 C 
ATOM     23  C   UNK A   0       0.762  11.179  19.201  0.00  0.00    +0.000 C 
BRANCH  23  24
ATOM     24  C   UNK A   0      -0.663  11.189  18.586  0.00  0.00    +0.000 C 
BRANCH  24  25
ATOM     25  C   UNK A   0      -1.809  11.436  19.575  0.00  0.00    +0.000 C 
ATOM     26  C   UNK A   0      -2.975  12.230  18.966  0.00  0.00    +0.000 C 
ATOM     27  N   UNK A   0      -4.045  12.292  19.936  0.00  0.00    +0.000 N 
ATOM     28  C   UNK A   0      -3.728  12.700  21.221  0.00  0.00    +0.000 A 
ATOM     29  N   UNK A   0      -4.742  13.108  21.990  0.00  0.00    +0.000 NA
ATOM     30  C   UNK A   0      -4.465  13.439  23.253  0.00  0.00    +0.000 A 
ATOM     31  N   UNK A   0      -5.515  13.831  24.053  0.00  0.00    +0.000 N 
ATOM     32  N   UNK A   0      -3.242  13.458  23.789  0.00  0.00    +0.000 NA
ATOM     33  C   UNK A   0      -2.264  13.048  22.980  0.00  0.00    +0.000 A 
ATOM     34  C   UNK A   0      -2.428  12.629  21.688  0.00  0.00    +0.000 A 
ATOM     35  C   UNK A   0      -1.295  12.192  20.814  0.00  0.00    +0.000 C 
ATOM     36  H   UNK A   0      -4.971  12.591  19.653  0.00  0.00    +0.000 HD
ATOM     37  H   UNK A   0      -6.287  14.136  23.474  0.00  0.00    +0.000 HD
ATOM     38  H   UNK A   0      -5.197  14.453  24.778  0.00  0.00    +0.000 HD
BRANCH  33  39
ATOM     39  O   UNK A   0      -1.032  13.081  23.552  0.00  0.00    +0.000 OA
ATOM     40  H   UNK A   0      -1.005  12.197  23.959  0.00  0.00    +0.000 HD
ENDBRANCH  33  39
ENDBRANCH  24  25
ENDBRANCH  23  24
ENDBRANCH   1  23
TORSDOF 12
ENDMDL
MODEL 4
REMARK VINA RESULT:      -7.9      1.878      2.733
REMARK  Name = 
REMARK  13 active torsions:
REMARK  status: ('A' for Active; 'I' for Inactive)
REMARK    1  A    between atoms: C_1  and  C_2
REMARK    2  A    between atoms: C_2  and  C_3
REMARK    3  A    between atoms: C_2  and  C_16
REMARK    4  A    between atoms: C_3  and  C_4
REMARK    5  A    between atoms: C_12  and  O_13
REMARK    6  A    between atoms: C_19  and  C_20
REMARK    7  A    between atoms: N_22  and  CA_23
REMARK    8  A    between atoms: CA_23  and  CB_24
REMARK    9  A    between atoms: CA_23  and  C_29
REMARK   10  A    between atoms: CB_24  and  CG_25
REMARK   11  A    between atoms: CG_25  and  CD_26
REMARK   12  A    between atoms: CD_26  and  OE2_28
REMARK   13  A    between atoms: C_29  and  OXT_31
REMARK                            x       y       z     vdW  Elec       q    Type
REMARK                         _______ _______ _______ _____ _____    ______ ____
ROOT
ATOM      1  C   UNK A   0       1.396   7.816  20.316  0.00  0.00    +0.000 A 
ATOM      2  C   UNK A   0       1.462   6.521  20.852  0.00  0.00    +0.000 A 
ATOM      3  C   UNK A   0       2.192   5.519  20.221  0.00  0.00    +0.000 A 
ATOM      4  C   UNK A   0       2.879   5.795  19.038  0.00  0.00    +0.000 A 
ATOM      5  C   UNK A   0       2.751   7.050  18.439  0.00  0.00    +0.000 A 
ATOM      6  C   UNK A   0       2.006   8.046  19.070  0.00  0.00    +0.000 A 
ENDROOT
BRANCH   4   7
ATOM      7  C   UNK A   0       3.737   4.720  18.491  0.00  0.00    +0.000 C 
ATOM      8  O   UNK A   0       3.424   3.543  18.624  0.00  0.00    +0.000 OA
ATOM      9  N   GLU A   1       4.898   5.123  17.880  0.00  0.00    +0.000 N 
ATOM     10  H   GLU A   1       5.183   6.097  17.915  0.00  0.00    +0.000 HD
BRANCH   9  11
ATOM     11  CA  GLU A   1       5.851   4.163  17.335  0.00  0.00    +0.000 C 
BRANCH  11  12
ATOM     12  C   GLU A   1       7.242   4.756  17.591  0.00  0.00    +0.000 C 
ATOM     13  O   GLU A   1       8.281   4.142  17.379  0.00  0.00    +0.000 OA
BRANCH  12  14
ATOM     14  OXT GLU A   1       7.236   6.035  18.018  0.00  0.00    +0.000 OA
ATOM     15  HXT GLU A   1       6.351   6.457  18.061  0.00  0.00    +0.000 HD
ENDBRANCH  12  14
ENDBRANCH  11  12
BRANCH  11  16
ATOM     16  CB  GLU A   1       5.608   3.958  15.830  0.00  0.00    +0.000 C 
BRANCH  16  17
ATOM     17  CG  GLU A   1       5.894   5.179  14.970  0.00  0.00    +0.000 C 
BRANCH  17  18
ATOM     18  CD  GLU A   1       6.886   4.848  13.888  0.00  0.00    +0.000 C 
ATOM     19  OE1 GLU A   1       6.660   4.002  13.030  0.00  0.00    +0.000 OA
BRANCH  18  20
ATOM     20  OE2 GLU A   1       7.987   5.618  13.894  0.00  0.00    +0.000 OA
ATOM     21  HE2 GLU A   1       8.785   5.201  13.498  0.00  0.00    +0.000 HD
ENDBRANCH  18  20
ENDBRANCH  17  18
ENDBRANCH  16  17
ENDBRANCH  11  16
ENDBRANCH   9  11
ENDBRANCH   4   7
BRANCH   1  23
ATOM     22  C   UNK A   0       1.471   9.428  22.304  0.00  0.00    +0.000 C 
ATOM     23  C   UNK A   0       0.704   8.963  21.053  0.00  0.00    +0.000 C 
BRANCH  23  24
ATOM     24  C   UNK A   0       0.477  10.149  20.078  0.00  0.00    +0.000 C 
BRANCH  24  25
ATOM     25  C   UNK A   0      -0.905  10.205  19.414  0.00  0.00    +0.000 C 
ATOM     26  C   UNK A   0      -0.838  10.277  17.881  0.00  0.00    +0.000 C 
ATOM     27  N   UNK A   0      -2.183  10.194  17.358  0.00  0.00    +0.000 N 
ATOM     28  C   UNK A   0      -3.138  11.041  17.896  0.00  0.00    +0.000 A 
ATOM     29  N   UNK A   0      -4.251  11.226  17.179  0.00  0.00    +0.000 NA
ATOM     30  C   UNK A   0      -5.211  11.984  17.714  0.00  0.00    +0.000 A 
ATOM     31  N   UNK A   0      -6.369  12.150  16.989  0.00  0.00    +0.000 N 
ATOM     32  N   UNK A   0      -5.119  12.625  18.882  0.00  0.00    +0.000 NA
ATOM     33  C   UNK A   0      -3.988  12.413  19.555  0.00  0.00    +0.000 A 
ATOM     34  C   UNK A   0      -2.957  11.614  19.142  0.00  0.00    +0.000 A 
ATOM     35  C   UNK A   0      -1.699  11.420  19.928  0.00  0.00    +0.000 C 
ATOM     36  H   UNK A   0      -2.336  10.018  16.372  0.00  0.00    +0.000 HD
ATOM     37  H   UNK A   0      -6.188  11.954  16.012  0.00  0.00    +0.000 HD
ATOM     38  H   UNK A   0      -6.810  13.024  17.218  0.00  0.00    +0.000 HD
BRANCH  33  39
ATOM     39  O   UNK A   0      -3.922  13.082  20.737  0.00  0.00    +0.000 OA
ATOM     40  H   UNK A   0      -4.528  12.543  21.276  0.00  0.00    +0.000 HD
ENDBRANCH  33  39
ENDBRANCH  24  25
ENDBRANCH  23  24
ENDBRANCH   1  23
TORSDOF 12
ENDMDL
MODEL 5
REMARK VINA RESULT:      -7.9      1.821      2.542
REMARK  Name = 
REMARK  13 active torsions:
REMARK  status: ('A' for Active; 'I' for Inactive)
REMARK    1  A    between atoms: C_1  and  C_2
REMARK    2  A    between atoms: C_2  and  C_3
REMARK    3  A    between atoms: C_2  and  C_16
REMARK    4  A    between atoms: C_3  and  C_4
REMARK    5  A    between atoms: C_12  and  O_13
REMARK    6  A    between atoms: C_19  and  C_20
REMARK    7  A    between atoms: N_22  and  CA_23
REMARK    8  A    between atoms: CA_23  and  CB_24
REMARK    9  A    between atoms: CA_23  and  C_29
REMARK   10  A    between atoms: CB_24  and  CG_25
REMARK   11  A    between atoms: CG_25  and  CD_26
REMARK   12  A    between atoms: CD_26  and  OE2_28
REMARK   13  A    between atoms: C_29  and  OXT_31
REMARK                            x       y       z     vdW  Elec       q    Type
REMARK                         _______ _______ _______ _____ _____    ______ ____
ROOT
ATOM      1  C   UNK A   0       1.293   8.541  19.433  0.00  0.00    +0.000 A 
ATOM      2  C   UNK A   0       1.502   7.593  20.446  0.00  0.00    +0.000 A 
ATOM      3  C   UNK A   0       2.449   6.584  20.302  0.00  0.00    +0.000 A 
ATOM      4  C   UNK A   0       3.213   6.505  19.137  0.00  0.00    +0.000 A 
ATOM      5  C   UNK A   0       2.956   7.379  18.079  0.00  0.00    +0.000 A 
ATOM      6  C   UNK A   0       1.996   8.381  18.225  0.00  0.00    +0.000 A 
ENDROOT
BRANCH   4   7
ATOM      7  C   UNK A   0       4.287   5.487  19.104  0.00  0.00    +0.000 C 
ATOM      8  O   UNK A   0       4.095   4.363  19.551  0.00  0.00    +0.000 OA
ATOM      9  N   GLU A   1       5.493   5.895  18.592  0.00  0.00    +0.000 N 
ATOM     10  H   GLU A   1       5.647   6.871  18.362  0.00  0.00    +0.000 HD
BRANCH   9  11
ATOM     11  CA  GLU A   1       6.645   5.002  18.539  0.00  0.00    +0.000 C 
BRANCH  11  12
ATOM     12  C   GLU A   1       7.771   5.719  19.294  0.00  0.00    +0.000 C 
ATOM     13  O   GLU A   1       8.360   6.697  18.847  0.00  0.00    +0.000 OA
BRANCH  12  14
ATOM     14  OXT GLU A   1       8.027   5.222  20.520  0.00  0.00    +0.000 OA
ATOM     15  HXT GLU A   1       8.553   5.807  21.107  0.00  0.00    +0.000 HD
ENDBRANCH  12  14
ENDBRANCH  11  12
BRANCH  11  16
ATOM     16  CB  GLU A   1       7.048   4.727  17.080  0.00  0.00    +0.000 C 
BRANCH  16  17
ATOM     17  CG  GLU A   1       5.961   5.023  16.057  0.00  0.00    +0.000 C 
BRANCH  17  18
ATOM     18  CD  GLU A   1       6.461   4.767  14.661  0.00  0.00    +0.000 C 
ATOM     19  OE1 GLU A   1       5.811   4.131  13.839  0.00  0.00    +0.000 OA
BRANCH  18  20
ATOM     20  OE2 GLU A   1       7.626   5.371  14.374  0.00  0.00    +0.000 OA
ATOM     21  HE2 GLU A   1       7.752   5.596  13.424  0.00  0.00    +0.000 HD
ENDBRANCH  18  20
ENDBRANCH  17  18
ENDBRANCH  16  17
ENDBRANCH  11  16
ENDBRANCH   9  11
ENDBRANCH   4   7
BRANCH   1  23
ATOM     22  C   UNK A   0       1.006  10.915  20.346  0.00  0.00    +0.000 C 
ATOM     23  C   UNK A   0       0.349   9.729  19.618  0.00  0.00    +0.000 C 
BRANCH  23  24
ATOM     24  C   UNK A   0      -0.207  10.174  18.239  0.00  0.00    +0.000 C 
BRANCH  24  25
ATOM     25  C   UNK A   0      -1.733  10.309  18.153  0.00  0.00    +0.000 C 
ATOM     26  C   UNK A   0      -2.246  10.497  16.717  0.00  0.00    +0.000 C 
ATOM     27  N   UNK A   0      -3.691  10.483  16.739  0.00  0.00    +0.000 N 
ATOM     28  C   UNK A   0      -4.330  11.306  17.652  0.00  0.00    +0.000 A 
ATOM     29  N   UNK A   0      -5.621  11.568  17.424  0.00  0.00    +0.000 NA
ATOM     30  C   UNK A   0      -6.271  12.303  18.330  0.00  0.00    +0.000 A 
ATOM     31  N   UNK A   0      -7.608  12.548  18.110  0.00  0.00    +0.000 N 
ATOM     32  N   UNK A   0      -5.715  12.851  19.414  0.00  0.00    +0.000 NA
ATOM     33  C   UNK A   0      -4.425  12.564  19.593  0.00  0.00    +0.000 A 
ATOM     34  C   UNK A   0      -3.666  11.778  18.770  0.00  0.00    +0.000 A 
ATOM     35  C   UNK A   0      -2.215  11.498  19.006  0.00  0.00    +0.000 C 
ATOM     36  H   UNK A   0      -4.212  10.387  15.876  0.00  0.00    +0.000 HD
ATOM     37  H   UNK A   0      -7.817  12.425  17.128  0.00  0.00    +0.000 HD
ATOM     38  H   UNK A   0      -7.887  13.412  18.545  0.00  0.00    +0.000 HD
BRANCH  33  39
ATOM     39  O   UNK A   0      -3.886  13.138  20.701  0.00  0.00    +0.000 OA
ATOM     40  H   UNK A   0      -3.110  12.565  20.835  0.00  0.00    +0.000 HD
ENDBRANCH  33  39
ENDBRANCH  24  25
ENDBRANCH  23  24
ENDBRANCH   1  23
TORSDOF 12
ENDMDL
MODEL 6
REMARK VINA RESULT:      -7.9      1.826      2.448
REMARK  Name = 
REMARK  13 active torsions:
REMARK  status: ('A' for Active; 'I' for Inactive)
REMARK    1  A    between atoms: C_1  and  C_2
REMARK    2  A    between atoms: C_2  and  C_3
REMARK    3  A    between atoms: C_2  and  C_16
REMARK    4  A    between atoms: C_3  and  C_4
REMARK    5  A    between atoms: C_12  and  O_13
REMARK    6  A    between atoms: C_19  and  C_20
REMARK    7  A    between atoms: N_22  and  CA_23
REMARK    8  A    between atoms: CA_23  and  CB_24
REMARK    9  A    between atoms: CA_23  and  C_29
REMARK   10  A    between atoms: CB_24  and  CG_25
REMARK   11  A    between atoms: CG_25  and  CD_26
REMARK   12  A    between atoms: CD_26  and  OE2_28
REMARK   13  A    between atoms: C_29  and  OXT_31
REMARK                            x       y       z     vdW  Elec       q    Type
REMARK                         _______ _______ _______ _____ _____    ______ ____
ROOT
ATOM      1  C   UNK A   0       1.223   7.981  20.350  0.00  0.00    +0.000 A 
ATOM      2  C   UNK A   0       2.091   8.165  19.263  0.00  0.00    +0.000 A 
ATOM      3  C   UNK A   0       2.934   7.145  18.837  0.00  0.00    +0.000 A 
ATOM      4  C   UNK A   0       2.923   5.911  19.489  0.00  0.00    +0.000 A 
ATOM      5  C   UNK A   0       2.137   5.738  20.629  0.00  0.00    +0.000 A 
ATOM      6  C   UNK A   0       1.303   6.770  21.059  0.00  0.00    +0.000 A 
ENDROOT
BRANCH   4   7
ATOM      7  C   UNK A   0       3.752   4.833  18.904  0.00  0.00    +0.000 C 
ATOM      8  O   UNK A   0       3.505   3.657  19.144  0.00  0.00    +0.000 OA
ATOM      9  N   GLU A   1       4.813   5.234  18.133  0.00  0.00    +0.000 N 
ATOM     10  H   GLU A   1       5.061   6.216  18.075  0.00  0.00    +0.000 HD
BRANCH   9  11
ATOM     11  CA  GLU A   1       5.732   4.273  17.532  0.00  0.00    +0.000 C 
BRANCH  11  12
ATOM     12  C   GLU A   1       7.130   4.890  17.656  0.00  0.00    +0.000 C 
ATOM     13  O   GLU A   1       7.335   5.990  18.155  0.00  0.00    +0.000 OA
BRANCH  12  14
ATOM     14  OXT GLU A   1       8.131   4.099  17.221  0.00  0.00    +0.000 OA
ATOM     15  HXT GLU A   1       9.029   4.357  17.521  0.00  0.00    +0.000 HD
ENDBRANCH  12  14
ENDBRANCH  11  12
BRANCH  11  16
ATOM     16  CB  GLU A   1       5.366   4.027  16.058  0.00  0.00    +0.000 C 
BRANCH  16  17
ATOM     17  CG  GLU A   1       5.664   5.193  15.129  0.00  0.00    +0.000 C 
BRANCH  17  18
ATOM     18  CD  GLU A   1       6.725   4.818  14.129  0.00  0.00    +0.000 C 
ATOM     19  OE1 GLU A   1       6.504   4.057  13.194  0.00  0.00    +0.000 OA
BRANCH  18  20
ATOM     20  OE2 GLU A   1       7.894   5.459  14.300  0.00  0.00    +0.000 OA
ATOM     21  HE2 GLU A   1       8.352   5.262  15.149  0.00  0.00    +0.000 HD
ENDBRANCH  18  20
ENDBRANCH  17  18
ENDBRANCH  16  17
ENDBRANCH  11  16
ENDBRANCH   9  11
ENDBRANCH   4   7
BRANCH   1  23
ATOM     22  C   UNK A   0       0.558   9.750  22.076  0.00  0.00    +0.000 C 
ATOM     23  C   UNK A   0       0.200   9.042  20.758  0.00  0.00    +0.000 C 
BRANCH  23  24
ATOM     24  C   UNK A   0       0.030  10.073  19.611  0.00  0.00    +0.000 C 
BRANCH  24  25
ATOM     25  C   UNK A   0      -1.387  10.196  19.036  0.00  0.00    +0.000 C 
ATOM     26  C   UNK A   0      -1.416  10.253  17.501  0.00  0.00    +0.000 C 
ATOM     27  N   UNK A   0      -2.795  10.236  17.066  0.00  0.00    +0.000 N 
ATOM     28  C   UNK A   0      -3.668  11.136  17.656  0.00  0.00    +0.000 A 
ATOM     29  N   UNK A   0      -4.814  11.372  17.010  0.00  0.00    +0.000 NA
ATOM     30  C   UNK A   0      -5.697  12.183  17.597  0.00  0.00    +0.000 A 
ATOM     31  N   UNK A   0      -6.890  12.404  16.946  0.00  0.00    +0.000 N 
ATOM     32  N   UNK A   0      -5.497  12.828  18.750  0.00  0.00    +0.000 NA
ATOM     33  C   UNK A   0      -4.337  12.562  19.351  0.00  0.00    +0.000 A 
ATOM     34  C   UNK A   0      -3.377  11.708  18.882  0.00  0.00    +0.000 A 
ATOM     35  C   UNK A   0      -2.083  11.454  19.587  0.00  0.00    +0.000 C 
ATOM     36  H   UNK A   0      -3.019  10.061  16.094  0.00  0.00    +0.000 HD
ATOM     37  H   UNK A   0      -6.782  12.192  15.962  0.00  0.00    +0.000 HD
ATOM     38  H   UNK A   0      -7.270  13.302  17.193  0.00  0.00    +0.000 HD
BRANCH  33  39
ATOM     39  O   UNK A   0      -4.161  13.235  20.519  0.00  0.00    +0.000 OA
ATOM     40  H   UNK A   0      -3.733  12.544  21.056  0.00  0.00    +0.000 HD
ENDBRANCH  33  39
ENDBRANCH  24  25
ENDBRANCH  23  24
ENDBRANCH   1  23
TORSDOF 12
ENDMDL
MODEL 7
REMARK VINA RESULT:      -7.9      3.041      4.484
REMARK  Name = 
REMARK  13 active torsions:
REMARK  status: ('A' for Active; 'I' for Inactive)
REMARK    1  A    between atoms: C_1  and  C_2
REMARK    2  A    between atoms: C_2  and  C_3
REMARK    3  A    between atoms: C_2  and  C_16
REMARK    4  A    between atoms: C_3  and  C_4
REMARK    5  A    between atoms: C_12  and  O_13
REMARK    6  A    between atoms: C_19  and  C_20
REMARK    7  A    between atoms: N_22  and  CA_23
REMARK    8  A    between atoms: CA_23  and  CB_24
REMARK    9  A    between atoms: CA_23  and  C_29
REMARK   10  A    between atoms: CB_24  and  CG_25
REMARK   11  A    between atoms: CG_25  and  CD_26
REMARK   12  A    between atoms: CD_26  and  OE2_28
REMARK   13  A    between atoms: C_29  and  OXT_31
REMARK                            x       y       z     vdW  Elec       q    Type
REMARK                         _______ _______ _______ _____ _____    ______ ____
ROOT
ATOM      1  C   UNK A   0       0.911   9.728  18.945  0.00  0.00    +0.000 A 
ATOM      2  C   UNK A   0       1.690   9.457  17.810  0.00  0.00    +0.000 A 
ATOM      3  C   UNK A   0       2.501   8.329  17.748  0.00  0.00    +0.000 A 
ATOM      4  C   UNK A   0       2.547   7.442  18.824  0.00  0.00    +0.000 A 
ATOM      5  C   UNK A   0       1.854   7.741  19.998  0.00  0.00    +0.000 A 
ATOM      6  C   UNK A   0       1.052   8.880  20.059  0.00  0.00    +0.000 A 
ENDROOT
BRANCH   4   7
ATOM      7  C   UNK A   0       3.331   6.200  18.640  0.00  0.00    +0.000 C 
ATOM      8  O   UNK A   0       4.455   6.238  18.155  0.00  0.00    +0.000 OA
ATOM      9  N   GLU A   1       2.708   5.031  18.999  0.00  0.00    +0.000 N 
ATOM     10  H   GLU A   1       1.729   5.034  19.266  0.00  0.00    +0.000 HD
BRANCH   9  11
ATOM     11  CA  GLU A   1       3.355   3.734  18.831  0.00  0.00    +0.000 C 
BRANCH  11  12
ATOM     12  C   GLU A   1       2.463   2.939  17.870  0.00  0.00    +0.000 C 
ATOM     13  O   GLU A   1       2.738   1.809  17.481  0.00  0.00    +0.000 OA
BRANCH  12  14
ATOM     14  OXT GLU A   1       1.316   3.559  17.527  0.00  0.00    +0.000 OA
ATOM     15  HXT GLU A   1       0.857   3.186  16.745  0.00  0.00    +0.000 HD
ENDBRANCH  12  14
ENDBRANCH  11  12
BRANCH  11  16
ATOM     16  CB  GLU A   1       3.483   3.016  20.186  0.00  0.00    +0.000 C 
BRANCH  16  17
ATOM     17  CG  GLU A   1       2.667   3.635  21.310  0.00  0.00    +0.000 C 
BRANCH  17  18
ATOM     18  CD  GLU A   1       1.370   2.895  21.495  0.00  0.00    +0.000 C 
ATOM     19  OE1 GLU A   1       1.145   2.205  22.482  0.00  0.00    +0.000 OA
BRANCH  18  20
ATOM     20  OE2 GLU A   1       0.459   3.133  20.536  0.00  0.00    +0.000 OA
ATOM     21  HE2 GLU A   1       0.020   4.012  20.592  0.00  0.00    +0.000 HD
ENDBRANCH  18  20
ENDBRANCH  17  18
ENDBRANCH  16  17
ENDBRANCH  11  16
ENDBRANCH   9  11
ENDBRANCH   4   7
BRANCH   1  23
ATOM     22  C   UNK A   0      -1.373  10.614  18.202  0.00  0.00    +0.000 C 
ATOM     23  C   UNK A   0      -0.080  10.891  18.989  0.00  0.00    +0.000 C 
BRANCH  23  24
ATOM     24  C   UNK A   0      -0.404  11.246  20.465  0.00  0.00    +0.000 C 
BRANCH  24  25
ATOM     25  C   UNK A   0      -1.631  12.143  20.676  0.00  0.00    +0.000 C 
ATOM     26  C   UNK A   0      -1.346  13.631  20.420  0.00  0.00    +0.000 C 
ATOM     27  N   UNK A   0      -2.590  14.361  20.520  0.00  0.00    +0.000 N 
ATOM     28  C   UNK A   0      -3.375  14.147  21.642  0.00  0.00    +0.000 A 
ATOM     29  N   UNK A   0      -4.305  15.069  21.908  0.00  0.00    +0.000 NA
ATOM     30  C   UNK A   0      -5.116  14.845  22.944  0.00  0.00    +0.000 A 
ATOM     31  N   UNK A   0      -6.093  15.781  23.201  0.00  0.00    +0.000 N 
ATOM     32  N   UNK A   0      -5.029  13.803  23.775  0.00  0.00    +0.000 NA
ATOM     33  C   UNK A   0      -4.082  12.916  23.469  0.00  0.00    +0.000 A 
ATOM     34  C   UNK A   0      -3.228  13.002  22.403  0.00  0.00    +0.000 A 
ATOM     35  C   UNK A   0      -2.170  11.986  22.110  0.00  0.00    +0.000 C 
ATOM     36  H   UNK A   0      -2.647  15.315  20.184  0.00  0.00    +0.000 HD
ATOM     37  H   UNK A   0      -5.837  16.664  22.778  0.00  0.00    +0.000 HD
ATOM     38  H   UNK A   0      -6.337  15.782  24.177  0.00  0.00    +0.000 HD
BRANCH  33  39
ATOM     39  O   UNK A   0      -4.015  11.869  24.334  0.00  0.00    +0.000 OA
ATOM     40  H   UNK A   0      -3.064  11.878  24.544  0.00  0.00    +0.000 HD
ENDBRANCH  33  39
ENDBRANCH  24  25
ENDBRANCH  23  24
ENDBRANCH   1  23
TORSDOF 12
ENDMDL
MODEL 8
REMARK VINA RESULT:      -7.8      2.646      3.919
REMARK  Name = 
REMARK  13 active torsions:
REMARK  status: ('A' for Active; 'I' for Inactive)
REMARK    1  A    between atoms: C_1  and  C_2
REMARK    2  A    between atoms: C_2  and  C_3
REMARK    3  A    between atoms: C_2  and  C_16
REMARK    4  A    between atoms: C_3  and  C_4
REMARK    5  A    between atoms: C_12  and  O_13
REMARK    6  A    between atoms: C_19  and  C_20
REMARK    7  A    between atoms: N_22  and  CA_23
REMARK    8  A    between atoms: CA_23  and  CB_24
REMARK    9  A    between atoms: CA_23  and  C_29
REMARK   10  A    between atoms: CB_24  and  CG_25
REMARK   11  A    between atoms: CG_25  and  CD_26
REMARK   12  A    between atoms: CD_26  and  OE2_28
REMARK   13  A    between atoms: C_29  and  OXT_31
REMARK                            x       y       z     vdW  Elec       q    Type
REMARK                         _______ _______ _______ _____ _____    ______ ____
ROOT
ATOM      1  C   UNK A   0       0.894   9.639  18.907  0.00  0.00    +0.000 A 
ATOM      2  C   UNK A   0       1.670   9.325  17.782  0.00  0.00    +0.000 A 
ATOM      3  C   UNK A   0       2.527   8.229  17.784  0.00  0.00    +0.000 A 
ATOM      4  C   UNK A   0       2.622   7.419  18.915  0.00  0.00    +0.000 A 
ATOM      5  C   UNK A   0       1.929   7.767  20.077  0.00  0.00    +0.000 A 
ATOM      6  C   UNK A   0       1.081   8.874  20.072  0.00  0.00    +0.000 A 
ENDROOT
BRANCH   4   7
ATOM      7  C   UNK A   0       3.455   6.200  18.803  0.00  0.00    +0.000 C 
ATOM      8  O   UNK A   0       3.807   5.591  19.806  0.00  0.00    +0.000 OA
ATOM      9  N   GLU A   1       3.832   5.838  17.535  0.00  0.00    +0.000 N 
ATOM     10  H   GLU A   1       3.634   6.448  16.748  0.00  0.00    +0.000 HD
BRANCH   9  11
ATOM     11  CA  GLU A   1       4.687   4.681  17.289  0.00  0.00    +0.000 C 
BRANCH  11  12
ATOM     12  C   GLU A   1       5.681   5.113  16.205  0.00  0.00    +0.000 C 
ATOM     13  O   GLU A   1       5.857   6.283  15.885  0.00  0.00    +0.000 OA
BRANCH  12  14
ATOM     14  OXT GLU A   1       6.395   4.104  15.666  0.00  0.00    +0.000 OA
ATOM     15  HXT GLU A   1       7.030   3.670  16.275  0.00  0.00    +0.000 HD
ENDBRANCH  12  14
ENDBRANCH  11  12
BRANCH  11  16
ATOM     16  CB  GLU A   1       3.847   3.481  16.820  0.00  0.00    +0.000 C 
BRANCH  16  17
ATOM     17  CG  GLU A   1       3.315   2.603  17.942  0.00  0.00    +0.000 C 
BRANCH  17  18
ATOM     18  CD  GLU A   1       1.825   2.761  18.082  0.00  0.00    +0.000 C 
ATOM     19  OE1 GLU A   1       1.227   3.736  17.643  0.00  0.00    +0.000 OA
BRANCH  18  20
ATOM     20  OE2 GLU A   1       1.209   1.706  18.641  0.00  0.00    +0.000 OA
ATOM     21  HE2 GLU A   1       0.727   1.905  19.476  0.00  0.00    +0.000 HD
ENDBRANCH  18  20
ENDBRANCH  17  18
ENDBRANCH  16  17
ENDBRANCH  11  16
ENDBRANCH   9  11
ENDBRANCH   4   7
BRANCH   1  23
ATOM     22  C   UNK A   0      -1.466  10.350  18.214  0.00  0.00    +0.000 C 
ATOM     23  C   UNK A   0      -0.145  10.761  18.887  0.00  0.00    +0.000 C 
BRANCH  23  24
ATOM     24  C   UNK A   0      -0.400  11.263  20.334  0.00  0.00    +0.000 C 
BRANCH  24  25
ATOM     25  C   UNK A   0      -1.677  12.091  20.532  0.00  0.00    +0.000 C 
ATOM     26  C   UNK A   0      -1.497  13.576  20.181  0.00  0.00    +0.000 C 
ATOM     27  N   UNK A   0      -2.782  14.230  20.278  0.00  0.00    +0.000 N 
ATOM     28  C   UNK A   0      -3.519  14.034  21.434  0.00  0.00    +0.000 A 
ATOM     29  N   UNK A   0      -4.500  14.910  21.676  0.00  0.00    +0.000 NA
ATOM     30  C   UNK A   0      -5.265  14.697  22.749  0.00  0.00    +0.000 A 
ATOM     31  N   UNK A   0      -6.294  15.582  22.983  0.00  0.00    +0.000 N 
ATOM     32  N   UNK A   0      -5.087  13.715  23.636  0.00  0.00    +0.000 NA
ATOM     33  C   UNK A   0      -4.092  12.872  23.352  0.00  0.00    +0.000 A 
ATOM     34  C   UNK A   0      -3.277  12.949  22.256  0.00  0.00    +0.000 A 
ATOM     35  C   UNK A   0      -2.163  11.987  21.989  0.00  0.00    +0.000 C 
ATOM     36  H   UNK A   0      -2.912  15.156  19.889  0.00  0.00    +0.000 HD
ATOM     37  H   UNK A   0      -6.108  16.453  22.501  0.00  0.00    +0.000 HD
ATOM     38  H   UNK A   0      -6.510  15.626  23.964  0.00  0.00    +0.000 HD
BRANCH  33  39
ATOM     39  O   UNK A   0      -3.932  11.886  24.273  0.00  0.00    +0.000 OA
ATOM     40  H   UNK A   0      -4.411  12.274  25.028  0.00  0.00    +0.000 HD
ENDBRANCH  33  39
ENDBRANCH  24  25
ENDBRANCH  23  24
ENDBRANCH   1  23
TORSDOF 12
ENDMDL
MODEL 9
REMARK VINA RESULT:      -7.8      3.342      4.767
REMARK  Name = 
REMARK  13 active torsions:
REMARK  status: ('A' for Active; 'I' for Inactive)
REMARK    1  A    between atoms: C_1  and  C_2
REMARK    2  A    between atoms: C_2  and  C_3
REMARK    3  A    between atoms: C_2  and  C_16
REMARK    4  A    between atoms: C_3  and  C_4
REMARK    5  A    between atoms: C_12  and  O_13
REMARK    6  A    between atoms: C_19  and  C_20
REMARK    7  A    between atoms: N_22  and  CA_23
REMARK    8  A    between atoms: CA_23  and  CB_24
REMARK    9  A    between atoms: CA_23  and  C_29
REMARK   10  A    between atoms: CB_24  and  CG_25
REMARK   11  A    between atoms: CG_25  and  CD_26
REMARK   12  A    between atoms: CD_26  and  OE2_28
REMARK   13  A    between atoms: C_29  and  OXT_31
REMARK                            x       y       z     vdW  Elec       q    Type
REMARK                         _______ _______ _______ _____ _____    ______ ____
ROOT
ATOM      1  C   UNK A   0       1.367   8.587  19.547  0.00  0.00    +0.000 A 
ATOM      2  C   UNK A   0       1.450   7.523  20.457  0.00  0.00    +0.000 A 
ATOM      3  C   UNK A   0       2.252   6.416  20.197  0.00  0.00    +0.000 A 
ATOM      4  C   UNK A   0       2.995   6.354  19.018  0.00  0.00    +0.000 A 
ATOM      5  C   UNK A   0       2.854   7.357  18.056  0.00  0.00    +0.000 A 
ATOM      6  C   UNK A   0       2.038   8.457  18.318  0.00  0.00    +0.000 A 
ENDROOT
BRANCH   4   7
ATOM      7  C   UNK A   0       3.922   5.210  18.865  0.00  0.00    +0.000 C 
ATOM      8  O   UNK A   0       3.936   4.304  19.689  0.00  0.00    +0.000 OA
ATOM      9  N   GLU A   1       4.771   5.258  17.788  0.00  0.00    +0.000 N 
ATOM     10  H   GLU A   1       4.820   6.091  17.211  0.00  0.00    +0.000 HD
BRANCH   9  11
ATOM     11  CA  GLU A   1       5.762   4.215  17.545  0.00  0.00    +0.000 C 
BRANCH  11  12
ATOM     12  C   GLU A   1       7.129   4.864  17.789  0.00  0.00    +0.000 C 
ATOM     13  O   GLU A   1       7.271   5.917  18.401  0.00  0.00    +0.000 OA
BRANCH  12  14
ATOM     14  OXT GLU A   1       8.177   4.155  17.323  0.00  0.00    +0.000 OA
ATOM     15  HXT GLU A   1       8.439   4.355  16.399  0.00  0.00    +0.000 HD
ENDBRANCH  12  14
ENDBRANCH  11  12
BRANCH  11  16
ATOM     16  CB  GLU A   1       5.649   3.690  16.103  0.00  0.00    +0.000 C 
BRANCH  16  17
ATOM     17  CG  GLU A   1       5.572   4.775  15.040  0.00  0.00    +0.000 C 
BRANCH  17  18
ATOM     18  CD  GLU A   1       6.744   4.682  14.100  0.00  0.00    +0.000 C 
ATOM     19  OE1 GLU A   1       6.684   4.076  13.037  0.00  0.00    +0.000 OA
BRANCH  18  20
ATOM     20  OE2 GLU A   1       7.817   5.393  14.486  0.00  0.00    +0.000 OA
ATOM     21  HE2 GLU A   1       7.737   5.812  15.373  0.00  0.00    +0.000 HD
ENDBRANCH  18  20
ENDBRANCH  17  18
ENDBRANCH  16  17
ENDBRANCH  11  16
ENDBRANCH   9  11
ENDBRANCH   4   7
BRANCH   1  23
ATOM     22  C   UNK A   0       1.042  10.536  21.175  0.00  0.00    +0.000 C 
ATOM     23  C   UNK A   0       0.592   9.866  19.864  0.00  0.00    +0.000 C 
BRANCH  23  24
ATOM     24  C   UNK A   0       0.709  10.857  18.676  0.00  0.00    +0.000 C 
BRANCH  24  25
ATOM     25  C   UNK A   0       0.586  12.343  19.037  0.00  0.00    +0.000 C 
ATOM     26  C   UNK A   0      -0.666  13.010  18.447  0.00  0.00    +0.000 C 
ATOM     27  N   UNK A   0      -0.749  14.361  18.954  0.00  0.00    +0.000 N 
ATOM     28  C   UNK A   0       0.382  15.156  18.858  0.00  0.00    +0.000 A 
ATOM     29  N   UNK A   0       0.200  16.475  18.975  0.00  0.00    +0.000 NA
ATOM     30  C   UNK A   0       1.286  17.252  18.954  0.00  0.00    +0.000 A 
ATOM     31  N   UNK A   0       1.101  18.608  19.103  0.00  0.00    +0.000 N 
ATOM     32  N   UNK A   0       2.534  16.819  18.761  0.00  0.00    +0.000 NA
ATOM     33  C   UNK A   0       2.661  15.496  18.645  0.00  0.00    +0.000 A 
ATOM     34  C   UNK A   0       1.636  14.593  18.707  0.00  0.00    +0.000 A 
ATOM     35  C   UNK A   0       1.828  13.117  18.556  0.00  0.00    +0.000 C 
ATOM     36  H   UNK A   0      -1.605  14.892  18.847  0.00  0.00    +0.000 HD
ATOM     37  H   UNK A   0       0.147  18.848  18.865  0.00  0.00    +0.000 HD
ATOM     38  H   UNK A   0       1.840  19.120  18.652  0.00  0.00    +0.000 HD
BRANCH  33  39
ATOM     39  O   UNK A   0       3.941  15.086  18.446  0.00  0.00    +0.000 OA
ATOM     40  H   UNK A   0       4.201  14.874  19.361  0.00  0.00    +0.000 HD
ENDBRANCH  33  39
ENDBRANCH  24  25
ENDBRANCH  23  24
ENDBRANCH   1  23
TORSDOF 12
ENDMDL
