MODEL 1
REMARK VINA RESULT:      -6.9      0.000      0.000
REMARK  Name = 
REMARK  16 active torsions:
REMARK  status: ('A' for Active; 'I' for Inactive)
REMARK    1  A    between atoms: C_1  and  N_2
REMARK    2  A    between atoms: N_2  and  C_3
REMARK    3  A    between atoms: N_2  and  C_4
REMARK    4  A    between atoms: N_7  and  C_8
REMARK    5  A    between atoms: C_8  and  C_9
REMARK    6  A    between atoms: C_9  and  C_10
REMARK    7  A    between atoms: C_10  and  C_11
REMARK    8  A    between atoms: C_11  and  C_12
REMARK    9  A    between atoms: C_12  and  C_13
REMARK   10  A    between atoms: C_13  and  C_14
REMARK   11  A    between atoms: C_14  and  C_15
REMARK   12  A    between atoms: C_15  and  C_16
REMARK   13  A    between atoms: C_16  and  C_17
REMARK   14  A    between atoms: C_17  and  C_18
REMARK   15  A    between atoms: C_18  and  C_19
REMARK   16  A    between atoms: C_19  and  N_20
REMARK                            x       y       z     vdW  Elec       q    Type
REMARK                         _______ _______ _______ _____ _____    ______ ____
ROOT
ATOM      1  C   UNL     1       1.290   5.426  20.447  0.00  0.00    +0.000 C 
ENDROOT
BRANCH   1   2
ATOM      2  C   UNL     1       1.989   4.256  21.141  0.00  0.00    +0.000 C 
BRANCH   2   3
ATOM      3  C   UNL     1       1.269   2.909  20.963  0.00  0.00    +0.000 C 
BRANCH   3   4
ATOM      4  C   UNL     1       1.004   2.549  19.499  0.00  0.00    +0.000 C 
BRANCH   4   5
ATOM      5  C   UNL     1       2.177   1.776  18.887  0.00  0.00    +0.000 C 
BRANCH   5   6
ATOM      6  C   UNL     1       2.598   2.387  17.550  0.00  0.00    +0.000 C 
BRANCH   6  10
ATOM      7  C   UNL     1       5.826   5.152  18.141  0.00  0.00    +0.000 A 
ATOM      8  C   UNL     1       5.039   5.164  16.985  0.00  0.00    +0.000 A 
ATOM      9  C   UNL     1       3.995   4.256  16.810  0.00  0.00    +0.000 A 
ATOM     10  N   UNL     1       3.702   3.351  17.767  0.00  0.00    +0.000 N 
ATOM     11  C   UNL     1       4.435   3.303  18.900  0.00  0.00    +0.000 A 
ATOM     12  C   UNL     1       5.496   4.186  19.096  0.00  0.00    +0.000 A 
BRANCH   7  14
ATOM     13  C   UNL     1       7.884   5.788  19.337  0.00  0.00    +0.000 C 
ATOM     14  N   UNL     1       6.870   6.048  18.314  0.00  0.00    +0.000 N 
ATOM     15  C   UNL     1       7.220   7.028  17.286  0.00  0.00    +0.000 C 
ENDBRANCH   7  14
ENDBRANCH   6  10
ENDBRANCH   5   6
ENDBRANCH   4   5
ENDBRANCH   3   4
ENDBRANCH   2   3
ENDBRANCH   1   2
BRANCH   1  16
ATOM     16  C   UNL     1       2.134   6.075  19.343  0.00  0.00    +0.000 C 
BRANCH  16  17
ATOM     17  C   UNL     1       2.284   7.610  19.401  0.00  0.00    +0.000 C 
BRANCH  17  18
ATOM     18  C   UNL     1       2.249   8.296  18.028  0.00  0.00    +0.000 C 
BRANCH  18  19
ATOM     19  C   UNL     1       1.227   9.444  17.895  0.00  0.00    +0.000 C 
BRANCH  19  20
ATOM     20  C   UNL     1       0.751  10.151  19.177  0.00  0.00    +0.000 C 
BRANCH  20  21
ATOM     21  C   UNL     1       0.326  11.616  19.011  0.00  0.00    +0.000 C 
BRANCH  21  22
ATOM     22  N   UNL     1      -1.117  11.802  19.059  0.00  0.00    +0.000 N 
ATOM     23  C   UNL     1      -1.752  12.279  20.176  0.00  0.00    +0.000 A 
ATOM     24  N   UNL     1      -3.041  12.412  19.999  0.00  0.00    +0.000 NA
ATOM     25  C   UNL     1      -3.281  11.880  18.760  0.00  0.00    +0.000 A 
ATOM     26  C   UNL     1      -4.520  11.644  18.144  0.00  0.00    +0.000 A 
ATOM     27  C   UNL     1      -4.546  10.980  16.918  0.00  0.00    +0.000 A 
ATOM     28  C   UNL     1      -3.353  10.653  16.269  0.00  0.00    +0.000 A 
ATOM     29  C   UNL     1      -2.098  10.944  16.836  0.00  0.00    +0.000 A 
ATOM     30  C   UNL     1      -2.088  11.511  18.122  0.00  0.00    +0.000 A 
ENDBRANCH  21  22
ENDBRANCH  20  21
ENDBRANCH  19  20
ENDBRANCH  18  19
ENDBRANCH  17  18
ENDBRANCH  16  17
ENDBRANCH   1  16
TORSDOF 14
ENDMDL
MODEL 2
REMARK VINA RESULT:      -6.7      1.219      1.932
REMARK  Name = 
REMARK  16 active torsions:
REMARK  status: ('A' for Active; 'I' for Inactive)
REMARK    1  A    between atoms: C_1  and  N_2
REMARK    2  A    between atoms: N_2  and  C_3
REMARK    3  A    between atoms: N_2  and  C_4
REMARK    4  A    between atoms: N_7  and  C_8
REMARK    5  A    between atoms: C_8  and  C_9
REMARK    6  A    between atoms: C_9  and  C_10
REMARK    7  A    between atoms: C_10  and  C_11
REMARK    8  A    between atoms: C_11  and  C_12
REMARK    9  A    between atoms: C_12  and  C_13
REMARK   10  A    between atoms: C_13  and  C_14
REMARK   11  A    between atoms: C_14  and  C_15
REMARK   12  A    between atoms: C_15  and  C_16
REMARK   13  A    between atoms: C_16  and  C_17
REMARK   14  A    between atoms: C_17  and  C_18
REMARK   15  A    between atoms: C_18  and  C_19
REMARK   16  A    between atoms: C_19  and  N_20
REMARK                            x       y       z     vdW  Elec       q    Type
REMARK                         _______ _______ _______ _____ _____    ______ ____
ROOT
ATOM      1  C   UNL     1       2.448   6.135  19.904  0.00  0.00    +0.000 C 
ENDROOT
BRANCH   1   2
ATOM      2  C   UNL     1       1.378   5.156  19.418  0.00  0.00    +0.000 C 
BRANCH   2   3
ATOM      3  C   UNL     1       1.013   4.074  20.449  0.00  0.00    +0.000 C 
BRANCH   3   4
ATOM      4  C   UNL     1       1.362   2.656  19.992  0.00  0.00    +0.000 C 
BRANCH   4   5
ATOM      5  C   UNL     1       1.428   2.554  18.464  0.00  0.00    +0.000 C 
BRANCH   5   6
ATOM      6  C   UNL     1       2.790   2.030  18.009  0.00  0.00    +0.000 C 
BRANCH   6  10
ATOM      7  C   UNL     1       5.724   5.158  18.155  0.00  0.00    +0.000 A 
ATOM      8  C   UNL     1       4.848   5.011  17.075  0.00  0.00    +0.000 A 
ATOM      9  C   UNL     1       3.902   3.986  17.044  0.00  0.00    +0.000 A 
ATOM     10  N   UNL     1       3.792   3.119  18.072  0.00  0.00    +0.000 N 
ATOM     11  C   UNL     1       4.617   3.223  19.137  0.00  0.00    +0.000 A 
ATOM     12  C   UNL     1       5.585   4.226  19.188  0.00  0.00    +0.000 A 
BRANCH   7  14
ATOM     13  C   UNL     1       7.887   6.000  18.982  0.00  0.00    +0.000 C 
ATOM     14  N   UNL     1       6.671   6.170  18.185  0.00  0.00    +0.000 N 
ATOM     15  C   UNL     1       6.701   7.225  17.172  0.00  0.00    +0.000 C 
ENDBRANCH   7  14
ENDBRANCH   6  10
ENDBRANCH   5   6
ENDBRANCH   4   5
ENDBRANCH   3   4
ENDBRANCH   2   3
ENDBRANCH   1   2
BRANCH   1  16
ATOM     16  C   UNL     1       2.122   7.601  19.592  0.00  0.00    +0.000 C 
BRANCH  16  17
ATOM     17  C   UNL     1       2.170   8.017  18.106  0.00  0.00    +0.000 C 
BRANCH  17  18
ATOM     18  C   UNL     1       1.832   9.494  17.858  0.00  0.00    +0.000 C 
BRANCH  18  19
ATOM     19  C   UNL     1       0.973  10.162  18.951  0.00  0.00    +0.000 C 
BRANCH  19  20
ATOM     20  C   UNL     1      -0.553  10.215  18.753  0.00  0.00    +0.000 C 
BRANCH  20  21
ATOM     21  C   UNL     1      -1.113  11.551  18.247  0.00  0.00    +0.000 C 
BRANCH  21  22
ATOM     22  N   UNL     1      -2.479  11.448  17.754  0.00  0.00    +0.000 N 
ATOM     23  C   UNL     1      -2.764  11.026  16.482  0.00  0.00    +0.000 A 
ATOM     24  N   UNL     1      -4.050  10.963  16.252  0.00  0.00    +0.000 NA
ATOM     25  C   UNL     1      -4.632  11.489  17.376  0.00  0.00    +0.000 A 
ATOM     26  C   UNL     1      -5.986  11.785  17.591  0.00  0.00    +0.000 A 
ATOM     27  C   UNL     1      -6.355  12.430  18.772  0.00  0.00    +0.000 A 
ATOM     28  C   UNL     1      -5.403  12.678  19.764  0.00  0.00    +0.000 A 
ATOM     29  C   UNL     1      -4.050  12.326  19.598  0.00  0.00    +0.000 A 
ATOM     30  C   UNL     1      -3.675  11.779  18.359  0.00  0.00    +0.000 A 
ENDBRANCH  21  22
ENDBRANCH  20  21
ENDBRANCH  19  20
ENDBRANCH  18  19
ENDBRANCH  17  18
ENDBRANCH  16  17
ENDBRANCH   1  16
TORSDOF 14
ENDMDL
MODEL 3
REMARK VINA RESULT:      -6.6      0.765      1.172
REMARK  Name = 
REMARK  16 active torsions:
REMARK  status: ('A' for Active; 'I' for Inactive)
REMARK    1  A    between atoms: C_1  and  N_2
REMARK    2  A    between atoms: N_2  and  C_3
REMARK    3  A    between atoms: N_2  and  C_4
REMARK    4  A    between atoms: N_7  and  C_8
REMARK    5  A    between atoms: C_8  and  C_9
REMARK    6  A    between atoms: C_9  and  C_10
REMARK    7  A    between atoms: C_10  and  C_11
REMARK    8  A    between atoms: C_11  and  C_12
REMARK    9  A    between atoms: C_12  and  C_13
REMARK   10  A    between atoms: C_13  and  C_14
REMARK   11  A    between atoms: C_14  and  C_15
REMARK   12  A    between atoms: C_15  and  C_16
REMARK   13  A    between atoms: C_16  and  C_17
REMARK   14  A    between atoms: C_17  and  C_18
REMARK   15  A    between atoms: C_18  and  C_19
REMARK   16  A    between atoms: C_19  and  N_20
REMARK                            x       y       z     vdW  Elec       q    Type
REMARK                         _______ _______ _______ _____ _____    ______ ____
ROOT
ATOM      1  C   UNL     1       2.195   5.744  20.206  0.00  0.00    +0.000 C 
ENDROOT
BRANCH   1   2
ATOM      2  C   UNL     1       1.449   4.552  20.809  0.00  0.00    +0.000 C 
BRANCH   2   3
ATOM      3  C   UNL     1       0.756   3.662  19.763  0.00  0.00    +0.000 C 
BRANCH   3   4
ATOM      4  C   UNL     1       1.335   2.248  19.687  0.00  0.00    +0.000 C 
BRANCH   4   5
ATOM      5  C   UNL     1       1.911   1.947  18.299  0.00  0.00    +0.000 C 
BRANCH   5   6
ATOM      6  C   UNL     1       3.389   1.566  18.389  0.00  0.00    +0.000 C 
BRANCH   6  10
ATOM      7  C   UNL     1       5.777   5.119  18.100  0.00  0.00    +0.000 A 
ATOM      8  C   UNL     1       5.587   4.448  19.312  0.00  0.00    +0.000 A 
ATOM      9  C   UNL     1       4.806   3.295  19.387  0.00  0.00    +0.000 A 
ATOM     10  N   UNL     1       4.227   2.782  18.281  0.00  0.00    +0.000 N 
ATOM     11  C   UNL     1       4.383   3.397  17.088  0.00  0.00    +0.000 A 
ATOM     12  C   UNL     1       5.143   4.561  16.986  0.00  0.00    +0.000 A 
BRANCH   7  14
ATOM     13  C   UNL     1       7.835   6.326  18.717  0.00  0.00    +0.000 C 
ATOM     14  N   UNL     1       6.546   6.270  18.024  0.00  0.00    +0.000 N 
ATOM     15  C   UNL     1       6.321   7.278  16.988  0.00  0.00    +0.000 C 
ENDBRANCH   7  14
ENDBRANCH   6  10
ENDBRANCH   5   6
ENDBRANCH   4   5
ENDBRANCH   3   4
ENDBRANCH   2   3
ENDBRANCH   1   2
BRANCH   1  16
ATOM     16  C   UNL     1       2.175   5.767  18.673  0.00  0.00    +0.000 C 
BRANCH  16  17
ATOM     17  C   UNL     1       2.480   7.122  17.999  0.00  0.00    +0.000 C 
BRANCH  17  18
ATOM     18  C   UNL     1       2.135   8.343  18.862  0.00  0.00    +0.000 C 
BRANCH  18  19
ATOM     19  C   UNL     1       2.188   9.699  18.128  0.00  0.00    +0.000 C 
BRANCH  19  20
ATOM     20  C   UNL     1       0.949  10.611  18.187  0.00  0.00    +0.000 C 
BRANCH  20  21
ATOM     21  C   UNL     1       0.014  10.388  19.384  0.00  0.00    +0.000 C 
BRANCH  21  22
ATOM     22  N   UNL     1      -1.278  11.041  19.229  0.00  0.00    +0.000 N 
ATOM     23  C   UNL     1      -1.805  11.851  20.200  0.00  0.00    +0.000 A 
ATOM     24  N   UNL     1      -2.952  12.373  19.849  0.00  0.00    +0.000 NA
ATOM     25  C   UNL     1      -3.253  11.778  18.651  0.00  0.00    +0.000 A 
ATOM     26  C   UNL     1      -4.441  11.876  17.911  0.00  0.00    +0.000 A 
ATOM     27  C   UNL     1      -4.589  11.092  16.768  0.00  0.00    +0.000 A 
ATOM     28  C   UNL     1      -3.528  10.305  16.314  0.00  0.00    +0.000 A 
ATOM     29  C   UNL     1      -2.301  10.246  17.002  0.00  0.00    +0.000 A 
ATOM     30  C   UNL     1      -2.208  10.954  18.212  0.00  0.00    +0.000 A 
ENDBRANCH  21  22
ENDBRANCH  20  21
ENDBRANCH  19  20
ENDBRANCH  18  19
ENDBRANCH  17  18
ENDBRANCH  16  17
ENDBRANCH   1  16
TORSDOF 14
ENDMDL
MODEL 4
REMARK VINA RESULT:      -6.5      1.595     10.430
REMARK  Name = 
REMARK  16 active torsions:
REMARK  status: ('A' for Active; 'I' for Inactive)
REMARK    1  A    between atoms: C_1  and  N_2
REMARK    2  A    between atoms: N_2  and  C_3
REMARK    3  A    between atoms: N_2  and  C_4
REMARK    4  A    between atoms: N_7  and  C_8
REMARK    5  A    between atoms: C_8  and  C_9
REMARK    6  A    between atoms: C_9  and  C_10
REMARK    7  A    between atoms: C_10  and  C_11
REMARK    8  A    between atoms: C_11  and  C_12
REMARK    9  A    between atoms: C_12  and  C_13
REMARK   10  A    between atoms: C_13  and  C_14
REMARK   11  A    between atoms: C_14  and  C_15
REMARK   12  A    between atoms: C_15  and  C_16
REMARK   13  A    between atoms: C_16  and  C_17
REMARK   14  A    between atoms: C_17  and  C_18
REMARK   15  A    between atoms: C_18  and  C_19
REMARK   16  A    between atoms: C_19  and  N_20
REMARK                            x       y       z     vdW  Elec       q    Type
REMARK                         _______ _______ _______ _____ _____    ______ ____
ROOT
ATOM      1  C   UNL     1       2.461   7.466  18.757  0.00  0.00    +0.000 C 
ENDROOT
BRANCH   1   2
ATOM      2  C   UNL     1       1.798   8.361  17.709  0.00  0.00    +0.000 C 
BRANCH   2   3
ATOM      3  C   UNL     1       1.722   9.842  18.116  0.00  0.00    +0.000 C 
BRANCH   3   4
ATOM      4  C   UNL     1       0.580  10.150  19.088  0.00  0.00    +0.000 C 
BRANCH   4   5
ATOM      5  C   UNL     1      -0.645  10.712  18.359  0.00  0.00    +0.000 C 
BRANCH   5   6
ATOM      6  C   UNL     1      -1.058  12.063  18.944  0.00  0.00    +0.000 C 
BRANCH   6  10
ATOM      7  C   UNL     1      -5.318  12.205  19.435  0.00  0.00    +0.000 A 
ATOM      8  C   UNL     1      -4.710  11.438  18.437  0.00  0.00    +0.000 A 
ATOM      9  C   UNL     1      -3.323  11.406  18.291  0.00  0.00    +0.000 A 
ATOM     10  N   UNL     1      -2.527  12.101  19.129  0.00  0.00    +0.000 N 
ATOM     11  C   UNL     1      -3.070  12.856  20.109  0.00  0.00    +0.000 A 
ATOM     12  C   UNL     1      -4.454  12.923  20.267  0.00  0.00    +0.000 A 
BRANCH   7  14
ATOM     13  C   UNL     1      -7.410  11.060  20.053  0.00  0.00    +0.000 C 
ATOM     14  N   UNL     1      -6.696  12.246  19.576  0.00  0.00    +0.000 N 
ATOM     15  C   UNL     1      -7.426  13.513  19.642  0.00  0.00    +0.000 C 
ENDBRANCH   7  14
ENDBRANCH   6  10
ENDBRANCH   5   6
ENDBRANCH   4   5
ENDBRANCH   3   4
ENDBRANCH   2   3
ENDBRANCH   1   2
BRANCH   1  16
ATOM     16  C   UNL     1       1.950   6.021  18.738  0.00  0.00    +0.000 C 
BRANCH  16  17
ATOM     17  C   UNL     1       2.047   5.238  20.065  0.00  0.00    +0.000 C 
BRANCH  17  18
ATOM     18  C   UNL     1       0.965   4.162  20.239  0.00  0.00    +0.000 C 
BRANCH  18  19
ATOM     19  C   UNL     1       1.348   2.759  19.724  0.00  0.00    +0.000 C 
BRANCH  19  20
ATOM     20  C   UNL     1       1.728   2.604  18.240  0.00  0.00    +0.000 C 
BRANCH  20  21
ATOM     21  C   UNL     1       3.152   2.101  17.967  0.00  0.00    +0.000 C 
BRANCH  21  22
ATOM     22  N   UNL     1       4.177   3.080  18.299  0.00  0.00    +0.000 N 
ATOM     23  C   UNL     1       4.764   3.127  19.537  0.00  0.00    +0.000 A 
ATOM     24  N   UNL     1       5.689   4.049  19.617  0.00  0.00    +0.000 NA
ATOM     25  C   UNL     1       5.617   4.720  18.425  0.00  0.00    +0.000 A 
ATOM     26  C   UNL     1       6.294   5.890  18.049  0.00  0.00    +0.000 A 
ATOM     27  C   UNL     1       5.988   6.480  16.823  0.00  0.00    +0.000 A 
ATOM     28  C   UNL     1       5.100   5.855  15.944  0.00  0.00    +0.000 A 
ATOM     29  C   UNL     1       4.463   4.643  16.271  0.00  0.00    +0.000 A 
ATOM     30  C   UNL     1       4.697   4.120  17.554  0.00  0.00    +0.000 A 
ENDBRANCH  21  22
ENDBRANCH  20  21
ENDBRANCH  19  20
ENDBRANCH  18  19
ENDBRANCH  17  18
ENDBRANCH  16  17
ENDBRANCH   1  16
TORSDOF 14
ENDMDL
MODEL 5
REMARK VINA RESULT:      -6.5      2.102      3.381
REMARK  Name = 
REMARK  16 active torsions:
REMARK  status: ('A' for Active; 'I' for Inactive)
REMARK    1  A    between atoms: C_1  and  N_2
REMARK    2  A    between atoms: N_2  and  C_3
REMARK    3  A    between atoms: N_2  and  C_4
REMARK    4  A    between atoms: N_7  and  C_8
REMARK    5  A    between atoms: C_8  and  C_9
REMARK    6  A    between atoms: C_9  and  C_10
REMARK    7  A    between atoms: C_10  and  C_11
REMARK    8  A    between atoms: C_11  and  C_12
REMARK    9  A    between atoms: C_12  and  C_13
REMARK   10  A    between atoms: C_13  and  C_14
REMARK   11  A    between atoms: C_14  and  C_15
REMARK   12  A    between atoms: C_15  and  C_16
REMARK   13  A    between atoms: C_16  and  C_17
REMARK   14  A    between atoms: C_17  and  C_18
REMARK   15  A    between atoms: C_18  and  C_19
REMARK   16  A    between atoms: C_19  and  N_20
REMARK                            x       y       z     vdW  Elec       q    Type
REMARK                         _______ _______ _______ _____ _____    ______ ____
ROOT
ATOM      1  C   UNL     1       2.271   6.719  18.395  0.00  0.00    +0.000 C 
ENDROOT
BRANCH   1   2
ATOM      2  C   UNL     1       2.754   6.298  19.783  0.00  0.00    +0.000 C 
BRANCH   2   3
ATOM      3  C   UNL     1       1.639   5.741  20.685  0.00  0.00    +0.000 C 
BRANCH   3   4
ATOM      4  C   UNL     1       1.242   4.303  20.345  0.00  0.00    +0.000 C 
BRANCH   4   5
ATOM      5  C   UNL     1       2.312   3.301  20.791  0.00  0.00    +0.000 C 
BRANCH   5   6
ATOM      6  C   UNL     1       2.746   2.408  19.628  0.00  0.00    +0.000 C 
BRANCH   6  10
ATOM      7  C   UNL     1       5.542   4.554  17.181  0.00  0.00    +0.000 A 
ATOM      8  C   UNL     1       5.749   4.360  18.550  0.00  0.00    +0.000 A 
ATOM      9  C   UNL     1       4.828   3.661  19.330  0.00  0.00    +0.000 A 
ATOM     10  N   UNL     1       3.717   3.132  18.776  0.00  0.00    +0.000 N 
ATOM     11  C   UNL     1       3.476   3.295  17.457  0.00  0.00    +0.000 A 
ATOM     12  C   UNL     1       4.369   4.004  16.655  0.00  0.00    +0.000 A 
BRANCH   7  14
ATOM     13  C   UNL     1       7.249   6.323  17.012  0.00  0.00    +0.000 C 
ATOM     14  N   UNL     1       6.452   5.255  16.405  0.00  0.00    +0.000 N 
ATOM     15  C   UNL     1       6.929   4.737  15.123  0.00  0.00    +0.000 C 
ENDBRANCH   7  14
ENDBRANCH   6  10
ENDBRANCH   5   6
ENDBRANCH   4   5
ENDBRANCH   3   4
ENDBRANCH   2   3
ENDBRANCH   1   2
BRANCH   1  16
ATOM     16  C   UNL     1       2.816   8.080  17.944  0.00  0.00    +0.000 C 
BRANCH  16  17
ATOM     17  C   UNL     1       1.874   9.291  18.115  0.00  0.00    +0.000 C 
BRANCH  17  18
ATOM     18  C   UNL     1       0.901   9.167  19.296  0.00  0.00    +0.000 C 
BRANCH  18  19
ATOM     19  C   UNL     1       0.766  10.433  20.168  0.00  0.00    +0.000 C 
BRANCH  19  20
ATOM     20  C   UNL     1      -0.397  11.399  19.880  0.00  0.00    +0.000 C 
BRANCH  20  21
ATOM     21  C   UNL     1      -0.827  12.292  21.051  0.00  0.00    +0.000 C 
BRANCH  21  22
ATOM     22  N   UNL     1      -2.269  12.478  21.127  0.00  0.00    +0.000 N 
ATOM     23  C   UNL     1      -3.025  12.769  20.022  0.00  0.00    +0.000 A 
ATOM     24  N   UNL     1      -4.301  12.854  20.296  0.00  0.00    +0.000 NA
ATOM     25  C   UNL     1      -4.373  12.744  21.660  0.00  0.00    +0.000 A 
ATOM     26  C   UNL     1      -5.496  12.913  22.484  0.00  0.00    +0.000 A 
ATOM     27  C   UNL     1      -5.328  12.872  23.868  0.00  0.00    +0.000 A 
ATOM     28  C   UNL     1      -4.080  12.564  24.416  0.00  0.00    +0.000 A 
ATOM     29  C   UNL     1      -2.955  12.321  23.606  0.00  0.00    +0.000 A 
ATOM     30  C   UNL     1      -3.115  12.476  22.219  0.00  0.00    +0.000 A 
ENDBRANCH  21  22
ENDBRANCH  20  21
ENDBRANCH  19  20
ENDBRANCH  18  19
ENDBRANCH  17  18
ENDBRANCH  16  17
ENDBRANCH   1  16
TORSDOF 14
ENDMDL
MODEL 6
REMARK VINA RESULT:      -6.4      1.387      9.084
REMARK  Name = 
REMARK  16 active torsions:
REMARK  status: ('A' for Active; 'I' for Inactive)
REMARK    1  A    between atoms: C_1  and  N_2
REMARK    2  A    between atoms: N_2  and  C_3
REMARK    3  A    between atoms: N_2  and  C_4
REMARK    4  A    between atoms: N_7  and  C_8
REMARK    5  A    between atoms: C_8  and  C_9
REMARK    6  A    between atoms: C_9  and  C_10
REMARK    7  A    between atoms: C_10  and  C_11
REMARK    8  A    between atoms: C_11  and  C_12
REMARK    9  A    between atoms: C_12  and  C_13
REMARK   10  A    between atoms: C_13  and  C_14
REMARK   11  A    between atoms: C_14  and  C_15
REMARK   12  A    between atoms: C_15  and  C_16
REMARK   13  A    between atoms: C_16  and  C_17
REMARK   14  A    between atoms: C_17  and  C_18
REMARK   15  A    between atoms: C_18  and  C_19
REMARK   16  A    between atoms: C_19  and  N_20
REMARK                            x       y       z     vdW  Elec       q    Type
REMARK                         _______ _______ _______ _____ _____    ______ ____
ROOT
ATOM      1  C   UNL     1       2.069   4.270  21.095  0.00  0.00    +0.000 C 
ENDROOT
BRANCH   1   2
ATOM      2  C   UNL     1       2.432   5.690  20.659  0.00  0.00    +0.000 C 
BRANCH   2   3
ATOM      3  C   UNL     1       2.939   5.783  19.210  0.00  0.00    +0.000 C 
BRANCH   3   4
ATOM      4  C   UNL     1       1.992   6.549  18.282  0.00  0.00    +0.000 C 
BRANCH   4   5
ATOM      5  C   UNL     1       2.281   8.054  18.297  0.00  0.00    +0.000 C 
BRANCH   5   6
ATOM      6  C   UNL     1       1.955   8.661  19.662  0.00  0.00    +0.000 C 
BRANCH   6  10
ATOM      7  C   UNL     1      -1.460  11.237  19.333  0.00  0.00    +0.000 A 
ATOM      8  C   UNL     1      -0.916  10.879  20.570  0.00  0.00    +0.000 A 
ATOM      9  C   UNL     1       0.194  10.039  20.657  0.00  0.00    +0.000 A 
ATOM     10  N   UNL     1       0.788   9.564  19.542  0.00  0.00    +0.000 N 
ATOM     11  C   UNL     1       0.296   9.884  18.326  0.00  0.00    +0.000 A 
ATOM     12  C   UNL     1      -0.823  10.707  18.207  0.00  0.00    +0.000 A 
BRANCH   7  14
ATOM     13  C   UNL     1      -3.656  11.722  18.325  0.00  0.00    +0.000 C 
ATOM     14  N   UNL     1      -2.568  12.065  19.243  0.00  0.00    +0.000 N 
ATOM     15  C   UNL     1      -2.881  13.046  20.283  0.00  0.00    +0.000 C 
ENDBRANCH   7  14
ENDBRANCH   6  10
ENDBRANCH   5   6
ENDBRANCH   4   5
ENDBRANCH   3   4
ENDBRANCH   2   3
ENDBRANCH   1   2
BRANCH   1  16
ATOM     16  C   UNL     1       1.049   3.589  20.174  0.00  0.00    +0.000 C 
BRANCH  16  17
ATOM     17  C   UNL     1       1.441   2.205  19.614  0.00  0.00    +0.000 C 
BRANCH  17  18
ATOM     18  C   UNL     1       2.955   1.987  19.483  0.00  0.00    +0.000 C 
BRANCH  18  19
ATOM     19  C   UNL     1       3.482   1.902  18.036  0.00  0.00    +0.000 C 
BRANCH  19  20
ATOM     20  C   UNL     1       3.583   3.201  17.217  0.00  0.00    +0.000 C 
BRANCH  20  21
ATOM     21  C   UNL     1       4.868   3.373  16.396  0.00  0.00    +0.000 C 
BRANCH  21  22
ATOM     22  N   UNL     1       5.404   4.726  16.450  0.00  0.00    +0.000 N 
ATOM     23  C   UNL     1       5.172   5.640  15.456  0.00  0.00    +0.000 A 
ATOM     24  N   UNL     1       5.705   6.807  15.715  0.00  0.00    +0.000 NA
ATOM     25  C   UNL     1       6.425   6.614  16.865  0.00  0.00    +0.000 A 
ATOM     26  C   UNL     1       7.303   7.508  17.496  0.00  0.00    +0.000 A 
ATOM     27  C   UNL     1       8.031   7.069  18.602  0.00  0.00    +0.000 A 
ATOM     28  C   UNL     1       7.808   5.795  19.130  0.00  0.00    +0.000 A 
ATOM     29  C   UNL     1       6.880   4.906  18.554  0.00  0.00    +0.000 A 
ATOM     30  C   UNL     1       6.236   5.322  17.376  0.00  0.00    +0.000 A 
ENDBRANCH  21  22
ENDBRANCH  20  21
ENDBRANCH  19  20
ENDBRANCH  18  19
ENDBRANCH  17  18
ENDBRANCH  16  17
ENDBRANCH   1  16
TORSDOF 14
ENDMDL
MODEL 7
REMARK VINA RESULT:      -6.4      2.358      9.029
REMARK  Name = 
REMARK  16 active torsions:
REMARK  status: ('A' for Active; 'I' for Inactive)
REMARK    1  A    between atoms: C_1  and  N_2
REMARK    2  A    between atoms: N_2  and  C_3
REMARK    3  A    between atoms: N_2  and  C_4
REMARK    4  A    between atoms: N_7  and  C_8
REMARK    5  A    between atoms: C_8  and  C_9
REMARK    6  A    between atoms: C_9  and  C_10
REMARK    7  A    between atoms: C_10  and  C_11
REMARK    8  A    between atoms: C_11  and  C_12
REMARK    9  A    between atoms: C_12  and  C_13
REMARK   10  A    between atoms: C_13  and  C_14
REMARK   11  A    between atoms: C_14  and  C_15
REMARK   12  A    between atoms: C_15  and  C_16
REMARK   13  A    between atoms: C_16  and  C_17
REMARK   14  A    between atoms: C_17  and  C_18
REMARK   15  A    between atoms: C_18  and  C_19
REMARK   16  A    between atoms: C_19  and  N_20
REMARK                            x       y       z     vdW  Elec       q    Type
REMARK                         _______ _______ _______ _____ _____    ______ ____
ROOT
ATOM      1  C   UNL     1       2.375   4.985  20.738  0.00  0.00    +0.000 C 
ENDROOT
BRANCH   1   2
ATOM      2  C   UNL     1       2.394   6.448  20.295  0.00  0.00    +0.000 C 
BRANCH   2   3
ATOM      3  C   UNL     1       2.182   6.641  18.784  0.00  0.00    +0.000 C 
BRANCH   3   4
ATOM      4  C   UNL     1       3.025   7.773  18.190  0.00  0.00    +0.000 C 
BRANCH   4   5
ATOM      5  C   UNL     1       2.148   8.915  17.666  0.00  0.00    +0.000 C 
BRANCH   5   6
ATOM      6  C   UNL     1       1.147   9.370  18.729  0.00  0.00    +0.000 C 
BRANCH   6  10
ATOM      7  C   UNL     1       1.074  13.656  18.915  0.00  0.00    +0.000 A 
ATOM      8  C   UNL     1       0.071  12.870  19.490  0.00  0.00    +0.000 A 
ATOM      9  C   UNL     1       0.110  11.477  19.417  0.00  0.00    +0.000 A 
ATOM     10  N   UNL     1       1.136  10.848  18.806  0.00  0.00    +0.000 N 
ATOM     11  C   UNL     1       2.128  11.567  18.237  0.00  0.00    +0.000 A 
ATOM     12  C   UNL     1       2.106  12.961  18.278  0.00  0.00    +0.000 A 
BRANCH   7  14
ATOM     13  C   UNL     1       2.267  15.809  18.808  0.00  0.00    +0.000 C 
ATOM     14  N   UNL     1       1.033  15.040  18.978  0.00  0.00    +0.000 N 
ATOM     15  C   UNL     1      -0.220  15.779  18.825  0.00  0.00    +0.000 C 
ENDBRANCH   7  14
ENDBRANCH   6  10
ENDBRANCH   5   6
ENDBRANCH   4   5
ENDBRANCH   3   4
ENDBRANCH   2   3
ENDBRANCH   1   2
BRANCH   1  16
ATOM     16  C   UNL     1       0.984   4.343  20.670  0.00  0.00    +0.000 C 
BRANCH  16  17
ATOM     17  C   UNL     1       0.842   3.097  19.770  0.00  0.00    +0.000 C 
BRANCH  17  18
ATOM     18  C   UNL     1       2.073   2.809  18.900  0.00  0.00    +0.000 C 
BRANCH  18  19
ATOM     19  C   UNL     1       2.047   3.449  17.496  0.00  0.00    +0.000 C 
BRANCH  19  20
ATOM     20  C   UNL     1       3.281   3.279  16.592  0.00  0.00    +0.000 C 
BRANCH  20  21
ATOM     21  C   UNL     1       4.641   3.455  17.281  0.00  0.00    +0.000 C 
BRANCH  21  22
ATOM     22  N   UNL     1       5.235   4.763  17.049  0.00  0.00    +0.000 N 
ATOM     23  C   UNL     1       4.931   5.514  15.944  0.00  0.00    +0.000 A 
ATOM     24  N   UNL     1       5.537   6.674  15.944  0.00  0.00    +0.000 NA
ATOM     25  C   UNL     1       6.373   6.630  17.029  0.00  0.00    +0.000 A 
ATOM     26  C   UNL     1       7.352   7.562  17.405  0.00  0.00    +0.000 A 
ATOM     27  C   UNL     1       8.181   7.268  18.488  0.00  0.00    +0.000 A 
ATOM     28  C   UNL     1       7.966   6.113  19.244  0.00  0.00    +0.000 A 
ATOM     29  C   UNL     1       6.944   5.199  18.927  0.00  0.00    +0.000 A 
ATOM     30  C   UNL     1       6.189   5.453  17.769  0.00  0.00    +0.000 A 
ENDBRANCH  21  22
ENDBRANCH  20  21
ENDBRANCH  19  20
ENDBRANCH  18  19
ENDBRANCH  17  18
ENDBRANCH  16  17
ENDBRANCH   1  16
TORSDOF 14
ENDMDL
MODEL 8
REMARK VINA RESULT:      -6.4      2.635      3.991
REMARK  Name = 
REMARK  16 active torsions:
REMARK  status: ('A' for Active; 'I' for Inactive)
REMARK    1  A    between atoms: C_1  and  N_2
REMARK    2  A    between atoms: N_2  and  C_3
REMARK    3  A    between atoms: N_2  and  C_4
REMARK    4  A    between atoms: N_7  and  C_8
REMARK    5  A    between atoms: C_8  and  C_9
REMARK    6  A    between atoms: C_9  and  C_10
REMARK    7  A    between atoms: C_10  and  C_11
REMARK    8  A    between atoms: C_11  and  C_12
REMARK    9  A    between atoms: C_12  and  C_13
REMARK   10  A    between atoms: C_13  and  C_14
REMARK   11  A    between atoms: C_14  and  C_15
REMARK   12  A    between atoms: C_15  and  C_16
REMARK   13  A    between atoms: C_16  and  C_17
REMARK   14  A    between atoms: C_17  and  C_18
REMARK   15  A    between atoms: C_18  and  C_19
REMARK   16  A    between atoms: C_19  and  N_20
REMARK                            x       y       z     vdW  Elec       q    Type
REMARK                         _______ _______ _______ _____ _____    ______ ____
ROOT
ATOM      1  C   UNL     1       1.230   3.690  20.267  0.00  0.00    +0.000 C 
ENDROOT
BRANCH   1   2
ATOM      2  C   UNL     1       2.070   2.791  21.176  0.00  0.00    +0.000 C 
BRANCH   2   3
ATOM      3  C   UNL     1       3.116   1.951  20.423  0.00  0.00    +0.000 C 
BRANCH   3   4
ATOM      4  C   UNL     1       4.412   2.711  20.132  0.00  0.00    +0.000 C 
BRANCH   4   5
ATOM      5  C   UNL     1       4.359   3.417  18.772  0.00  0.00    +0.000 C 
BRANCH   5   6
ATOM      6  C   UNL     1       5.547   4.365  18.601  0.00  0.00    +0.000 C 
BRANCH   6  10
ATOM      7  C   UNL     1       6.774   4.463  14.490  0.00  0.00    +0.000 A 
ATOM      8  C   UNL     1       7.542   5.034  15.509  0.00  0.00    +0.000 A 
ATOM      9  C   UNL     1       7.126   4.994  16.840  0.00  0.00    +0.000 A 
ATOM     10  N   UNL     1       5.975   4.380  17.183  0.00  0.00    +0.000 N 
ATOM     11  C   UNL     1       5.200   3.814  16.232  0.00  0.00    +0.000 A 
ATOM     12  C   UNL     1       5.581   3.854  14.892  0.00  0.00    +0.000 A 
BRANCH   7  14
ATOM     13  C   UNL     1       6.464   3.722  12.161  0.00  0.00    +0.000 C 
ATOM     14  N   UNL     1       7.181   4.508  13.166  0.00  0.00    +0.000 N 
ATOM     15  C   UNL     1       8.036   5.583  12.661  0.00  0.00    +0.000 C 
ENDBRANCH   7  14
ENDBRANCH   6  10
ENDBRANCH   5   6
ENDBRANCH   4   5
ENDBRANCH   3   4
ENDBRANCH   2   3
ENDBRANCH   1   2
BRANCH   1  16
ATOM     16  C   UNL     1       1.219   5.160  20.702  0.00  0.00    +0.000 C 
BRANCH  16  17
ATOM     17  C   UNL     1       2.276   6.079  20.052  0.00  0.00    +0.000 C 
BRANCH  17  18
ATOM     18  C   UNL     1       2.162   6.184  18.525  0.00  0.00    +0.000 C 
BRANCH  18  19
ATOM     19  C   UNL     1       3.110   7.207  17.866  0.00  0.00    +0.000 C 
BRANCH  19  20
ATOM     20  C   UNL     1       2.792   8.705  18.021  0.00  0.00    +0.000 C 
BRANCH  20  21
ATOM     21  C   UNL     1       1.305   9.078  17.970  0.00  0.00    +0.000 C 
BRANCH  21  22
ATOM     22  N   UNL     1       0.926  10.054  18.982  0.00  0.00    +0.000 N 
ATOM     23  C   UNL     1       1.177  11.393  18.832  0.00  0.00    +0.000 A 
ATOM     24  N   UNL     1       0.720  12.103  19.831  0.00  0.00    +0.000 NA
ATOM     25  C   UNL     1       0.266  11.179  20.737  0.00  0.00    +0.000 A 
ATOM     26  C   UNL     1      -0.192  11.402  22.044  0.00  0.00    +0.000 A 
ATOM     27  C   UNL     1      -0.501  10.303  22.846  0.00  0.00    +0.000 A 
ATOM     28  C   UNL     1      -0.453   9.011  22.316  0.00  0.00    +0.000 A 
ATOM     29  C   UNL     1      -0.064   8.770  20.985  0.00  0.00    +0.000 A 
ATOM     30  C   UNL     1       0.351   9.877  20.225  0.00  0.00    +0.000 A 
ENDBRANCH  21  22
ENDBRANCH  20  21
ENDBRANCH  19  20
ENDBRANCH  18  19
ENDBRANCH  17  18
ENDBRANCH  16  17
ENDBRANCH   1  16
TORSDOF 14
ENDMDL
MODEL 9
REMARK VINA RESULT:      -6.3      2.531      9.215
REMARK  Name = 
REMARK  16 active torsions:
REMARK  status: ('A' for Active; 'I' for Inactive)
REMARK    1  A    between atoms: C_1  and  N_2
REMARK    2  A    between atoms: N_2  and  C_3
REMARK    3  A    between atoms: N_2  and  C_4
REMARK    4  A    between atoms: N_7  and  C_8
REMARK    5  A    between atoms: C_8  and  C_9
REMARK    6  A    between atoms: C_9  and  C_10
REMARK    7  A    between atoms: C_10  and  C_11
REMARK    8  A    between atoms: C_11  and  C_12
REMARK    9  A    between atoms: C_12  and  C_13
REMARK   10  A    between atoms: C_13  and  C_14
REMARK   11  A    between atoms: C_14  and  C_15
REMARK   12  A    between atoms: C_15  and  C_16
REMARK   13  A    between atoms: C_16  and  C_17
REMARK   14  A    between atoms: C_17  and  C_18
REMARK   15  A    between atoms: C_18  and  C_19
REMARK   16  A    between atoms: C_19  and  N_20
REMARK                            x       y       z     vdW  Elec       q    Type
REMARK                         _______ _______ _______ _____ _____    ______ ____
ROOT
ATOM      1  C   UNL     1       2.387   6.670  19.898  0.00  0.00    +0.000 C 
ENDROOT
BRANCH   1   2
ATOM      2  C   UNL     1       1.647   7.762  20.672  0.00  0.00    +0.000 C 
BRANCH   2   3
ATOM      3  C   UNL     1       1.126   8.905  19.786  0.00  0.00    +0.000 C 
BRANCH   3   4
ATOM      4  C   UNL     1      -0.048   9.669  20.404  0.00  0.00    +0.000 C 
BRANCH   4   5
ATOM      5  C   UNL     1       0.427  10.891  21.196  0.00  0.00    +0.000 C 
BRANCH   5   6
ATOM      6  C   UNL     1      -0.219  12.172  20.667  0.00  0.00    +0.000 C 
BRANCH   6  10
ATOM      7  C   UNL     1       2.652  14.522  18.512  0.00  0.00    +0.000 A 
ATOM      8  C   UNL     1       1.991  15.010  19.643  0.00  0.00    +0.000 A 
ATOM      9  C   UNL     1       1.059  14.232  20.330  0.00  0.00    +0.000 A 
ATOM     10  N   UNL     1       0.786  12.972  19.931  0.00  0.00    +0.000 N 
ATOM     11  C   UNL     1       1.401  12.459  18.843  0.00  0.00    +0.000 A 
ATOM     12  C   UNL     1       2.323  13.219  18.126  0.00  0.00    +0.000 A 
BRANCH   7  14
ATOM     13  C   UNL     1       3.201  16.642  17.381  0.00  0.00    +0.000 C 
ATOM     14  N   UNL     1       3.572  15.296  17.823  0.00  0.00    +0.000 N 
ATOM     15  C   UNL     1       5.004  14.994  17.848  0.00  0.00    +0.000 C 
ENDBRANCH   7  14
ENDBRANCH   6  10
ENDBRANCH   5   6
ENDBRANCH   4   5
ENDBRANCH   3   4
ENDBRANCH   2   3
ENDBRANCH   1   2
BRANCH   1  16
ATOM     16  C   UNL     1       2.328   5.294  20.574  0.00  0.00    +0.000 C 
BRANCH  16  17
ATOM     17  C   UNL     1       0.956   4.587  20.580  0.00  0.00    +0.000 C 
BRANCH  17  18
ATOM     18  C   UNL     1       1.034   3.065  20.394  0.00  0.00    +0.000 C 
BRANCH  18  19
ATOM     19  C   UNL     1       0.922   2.578  18.934  0.00  0.00    +0.000 C 
BRANCH  19  20
ATOM     20  C   UNL     1       1.526   3.454  17.822  0.00  0.00    +0.000 C 
BRANCH  20  21
ATOM     21  C   UNL     1       2.849   2.954  17.226  0.00  0.00    +0.000 C 
BRANCH  21  22
ATOM     22  N   UNL     1       4.020   3.545  17.857  0.00  0.00    +0.000 N 
ATOM     23  C   UNL     1       4.498   3.102  19.062  0.00  0.00    +0.000 A 
ATOM     24  N   UNL     1       5.581   3.735  19.434  0.00  0.00    +0.000 NA
ATOM     25  C   UNL     1       5.747   4.723  18.499  0.00  0.00    +0.000 A 
ATOM     26  C   UNL     1       6.676   5.774  18.506  0.00  0.00    +0.000 A 
ATOM     27  C   UNL     1       6.599   6.747  17.509  0.00  0.00    +0.000 A 
ATOM     28  C   UNL     1       5.680   6.613  16.465  0.00  0.00    +0.000 A 
ATOM     29  C   UNL     1       4.785   5.528  16.400  0.00  0.00    +0.000 A 
ATOM     30  C   UNL     1       4.800   4.617  17.470  0.00  0.00    +0.000 A 
ENDBRANCH  21  22
ENDBRANCH  20  21
ENDBRANCH  19  20
ENDBRANCH  18  19
ENDBRANCH  17  18
ENDBRANCH  16  17
ENDBRANCH   1  16
TORSDOF 14
ENDMDL
