MODEL 1
REMARK VINA RESULT:      -6.6      0.000      0.000
REMARK  Name = 
REMARK  7 active torsions:
REMARK  status: ('A' for Active; 'I' for Inactive)
REMARK    1  A    between atoms: C_1  and  C_2
REMARK    2  A    between atoms: C_2  and  N_3
REMARK    3  A    between atoms: N_10  and  C_11
REMARK    4  A    between atoms: C_11  and  C_12
REMARK    5  A    between atoms: N_15  and  C_16
REMARK    6  A    between atoms: N_23  and  C_24
REMARK    7  A    between atoms: N_23  and  C_25
REMARK                            x       y       z     vdW  Elec       q    Type
REMARK                         _______ _______ _______ _____ _____    ______ ____
ROOT
ATOM      1  N   UNL     1       2.507   3.022  19.537  0.00  0.00    +0.000 N 
ATOM      2  C   UNL     1       3.375   4.043  20.068  0.00  0.00    +0.000 C 
ATOM      3  C   UNL     1       3.371   5.211  19.041  0.00  0.00    +0.000 C 
ATOM      4  C   UNL     1       2.223   4.847  18.079  0.00  0.00    +0.000 C 
ATOM      5  C   UNL     1       1.846   3.427  18.392  0.00  0.00    +0.000 C 
ATOM      6  O   UNL     1       1.018   2.781  17.764  0.00  0.00    +0.000 OA
ATOM      7  C   UNL     1       4.742   5.231  18.315  0.00  0.00    +0.000 C 
ATOM      8  N   UNL     1       4.852   6.148  17.164  0.00  0.00    +0.000 NA
ATOM      9  C   UNL     1       4.682   7.551  17.566  0.00  0.00    +0.000 C 
ATOM     10  C   UNL     1       3.226   7.980  17.772  0.00  0.00    +0.000 C 
ATOM     11  N   UNL     1       2.588   7.675  19.041  0.00  0.00    +0.000 N 
ATOM     12  C   UNL     1       1.551   8.399  19.639  0.00  0.00    +0.000 C 
ATOM     13  O   UNL     1       1.178   8.077  20.769  0.00  0.00    +0.000 OA
ATOM     14  N   UNL     1       0.932   9.473  19.009  0.00  0.00    +0.000 N 
ATOM     15  C   UNL     1       1.207  10.121  17.730  0.00  0.00    +0.000 C 
ATOM     16  C   UNL     1      -0.048  10.211  19.800  0.00  0.00    +0.000 C 
ATOM     17  C   UNL     1       3.112   6.530  19.807  0.00  0.00    +0.000 C 
ENDROOT
BRANCH   1  19
ATOM     18  C   UNL     1       1.344   2.507  21.685  0.00  0.00    +0.000 C 
ATOM     19  C   UNL     1       1.926   1.989  20.383  0.00  0.00    +0.000 C 
ENDBRANCH   1  19
BRANCH   8  20
ATOM     20  C   UNL     1       6.152   6.023  16.467  0.00  0.00    +0.000 C 
BRANCH  20  21
ATOM     21  C   UNL     1       6.049   5.130  15.285  0.00  0.00    +0.000 A 
ATOM     22  C   UNL     1       4.887   4.491  14.802  0.00  0.00    +0.000 A 
ATOM     23  N   UNL     1       5.095   3.843  13.654  0.00  0.00    +0.000 NA
ATOM     24  N   UNL     1       6.398   4.073  13.398  0.00  0.00    +0.000 N 
ATOM     25  C   UNL     1       6.954   3.719  12.115  0.00  0.00    +0.000 C 
ATOM     26  C   UNL     1       7.032   4.758  14.391  0.00  0.00    +0.000 A 
ENDBRANCH  20  21
ENDBRANCH   8  20
TORSDOF 3
ENDMDL
MODEL 2
REMARK VINA RESULT:      -6.3      4.378      8.242
REMARK  Name = 
REMARK  7 active torsions:
REMARK  status: ('A' for Active; 'I' for Inactive)
REMARK    1  A    between atoms: C_1  and  C_2
REMARK    2  A    between atoms: C_2  and  N_3
REMARK    3  A    between atoms: N_10  and  C_11
REMARK    4  A    between atoms: C_11  and  C_12
REMARK    5  A    between atoms: N_15  and  C_16
REMARK    6  A    between atoms: N_23  and  C_24
REMARK    7  A    between atoms: N_23  and  C_25
REMARK                            x       y       z     vdW  Elec       q    Type
REMARK                         _______ _______ _______ _____ _____    ______ ____
ROOT
ATOM      1  N   UNL     1      -3.570  11.544  17.972  0.00  0.00    +0.000 N 
ATOM      2  C   UNL     1      -3.174  12.044  19.265  0.00  0.00    +0.000 C 
ATOM      3  C   UNL     1      -1.620  12.108  19.262  0.00  0.00    +0.000 C 
ATOM      4  C   UNL     1      -1.248  11.876  17.785  0.00  0.00    +0.000 C 
ATOM      5  C   UNL     1      -2.503  11.411  17.102  0.00  0.00    +0.000 C 
ATOM      6  O   UNL     1      -2.559  11.056  15.933  0.00  0.00    +0.000 OA
ATOM      7  C   UNL     1      -1.081  10.974  20.174  0.00  0.00    +0.000 C 
ATOM      8  N   UNL     1       0.378  10.754  20.138  0.00  0.00    +0.000 NA
ATOM      9  C   UNL     1       1.120  11.929  20.615  0.00  0.00    +0.000 C 
ATOM     10  C   UNL     1       1.261  13.052  19.583  0.00  0.00    +0.000 C 
ATOM     11  N   UNL     1       0.156  13.980  19.415  0.00  0.00    +0.000 N 
ATOM     12  C   UNL     1       0.252  15.311  18.992  0.00  0.00    +0.000 C 
ATOM     13  O   UNL     1      -0.765  16.008  18.994  0.00  0.00    +0.000 OA
ATOM     14  N   UNL     1       1.453  15.876  18.580  0.00  0.00    +0.000 N 
ATOM     15  C   UNL     1       2.807  15.332  18.547  0.00  0.00    +0.000 C 
ATOM     16  C   UNL     1       1.428  17.306  18.285  0.00  0.00    +0.000 C 
ATOM     17  C   UNL     1      -1.191  13.504  19.774  0.00  0.00    +0.000 C 
ENDROOT
BRANCH   1  19
ATOM     18  C   UNL     1      -6.002  11.052  18.246  0.00  0.00    +0.000 C 
ATOM     19  C   UNL     1      -4.913  11.744  17.448  0.00  0.00    +0.000 C 
ENDBRANCH   1  19
BRANCH   8  20
ATOM     20  C   UNL     1       0.792   9.587  20.950  0.00  0.00    +0.000 C 
BRANCH  20  21
ATOM     21  C   UNL     1       1.450   8.551  20.114  0.00  0.00    +0.000 A 
ATOM     22  C   UNL     1       1.831   8.668  18.760  0.00  0.00    +0.000 A 
ATOM     23  N   UNL     1       2.503   7.602  18.320  0.00  0.00    +0.000 NA
ATOM     24  N   UNL     1       2.557   6.800  19.402  0.00  0.00    +0.000 N 
ATOM     25  C   UNL     1       3.406   5.633  19.393  0.00  0.00    +0.000 C 
ATOM     26  C   UNL     1       1.862   7.283  20.470  0.00  0.00    +0.000 A 
ENDBRANCH  20  21
ENDBRANCH   8  20
TORSDOF 3
ENDMDL
MODEL 3
REMARK VINA RESULT:      -6.0      4.367     10.376
REMARK  Name = 
REMARK  7 active torsions:
REMARK  status: ('A' for Active; 'I' for Inactive)
REMARK    1  A    between atoms: C_1  and  C_2
REMARK    2  A    between atoms: C_2  and  N_3
REMARK    3  A    between atoms: N_10  and  C_11
REMARK    4  A    between atoms: C_11  and  C_12
REMARK    5  A    between atoms: N_15  and  C_16
REMARK    6  A    between atoms: N_23  and  C_24
REMARK    7  A    between atoms: N_23  and  C_25
REMARK                            x       y       z     vdW  Elec       q    Type
REMARK                         _______ _______ _______ _____ _____    ______ ____
ROOT
ATOM      1  N   UNL     1      -2.933  11.200  16.850  0.00  0.00    +0.000 N 
ATOM      2  C   UNL     1      -1.671  11.822  17.162  0.00  0.00    +0.000 C 
ATOM      3  C   UNL     1      -1.207  11.232  18.524  0.00  0.00    +0.000 C 
ATOM      4  C   UNL     1      -2.173  10.055  18.760  0.00  0.00    +0.000 C 
ATOM      5  C   UNL     1      -3.271  10.201  17.745  0.00  0.00    +0.000 C 
ATOM      6  O   UNL     1      -4.258   9.481  17.692  0.00  0.00    +0.000 OA
ATOM      7  C   UNL     1      -1.363  12.328  19.612  0.00  0.00    +0.000 C 
ATOM      8  N   UNL     1      -1.158  11.889  21.006  0.00  0.00    +0.000 NA
ATOM      9  C   UNL     1       0.212  11.407  21.231  0.00  0.00    +0.000 C 
ATOM     10  C   UNL     1       0.470   9.979  20.741  0.00  0.00    +0.000 C 
ATOM     11  N   UNL     1       0.768   9.773  19.334  0.00  0.00    +0.000 N 
ATOM     12  C   UNL     1       1.537   8.736  18.796  0.00  0.00    +0.000 C 
ATOM     13  O   UNL     1       1.788   8.749  17.589  0.00  0.00    +0.000 OA
ATOM     14  N   UNL     1       2.035   7.697  19.574  0.00  0.00    +0.000 N 
ATOM     15  C   UNL     1       1.971   7.462  21.013  0.00  0.00    +0.000 C 
ATOM     16  C   UNL     1       2.924   6.753  18.902  0.00  0.00    +0.000 C 
ATOM     17  C   UNL     1       0.265  10.777  18.380  0.00  0.00    +0.000 C 
ENDROOT
BRANCH   1  19
ATOM     18  C   UNL     1      -2.874  10.067  14.626  0.00  0.00    +0.000 C 
ATOM     19  C   UNL     1      -3.460  11.166  15.493  0.00  0.00    +0.000 C 
ENDBRANCH   1  19
BRANCH   8  20
ATOM     20  C   UNL     1      -1.432  12.968  21.982  0.00  0.00    +0.000 C 
BRANCH  20  21
ATOM     21  C   UNL     1      -2.771  12.808  22.604  0.00  0.00    +0.000 A 
ATOM     22  C   UNL     1      -3.087  12.067  23.763  0.00  0.00    +0.000 A 
ATOM     23  N   UNL     1      -4.361  12.209  24.134  0.00  0.00    +0.000 NA
ATOM     24  N   UNL     1      -4.862  13.051  23.210  0.00  0.00    +0.000 N 
ATOM     25  C   UNL     1      -6.170  13.631  23.397  0.00  0.00    +0.000 C 
ATOM     26  C   UNL     1      -3.976  13.363  22.223  0.00  0.00    +0.000 A 
ENDBRANCH  20  21
ENDBRANCH   8  20
TORSDOF 3
ENDMDL
MODEL 4
REMARK VINA RESULT:      -6.0      2.077      2.809
REMARK  Name = 
REMARK  7 active torsions:
REMARK  status: ('A' for Active; 'I' for Inactive)
REMARK    1  A    between atoms: C_1  and  C_2
REMARK    2  A    between atoms: C_2  and  N_3
REMARK    3  A    between atoms: N_10  and  C_11
REMARK    4  A    between atoms: C_11  and  C_12
REMARK    5  A    between atoms: N_15  and  C_16
REMARK    6  A    between atoms: N_23  and  C_24
REMARK    7  A    between atoms: N_23  and  C_25
REMARK                            x       y       z     vdW  Elec       q    Type
REMARK                         _______ _______ _______ _____ _____    ______ ____
ROOT
ATOM      1  N   UNL     1       2.070   3.372  19.618  0.00  0.00    +0.000 N 
ATOM      2  C   UNL     1       2.921   4.421  20.121  0.00  0.00    +0.000 C 
ATOM      3  C   UNL     1       2.785   5.617  19.137  0.00  0.00    +0.000 C 
ATOM      4  C   UNL     1       1.591   5.223  18.246  0.00  0.00    +0.000 C 
ATOM      5  C   UNL     1       1.309   3.776  18.536  0.00  0.00    +0.000 C 
ATOM      6  O   UNL     1       0.472   3.107  17.946  0.00  0.00    +0.000 OA
ATOM      7  C   UNL     1       4.098   5.731  18.318  0.00  0.00    +0.000 C 
ATOM      8  N   UNL     1       4.079   6.687  17.194  0.00  0.00    +0.000 NA
ATOM      9  C   UNL     1       3.868   8.067  17.653  0.00  0.00    +0.000 C 
ATOM     10  C   UNL     1       2.411   8.412  17.975  0.00  0.00    +0.000 C 
ATOM     11  N   UNL     1       1.882   8.036  19.275  0.00  0.00    +0.000 N 
ATOM     12  C   UNL     1       0.854   8.686  19.968  0.00  0.00    +0.000 C 
ATOM     13  O   UNL     1       0.580   8.312  21.110  0.00  0.00    +0.000 OA
ATOM     14  N   UNL     1       0.139   9.745  19.419  0.00  0.00    +0.000 N 
ATOM     15  C   UNL     1       0.289  10.444  18.147  0.00  0.00    +0.000 C 
ATOM     16  C   UNL     1      -0.817  10.407  20.301  0.00  0.00    +0.000 C 
ATOM     17  C   UNL     1       2.516   6.898  19.963  0.00  0.00    +0.000 C 
ENDROOT
BRANCH   1  19
ATOM     18  C   UNL     1       1.464   2.657  21.932  0.00  0.00    +0.000 C 
ATOM     19  C   UNL     1       1.604   2.286  20.467  0.00  0.00    +0.000 C 
ENDBRANCH   1  19
BRANCH   8  20
ATOM     20  C   UNL     1       5.331   6.652  16.404  0.00  0.00    +0.000 C 
BRANCH  20  21
ATOM     21  C   UNL     1       6.525   6.595  17.285  0.00  0.00    +0.000 A 
ATOM     22  C   UNL     1       7.426   7.645  17.563  0.00  0.00    +0.000 A 
ATOM     23  N   UNL     1       8.336   7.313  18.482  0.00  0.00    +0.000 NA
ATOM     24  N   UNL     1       8.011   6.044  18.797  0.00  0.00    +0.000 N 
ATOM     25  C   UNL     1       8.630   5.402  19.931  0.00  0.00    +0.000 C 
ATOM     26  C   UNL     1       6.995   5.541  18.041  0.00  0.00    +0.000 A 
ENDBRANCH  20  21
ENDBRANCH   8  20
TORSDOF 3
ENDMDL
MODEL 5
REMARK VINA RESULT:      -5.9      2.034      3.044
REMARK  Name = 
REMARK  7 active torsions:
REMARK  status: ('A' for Active; 'I' for Inactive)
REMARK    1  A    between atoms: C_1  and  C_2
REMARK    2  A    between atoms: C_2  and  N_3
REMARK    3  A    between atoms: N_10  and  C_11
REMARK    4  A    between atoms: C_11  and  C_12
REMARK    5  A    between atoms: N_15  and  C_16
REMARK    6  A    between atoms: N_23  and  C_24
REMARK    7  A    between atoms: N_23  and  C_25
REMARK                            x       y       z     vdW  Elec       q    Type
REMARK                         _______ _______ _______ _____ _____    ______ ____
ROOT
ATOM      1  N   UNL     1       2.231   3.265  19.582  0.00  0.00    +0.000 N 
ATOM      2  C   UNL     1       3.051   4.312  20.138  0.00  0.00    +0.000 C 
ATOM      3  C   UNL     1       2.953   5.521  19.165  0.00  0.00    +0.000 C 
ATOM      4  C   UNL     1       1.804   5.132  18.214  0.00  0.00    +0.000 C 
ATOM      5  C   UNL     1       1.519   3.679  18.471  0.00  0.00    +0.000 C 
ATOM      6  O   UNL     1       0.715   3.013  17.834  0.00  0.00    +0.000 OA
ATOM      7  C   UNL     1       4.302   5.654  18.410  0.00  0.00    +0.000 C 
ATOM      8  N   UNL     1       4.328   6.626  17.299  0.00  0.00    +0.000 NA
ATOM      9  C   UNL     1       4.086   7.997  17.767  0.00  0.00    +0.000 C 
ATOM     10  C   UNL     1       2.613   8.329  18.026  0.00  0.00    +0.000 C 
ATOM     11  N   UNL     1       2.027   7.932  19.294  0.00  0.00    +0.000 N 
ATOM     12  C   UNL     1       0.964   8.565  19.947  0.00  0.00    +0.000 C 
ATOM     13  O   UNL     1       0.640   8.173  21.070  0.00  0.00    +0.000 OA
ATOM     14  N   UNL     1       0.268   9.627  19.380  0.00  0.00    +0.000 N 
ATOM     15  C   UNL     1       0.472  10.346  18.126  0.00  0.00    +0.000 C 
ATOM     16  C   UNL     1      -0.733  10.270  20.226  0.00  0.00    +0.000 C 
ATOM     17  C   UNL     1       2.636   6.788  19.995  0.00  0.00    +0.000 C 
ENDROOT
BRANCH   1  19
ATOM     18  C   UNL     1       1.446   2.535  21.836  0.00  0.00    +0.000 C 
ATOM     19  C   UNL     1       1.734   2.163  20.393  0.00  0.00    +0.000 C 
ENDBRANCH   1  19
BRANCH   8  20
ATOM     20  C   UNL     1       5.615   6.609  16.568  0.00  0.00    +0.000 C 
BRANCH  20  21
ATOM     21  C   UNL     1       6.689   7.277  17.347  0.00  0.00    +0.000 A 
ATOM     22  C   UNL     1       7.645   6.657  18.180  0.00  0.00    +0.000 A 
ATOM     23  N   UNL     1       8.549   7.516  18.656  0.00  0.00    +0.000 NA
ATOM     24  N   UNL     1       8.171   8.694  18.119  0.00  0.00    +0.000 N 
ATOM     25  C   UNL     1       9.039   9.842  18.218  0.00  0.00    +0.000 C 
ATOM     26  C   UNL     1       7.012   8.617  17.405  0.00  0.00    +0.000 A 
ENDBRANCH  20  21
ENDBRANCH   8  20
TORSDOF 3
ENDMDL
MODEL 6
REMARK VINA RESULT:      -5.8      8.015      9.682
REMARK  Name = 
REMARK  7 active torsions:
REMARK  status: ('A' for Active; 'I' for Inactive)
REMARK    1  A    between atoms: C_1  and  C_2
REMARK    2  A    between atoms: C_2  and  N_3
REMARK    3  A    between atoms: N_10  and  C_11
REMARK    4  A    between atoms: C_11  and  C_12
REMARK    5  A    between atoms: N_15  and  C_16
REMARK    6  A    between atoms: N_23  and  C_24
REMARK    7  A    between atoms: N_23  and  C_25
REMARK                            x       y       z     vdW  Elec       q    Type
REMARK                         _______ _______ _______ _____ _____    ______ ____
ROOT
ATOM      1  N   UNL     1      -3.007  12.885  22.960  0.00  0.00    +0.000 N 
ATOM      2  C   UNL     1      -1.776  12.138  22.895  0.00  0.00    +0.000 C 
ATOM      3  C   UNL     1      -1.147  12.434  21.504  0.00  0.00    +0.000 C 
ATOM      4  C   UNL     1      -1.990  13.605  20.963  0.00  0.00    +0.000 C 
ATOM      5  C   UNL     1      -3.183  13.718  21.870  0.00  0.00    +0.000 C 
ATOM      6  O   UNL     1      -4.111  14.495  21.692  0.00  0.00    +0.000 OA
ATOM      7  C   UNL     1      -1.292  11.167  20.620  0.00  0.00    +0.000 C 
ATOM      8  N   UNL     1      -0.929  11.326  19.198  0.00  0.00    +0.000 NA
ATOM      9  C   UNL     1       0.490  11.671  19.032  0.00  0.00    +0.000 C 
ATOM     10  C   UNL     1       0.816  13.147  19.282  0.00  0.00    +0.000 C 
ATOM     11  N   UNL     1       1.003  13.591  20.652  0.00  0.00    +0.000 N 
ATOM     12  C   UNL     1       1.801  14.661  21.072  0.00  0.00    +0.000 C 
ATOM     13  O   UNL     1       1.941  14.857  22.281  0.00  0.00    +0.000 OA
ATOM     14  N   UNL     1       2.448  15.504  20.176  0.00  0.00    +0.000 N 
ATOM     15  C   UNL     1       2.532  15.471  18.719  0.00  0.00    +0.000 C 
ATOM     16  C   UNL     1       3.346  16.499  20.756  0.00  0.00    +0.000 C 
ATOM     17  C   UNL     1       0.338  12.816  21.714  0.00  0.00    +0.000 C 
ENDROOT
BRANCH   1  19
ATOM     18  C   UNL     1      -4.802  12.284  24.588  0.00  0.00    +0.000 C 
ATOM     19  C   UNL     1      -3.649  13.203  24.227  0.00  0.00    +0.000 C 
ENDBRANCH   1  19
BRANCH   8  20
ATOM     20  C   UNL     1      -1.200  10.102  18.408  0.00  0.00    +0.000 C 
BRANCH  20  21
ATOM     21  C   UNL     1      -2.257  10.338  17.392  0.00  0.00    +0.000 A 
ATOM     22  C   UNL     1      -3.246  11.345  17.412  0.00  0.00    +0.000 A 
ATOM     23  N   UNL     1      -3.982  11.366  16.299  0.00  0.00    +0.000 NA
ATOM     24  N   UNL     1      -3.457  10.368  15.560  0.00  0.00    +0.000 N 
ATOM     25  C   UNL     1      -3.841  10.217  14.177  0.00  0.00    +0.000 C 
ATOM     26  C   UNL     1      -2.487   9.666  16.209  0.00  0.00    +0.000 A 
ENDBRANCH  20  21
ENDBRANCH   8  20
TORSDOF 3
ENDMDL
MODEL 7
REMARK VINA RESULT:      -5.8      4.933     10.139
REMARK  Name = 
REMARK  7 active torsions:
REMARK  status: ('A' for Active; 'I' for Inactive)
REMARK    1  A    between atoms: C_1  and  C_2
REMARK    2  A    between atoms: C_2  and  N_3
REMARK    3  A    between atoms: N_10  and  C_11
REMARK    4  A    between atoms: C_11  and  C_12
REMARK    5  A    between atoms: N_15  and  C_16
REMARK    6  A    between atoms: N_23  and  C_24
REMARK    7  A    between atoms: N_23  and  C_25
REMARK                            x       y       z     vdW  Elec       q    Type
REMARK                         _______ _______ _______ _____ _____    ______ ____
ROOT
ATOM      1  N   UNL     1       1.176   9.000  19.750  0.00  0.00    +0.000 N 
ATOM      2  C   UNL     1       0.884   9.998  18.752  0.00  0.00    +0.000 C 
ATOM      3  C   UNL     1       0.415  11.269  19.515  0.00  0.00    +0.000 C 
ATOM      4  C   UNL     1       0.753  10.958  20.986  0.00  0.00    +0.000 C 
ATOM      5  C   UNL     1       1.093   9.495  21.039  0.00  0.00    +0.000 C 
ATOM      6  O   UNL     1       1.336   8.883  22.070  0.00  0.00    +0.000 OA
ATOM      7  C   UNL     1      -1.113  11.435  19.300  0.00  0.00    +0.000 C 
ATOM      8  N   UNL     1      -1.770  12.477  20.113  0.00  0.00    +0.000 NA
ATOM      9  C   UNL     1      -1.257  13.818  19.801  0.00  0.00    +0.000 C 
ATOM     10  C   UNL     1       0.087  14.150  20.458  0.00  0.00    +0.000 C 
ATOM     11  N   UNL     1       1.304  13.678  19.821  0.00  0.00    +0.000 N 
ATOM     12  C   UNL     1       2.565  14.280  19.898  0.00  0.00    +0.000 C 
ATOM     13  O   UNL     1       3.485  13.819  19.220  0.00  0.00    +0.000 OA
ATOM     14  N   UNL     1       2.813  15.386  20.704  0.00  0.00    +0.000 N 
ATOM     15  C   UNL     1       1.920  16.183  21.539  0.00  0.00    +0.000 C 
ATOM     16  C   UNL     1       4.140  15.985  20.590  0.00  0.00    +0.000 C 
ATOM     17  C   UNL     1       1.203  12.483  18.965  0.00  0.00    +0.000 C 
ENDROOT
BRANCH   1  19
ATOM     18  C   UNL     1       2.509   7.777  18.030  0.00  0.00    +0.000 C 
ATOM     19  C   UNL     1       2.027   7.854  19.467  0.00  0.00    +0.000 C 
ENDBRANCH   1  19
BRANCH   8  20
ATOM     20  C   UNL     1      -3.239  12.493  19.926  0.00  0.00    +0.000 C 
BRANCH  20  21
ATOM     21  C   UNL     1      -3.948  12.629  21.224  0.00  0.00    +0.000 A 
ATOM     22  C   UNL     1      -5.344  12.648  21.432  0.00  0.00    +0.000 A 
ATOM     23  N   UNL     1      -5.672  12.670  22.726  0.00  0.00    +0.000 NA
ATOM     24  N   UNL     1      -4.477  12.659  23.350  0.00  0.00    +0.000 N 
ATOM     25  C   UNL     1      -4.411  12.449  24.776  0.00  0.00    +0.000 C 
ATOM     26  C   UNL     1      -3.419  12.729  22.495  0.00  0.00    +0.000 A 
ENDBRANCH  20  21
ENDBRANCH   8  20
TORSDOF 3
ENDMDL
MODEL 8
REMARK VINA RESULT:      -5.7      4.221      7.949
REMARK  Name = 
REMARK  7 active torsions:
REMARK  status: ('A' for Active; 'I' for Inactive)
REMARK    1  A    between atoms: C_1  and  C_2
REMARK    2  A    between atoms: C_2  and  N_3
REMARK    3  A    between atoms: N_10  and  C_11
REMARK    4  A    between atoms: C_11  and  C_12
REMARK    5  A    between atoms: N_15  and  C_16
REMARK    6  A    between atoms: N_23  and  C_24
REMARK    7  A    between atoms: N_23  and  C_25
REMARK                            x       y       z     vdW  Elec       q    Type
REMARK                         _______ _______ _______ _____ _____    ______ ____
ROOT
ATOM      1  N   UNL     1      -3.376  11.088  17.780  0.00  0.00    +0.000 N 
ATOM      2  C   UNL     1      -3.067  11.656  19.068  0.00  0.00    +0.000 C 
ATOM      3  C   UNL     1      -1.518  11.636  19.205  0.00  0.00    +0.000 C 
ATOM      4  C   UNL     1      -1.031  11.281  17.787  0.00  0.00    +0.000 C 
ATOM      5  C   UNL     1      -2.247  10.837  17.023  0.00  0.00    +0.000 C 
ATOM      6  O   UNL     1      -2.220  10.404  15.880  0.00  0.00    +0.000 OA
ATOM      7  C   UNL     1      -1.131  10.542  20.235  0.00  0.00    +0.000 C 
ATOM      8  N   UNL     1       0.310  10.241  20.348  0.00  0.00    +0.000 NA
ATOM      9  C   UNL     1       1.076  11.405  20.815  0.00  0.00    +0.000 C 
ATOM     10  C   UNL     1       1.375  12.443  19.729  0.00  0.00    +0.000 C 
ATOM     11  N   UNL     1       0.348  13.415  19.399  0.00  0.00    +0.000 N 
ATOM     12  C   UNL     1       0.560  14.705  18.900  0.00  0.00    +0.000 C 
ATOM     13  O   UNL     1      -0.408  15.455  18.763  0.00  0.00    +0.000 OA
ATOM     14  N   UNL     1       1.826  15.175  18.565  0.00  0.00    +0.000 N 
ATOM     15  C   UNL     1       3.142  14.557  18.693  0.00  0.00    +0.000 C 
ATOM     16  C   UNL     1       1.913  16.580  18.176  0.00  0.00    +0.000 C 
ATOM     17  C   UNL     1      -1.052  13.039  19.662  0.00  0.00    +0.000 C 
ENDROOT
BRANCH   1  19
ATOM     18  C   UNL     1      -5.829  11.447  18.073  0.00  0.00    +0.000 C 
ATOM     19  C   UNL     1      -4.653  11.324  17.122  0.00  0.00    +0.000 C 
ENDBRANCH   1  19
BRANCH   8  20
ATOM     20  C   UNL     1       0.579   9.114  21.270  0.00  0.00    +0.000 C 
BRANCH  20  21
ATOM     21  C   UNL     1       1.350   8.037  20.598  0.00  0.00    +0.000 A 
ATOM     22  C   UNL     1       1.523   6.710  21.045  0.00  0.00    +0.000 A 
ATOM     23  N   UNL     1       2.177   5.950  20.163  0.00  0.00    +0.000 NA
ATOM     24  N   UNL     1       2.420   6.797  19.143  0.00  0.00    +0.000 N 
ATOM     25  C   UNL     1       2.919   6.289  17.888  0.00  0.00    +0.000 C 
ATOM     26  C   UNL     1       2.027   8.077  19.396  0.00  0.00    +0.000 A 
ENDBRANCH  20  21
ENDBRANCH   8  20
TORSDOF 3
ENDMDL
MODEL 9
REMARK VINA RESULT:      -5.7      5.176      9.196
REMARK  Name = 
REMARK  7 active torsions:
REMARK  status: ('A' for Active; 'I' for Inactive)
REMARK    1  A    between atoms: C_1  and  C_2
REMARK    2  A    between atoms: C_2  and  N_3
REMARK    3  A    between atoms: N_10  and  C_11
REMARK    4  A    between atoms: C_11  and  C_12
REMARK    5  A    between atoms: N_15  and  C_16
REMARK    6  A    between atoms: N_23  and  C_24
REMARK    7  A    between atoms: N_23  and  C_25
REMARK                            x       y       z     vdW  Elec       q    Type
REMARK                         _______ _______ _______ _____ _____    ______ ____
ROOT
ATOM      1  N   UNL     1       0.759   8.470  20.595  0.00  0.00    +0.000 N 
ATOM      2  C   UNL     1       1.194   9.342  19.534  0.00  0.00    +0.000 C 
ATOM      3  C   UNL     1       0.356  10.646  19.656  0.00  0.00    +0.000 C 
ATOM      4  C   UNL     1      -0.344  10.505  21.023  0.00  0.00    +0.000 C 
ATOM      5  C   UNL     1      -0.134   9.081  21.456  0.00  0.00    +0.000 C 
ATOM      6  O   UNL     1      -0.624   8.590  22.464  0.00  0.00    +0.000 OA
ATOM      7  C   UNL     1      -0.667  10.684  18.490  0.00  0.00    +0.000 C 
ATOM      8  N   UNL     1      -1.684  11.752  18.555  0.00  0.00    +0.000 NA
ATOM      9  C   UNL     1      -1.077  13.088  18.491  0.00  0.00    +0.000 C 
ATOM     10  C   UNL     1      -0.476  13.576  19.814  0.00  0.00    +0.000 C 
ATOM     11  N   UNL     1       0.859  13.129  20.174  0.00  0.00    +0.000 N 
ATOM     12  C   UNL     1       1.774  13.823  20.973  0.00  0.00    +0.000 C 
ATOM     13  O   UNL     1       2.910  13.364  21.109  0.00  0.00    +0.000 OA
ATOM     14  N   UNL     1       1.452  15.017  21.610  0.00  0.00    +0.000 N 
ATOM     15  C   UNL     1       0.239  15.827  21.570  0.00  0.00    +0.000 C 
ATOM     16  C   UNL     1       2.542  15.692  22.307  0.00  0.00    +0.000 C 
ATOM     17  C   UNL     1       1.324  11.853  19.604  0.00  0.00    +0.000 C 
ENDROOT
BRANCH   1  19
ATOM     18  C   UNL     1       2.232   6.557  19.960  0.00  0.00    +0.000 C 
ATOM     19  C   UNL     1       1.579   7.363  21.067  0.00  0.00    +0.000 C 
ENDBRANCH   1  19
BRANCH   8  20
ATOM     20  C   UNL     1      -2.681  11.647  17.466  0.00  0.00    +0.000 C 
BRANCH  20  21
ATOM     21  C   UNL     1      -4.066  11.607  18.001  0.00  0.00    +0.000 A 
ATOM     22  C   UNL     1      -5.197  11.026  17.389  0.00  0.00    +0.000 A 
ATOM     23  N   UNL     1      -6.277  11.054  18.172  0.00  0.00    +0.000 NA
ATOM     24  N   UNL     1      -5.833  11.651  19.295  0.00  0.00    +0.000 N 
ATOM     25  C   UNL     1      -6.657  11.665  20.479  0.00  0.00    +0.000 C 
ATOM     26  C   UNL     1      -4.543  12.083  19.205  0.00  0.00    +0.000 A 
ENDBRANCH  20  21
ENDBRANCH   8  20
TORSDOF 3
ENDMDL
