MODEL 1
REMARK VINA RESULT:      -8.8      0.000      0.000
REMARK  Name = 
REMARK  8 active torsions:
REMARK  status: ('A' for Active; 'I' for Inactive)
REMARK    1  A    between atoms: O_1  and  C_2
REMARK    2  A    between atoms: C_4  and  O_5
REMARK    3  A    between atoms: C_7  and  O_8
REMARK    4  A    between atoms: O_8  and  C_9
REMARK    5  A    between atoms: C_10  and  O_11
REMARK    6  A    between atoms: C_13  and  O_14
REMARK    7  A    between atoms: C_19  and  O_20
REMARK    8  A    between atoms: C_22  and  O_23
REMARK                            x       y       z     vdW  Elec       q    Type
REMARK                         _______ _______ _______ _____ _____    ______ ____
ROOT
ATOM      1  C   UNL     1       5.224   4.588  16.508  0.00  0.00    +0.000 A 
ATOM      2  C   UNL     1       4.850   5.936  16.590  0.00  0.00    +0.000 A 
ATOM      3  C   UNL     1       4.346   6.449  17.782  0.00  0.00    +0.000 A 
ATOM      4  C   UNL     1       4.451   5.656  18.924  0.00  0.00    +0.000 A 
ATOM      5  C   UNL     1       4.947   4.350  18.837  0.00  0.00    +0.000 A 
ATOM      6  C   UNL     1       4.856   3.772  17.581  0.00  0.00    +0.000 A 
ATOM      7  O   UNL     1       3.498   3.175  17.466  0.00  0.00    +0.000 OA
ATOM      8  C   UNL     1       2.866   2.909  18.694  0.00  0.00    +0.000 A 
ATOM      9  C   UNL     1       1.480   2.868  18.841  0.00  0.00    +0.000 A 
ATOM     10  C   UNL     1       0.904   2.729  20.116  0.00  0.00    +0.000 A 
ATOM     11  C   UNL     1       1.718   2.547  21.237  0.00  0.00    +0.000 A 
ATOM     12  C   UNL     1       3.093   2.579  21.119  0.00  0.00    +0.000 A 
ATOM     13  C   UNL     1       3.628   2.873  19.875  0.00  0.00    +0.000 A 
ATOM     14  O   UNL     1       4.874   3.462  19.882  0.00  0.00    +0.000 OA
ENDROOT
BRANCH   2  15
ATOM     15  O   UNL     1       5.098   6.814  15.574  0.00  0.00    +0.000 OA
ATOM     16  H   UNL     1       5.827   7.392  15.869  0.00  0.00    +0.000 HD
ENDBRANCH   2  15
BRANCH   4  17
ATOM     17  O   UNL     1       3.853   6.090  20.075  0.00  0.00    +0.000 OA
ATOM     18  H   UNL     1       3.377   5.322  20.432  0.00  0.00    +0.000 HD
ENDBRANCH   4  17
BRANCH   9  19
ATOM     19  O   UNL     1       0.617   3.070  17.802  0.00  0.00    +0.000 OA
ATOM     20  H   UNL     1       0.602   2.257  17.266  0.00  0.00    +0.000 HD
ENDBRANCH   9  19
BRANCH  11  21
ATOM     21  O   UNL     1       1.213   2.434  22.496  0.00  0.00    +0.000 OA
ATOM     22  H   UNL     1       1.923   2.162  23.097  0.00  0.00    +0.000 HD
ENDBRANCH  11  21
BRANCH   1  23
ATOM     23  O   UNL     1       6.511   4.456  15.950  0.00  0.00    +0.000 OA
BRANCH  23  28
ATOM     24  C   UNL     1       6.320   3.377  12.471  0.00  0.00    +0.000 A 
ATOM     25  C   UNL     1       7.138   4.311  11.840  0.00  0.00    +0.000 A 
ATOM     26  C   UNL     1       7.708   5.333  12.604  0.00  0.00    +0.000 A 
ATOM     27  C   UNL     1       7.476   5.430  13.965  0.00  0.00    +0.000 A 
ATOM     28  C   UNL     1       6.660   4.499  14.592  0.00  0.00    +0.000 A 
ATOM     29  C   UNL     1       6.079   3.457  13.841  0.00  0.00    +0.000 A 
BRANCH  24  30
ATOM     30  O   UNL     1       5.758   2.346  11.779  0.00  0.00    +0.000 OA
ATOM     31  H   UNL     1       6.023   2.400  10.848  0.00  0.00    +0.000 HD
ENDBRANCH  24  30
BRANCH  26  32
ATOM     32  O   UNL     1       8.536   6.261  12.050  0.00  0.00    +0.000 OA
ATOM     33  H   UNL     1       8.585   7.033  12.636  0.00  0.00    +0.000 HD
ENDBRANCH  26  32
ENDBRANCH  23  28
ENDBRANCH   1  23
TORSDOF 8
ENDMDL
MODEL 2
REMARK VINA RESULT:      -8.8      0.140      1.608
REMARK  Name = 
REMARK  8 active torsions:
REMARK  status: ('A' for Active; 'I' for Inactive)
REMARK    1  A    between atoms: O_1  and  C_2
REMARK    2  A    between atoms: C_4  and  O_5
REMARK    3  A    between atoms: C_7  and  O_8
REMARK    4  A    between atoms: O_8  and  C_9
REMARK    5  A    between atoms: C_10  and  O_11
REMARK    6  A    between atoms: C_13  and  O_14
REMARK    7  A    between atoms: C_19  and  O_20
REMARK    8  A    between atoms: C_22  and  O_23
REMARK                            x       y       z     vdW  Elec       q    Type
REMARK                         _______ _______ _______ _____ _____    ______ ____
ROOT
ATOM      1  C   UNL     1       5.335   4.578  16.523  0.00  0.00    +0.000 A 
ATOM      2  C   UNL     1       4.921   5.917  16.566  0.00  0.00    +0.000 A 
ATOM      3  C   UNL     1       4.376   6.440  17.735  0.00  0.00    +0.000 A 
ATOM      4  C   UNL     1       4.479   5.676  18.896  0.00  0.00    +0.000 A 
ATOM      5  C   UNL     1       5.015   4.384  18.850  0.00  0.00    +0.000 A 
ATOM      6  C   UNL     1       4.968   3.776  17.605  0.00  0.00    +0.000 A 
ATOM      7  O   UNL     1       3.630   3.136  17.476  0.00  0.00    +0.000 OA
ATOM      8  C   UNL     1       2.980   2.880  18.696  0.00  0.00    +0.000 A 
ATOM      9  C   UNL     1       1.592   2.801  18.815  0.00  0.00    +0.000 A 
ATOM     10  C   UNL     1       0.994   2.673  20.080  0.00  0.00    +0.000 A 
ATOM     11  C   UNL     1       1.788   2.540  21.222  0.00  0.00    +0.000 A 
ATOM     12  C   UNL     1       3.164   2.609  21.132  0.00  0.00    +0.000 A 
ATOM     13  C   UNL     1       3.716   2.892  19.894  0.00  0.00    +0.000 A 
ATOM     14  O   UNL     1       4.945   3.517  19.913  0.00  0.00    +0.000 OA
ENDROOT
BRANCH   2  15
ATOM     15  O   UNL     1       5.165   6.779  15.536  0.00  0.00    +0.000 OA
ATOM     16  H   UNL     1       4.408   6.712  14.924  0.00  0.00    +0.000 HD
ENDBRANCH   2  15
BRANCH   4  17
ATOM     17  O   UNL     1       3.845   6.118  20.025  0.00  0.00    +0.000 OA
ATOM     18  H   UNL     1       3.866   7.088  19.979  0.00  0.00    +0.000 HD
ENDBRANCH   4  17
BRANCH   9  19
ATOM     19  O   UNL     1       0.747   2.955  17.754  0.00  0.00    +0.000 OA
ATOM     20  H   UNL     1       1.249   2.755  16.943  0.00  0.00    +0.000 HD
ENDBRANCH   9  19
BRANCH  11  21
ATOM     21  O   UNL     1       1.260   2.440  22.472  0.00  0.00    +0.000 OA
ATOM     22  H   UNL     1       1.694   1.710  22.940  0.00  0.00    +0.000 HD
ENDBRANCH  11  21
BRANCH   1  23
ATOM     23  O   UNL     1       6.637   4.472  15.994  0.00  0.00    +0.000 OA
BRANCH  23  28
ATOM     24  C   UNL     1       7.723   5.342  12.623  0.00  0.00    +0.000 A 
ATOM     25  C   UNL     1       6.999   4.438  11.850  0.00  0.00    +0.000 A 
ATOM     26  C   UNL     1       6.182   3.504  12.494  0.00  0.00    +0.000 A 
ATOM     27  C   UNL     1       6.082   3.465  13.874  0.00  0.00    +0.000 A 
ATOM     28  C   UNL     1       6.805   4.366  14.642  0.00  0.00    +0.000 A 
ATOM     29  C   UNL     1       7.631   5.320  14.013  0.00  0.00    +0.000 A 
BRANCH  24  30
ATOM     30  O   UNL     1       8.516   6.290  12.047  0.00  0.00    +0.000 OA
ATOM     31  H   UNL     1       7.962   6.999  11.686  0.00  0.00    +0.000 HD
ENDBRANCH  24  30
BRANCH  26  32
ATOM     32  O   UNL     1       5.431   2.611  11.793  0.00  0.00    +0.000 OA
ATOM     33  H   UNL     1       4.642   2.385  12.311  0.00  0.00    +0.000 HD
ENDBRANCH  26  32
ENDBRANCH  23  28
ENDBRANCH   1  23
TORSDOF 8
ENDMDL
MODEL 3
REMARK VINA RESULT:      -7.7      1.330      1.601
REMARK  Name = 
REMARK  8 active torsions:
REMARK  status: ('A' for Active; 'I' for Inactive)
REMARK    1  A    between atoms: O_1  and  C_2
REMARK    2  A    between atoms: C_4  and  O_5
REMARK    3  A    between atoms: C_7  and  O_8
REMARK    4  A    between atoms: O_8  and  C_9
REMARK    5  A    between atoms: C_10  and  O_11
REMARK    6  A    between atoms: C_13  and  O_14
REMARK    7  A    between atoms: C_19  and  O_20
REMARK    8  A    between atoms: C_22  and  O_23
REMARK                            x       y       z     vdW  Elec       q    Type
REMARK                         _______ _______ _______ _____ _____    ______ ____
ROOT
ATOM      1  C   UNL     1       5.138   4.708  15.669  0.00  0.00    +0.000 A 
ATOM      2  C   UNL     1       5.025   6.077  15.945  0.00  0.00    +0.000 A 
ATOM      3  C   UNL     1       4.846   6.512  17.255  0.00  0.00    +0.000 A 
ATOM      4  C   UNL     1       5.021   5.581  18.276  0.00  0.00    +0.000 A 
ATOM      5  C   UNL     1       5.259   4.235  17.975  0.00  0.00    +0.000 A 
ATOM      6  C   UNL     1       4.839   3.833  16.717  0.00  0.00    +0.000 A 
ATOM      7  O   UNL     1       3.400   3.468  16.827  0.00  0.00    +0.000 OA
ATOM      8  C   UNL     1       2.970   3.155  18.128  0.00  0.00    +0.000 A 
ATOM      9  C   UNL     1       1.649   3.308  18.549  0.00  0.00    +0.000 A 
ATOM     10  C   UNL     1       1.303   3.105  19.895  0.00  0.00    +0.000 A 
ATOM     11  C   UNL     1       2.267   2.667  20.808  0.00  0.00    +0.000 A 
ATOM     12  C   UNL     1       3.581   2.503  20.417  0.00  0.00    +0.000 A 
ATOM     13  C   UNL     1       3.919   2.861  19.123  0.00  0.00    +0.000 A 
ATOM     14  O   UNL     1       5.228   3.248  18.930  0.00  0.00    +0.000 OA
ENDROOT
BRANCH   2  15
ATOM     15  O   UNL     1       5.229   7.024  14.982  0.00  0.00    +0.000 OA
ATOM     16  H   UNL     1       4.644   6.798  14.234  0.00  0.00    +0.000 HD
ENDBRANCH   2  15
BRANCH   4  17
ATOM     17  O   UNL     1       4.731   5.957  19.558  0.00  0.00    +0.000 OA
ATOM     18  H   UNL     1       4.173   5.251  19.923  0.00  0.00    +0.000 HD
ENDBRANCH   4  17
BRANCH   9  19
ATOM     19  O   UNL     1       0.657   3.764  17.727  0.00  0.00    +0.000 OA
ATOM     20  H   UNL     1      -0.077   3.126  17.767  0.00  0.00    +0.000 HD
ENDBRANCH   9  19
BRANCH  11  21
ATOM     21  O   UNL     1       1.992   2.480  22.128  0.00  0.00    +0.000 OA
ATOM     22  H   UNL     1       1.961   1.529  22.312  0.00  0.00    +0.000 HD
ENDBRANCH  11  21
BRANCH   1  23
ATOM     23  O   UNL     1       6.257   4.450  14.853  0.00  0.00    +0.000 OA
BRANCH  23  28
ATOM     24  C   UNL     1       4.493   3.240  11.899  0.00  0.00    +0.000 A 
ATOM     25  C   UNL     1       5.506   2.567  11.219  0.00  0.00    +0.000 A 
ATOM     26  C   UNL     1       6.797   2.577  11.755  0.00  0.00    +0.000 A 
ATOM     27  C   UNL     1       7.082   3.236  12.938  0.00  0.00    +0.000 A 
ATOM     28  C   UNL     1       6.071   3.906  13.612  0.00  0.00    +0.000 A 
ATOM     29  C   UNL     1       4.761   3.905  13.093  0.00  0.00    +0.000 A 
BRANCH  24  30
ATOM     30  O   UNL     1       3.212   3.243  11.435  0.00  0.00    +0.000 OA
ATOM     31  H   UNL     1       2.674   2.635  11.966  0.00  0.00    +0.000 HD
ENDBRANCH  24  30
BRANCH  26  32
ATOM     32  O   UNL     1       7.825   1.917  11.151  0.00  0.00    +0.000 OA
ATOM     33  H   UNL     1       8.621   2.002  11.699  0.00  0.00    +0.000 HD
ENDBRANCH  26  32
ENDBRANCH  23  28
ENDBRANCH   1  23
TORSDOF 8
ENDMDL
MODEL 4
REMARK VINA RESULT:      -7.5      1.434      1.973
REMARK  Name = 
REMARK  8 active torsions:
REMARK  status: ('A' for Active; 'I' for Inactive)
REMARK    1  A    between atoms: O_1  and  C_2
REMARK    2  A    between atoms: C_4  and  O_5
REMARK    3  A    between atoms: C_7  and  O_8
REMARK    4  A    between atoms: O_8  and  C_9
REMARK    5  A    between atoms: C_10  and  O_11
REMARK    6  A    between atoms: C_13  and  O_14
REMARK    7  A    between atoms: C_19  and  O_20
REMARK    8  A    between atoms: C_22  and  O_23
REMARK                            x       y       z     vdW  Elec       q    Type
REMARK                         _______ _______ _______ _____ _____    ______ ____
ROOT
ATOM      1  C   UNL     1       5.094   4.799  15.503  0.00  0.00    +0.000 A 
ATOM      2  C   UNL     1       5.018   6.163  15.815  0.00  0.00    +0.000 A 
ATOM      3  C   UNL     1       4.969   6.573  17.144  0.00  0.00    +0.000 A 
ATOM      4  C   UNL     1       5.234   5.621  18.126  0.00  0.00    +0.000 A 
ATOM      5  C   UNL     1       5.433   4.280  17.778  0.00  0.00    +0.000 A 
ATOM      6  C   UNL     1       4.891   3.906  16.558  0.00  0.00    +0.000 A 
ATOM      7  O   UNL     1       3.466   3.547  16.799  0.00  0.00    +0.000 OA
ATOM      8  C   UNL     1       3.161   3.210  18.129  0.00  0.00    +0.000 A 
ATOM      9  C   UNL     1       1.887   3.363  18.678  0.00  0.00    +0.000 A 
ATOM     10  C   UNL     1       1.671   3.135  20.047  0.00  0.00    +0.000 A 
ATOM     11  C   UNL     1       2.714   2.673  20.855  0.00  0.00    +0.000 A 
ATOM     12  C   UNL     1       3.983   2.509  20.336  0.00  0.00    +0.000 A 
ATOM     13  C   UNL     1       4.198   2.891  19.023  0.00  0.00    +0.000 A 
ATOM     14  O   UNL     1       5.486   3.274  18.712  0.00  0.00    +0.000 OA
ENDROOT
BRANCH   2  15
ATOM     15  O   UNL     1       5.136   7.128  14.855  0.00  0.00    +0.000 OA
ATOM     16  H   UNL     1       4.285   7.160  14.379  0.00  0.00    +0.000 HD
ENDBRANCH   2  15
BRANCH   4  17
ATOM     17  O   UNL     1       5.072   5.974  19.437  0.00  0.00    +0.000 OA
ATOM     18  H   UNL     1       4.243   6.479  19.475  0.00  0.00    +0.000 HD
ENDBRANCH   4  17
BRANCH   9  19
ATOM     19  O   UNL     1       0.825   3.840  17.964  0.00  0.00    +0.000 OA
ATOM     20  H   UNL     1       0.014   3.617  18.455  0.00  0.00    +0.000 HD
ENDBRANCH   9  19
BRANCH  11  21
ATOM     21  O   UNL     1       2.566   2.462  22.191  0.00  0.00    +0.000 OA
ATOM     22  H   UNL     1       1.894   3.072  22.534  0.00  0.00    +0.000 HD
ENDBRANCH  11  21
BRANCH   1  23
ATOM     23  O   UNL     1       6.128   4.551  14.578  0.00  0.00    +0.000 OA
BRANCH  23  28
ATOM     24  C   UNL     1       6.766   2.447  11.668  0.00  0.00    +0.000 A 
ATOM     25  C   UNL     1       5.527   2.463  11.030  0.00  0.00    +0.000 A 
ATOM     26  C   UNL     1       4.471   3.154  11.629  0.00  0.00    +0.000 A 
ATOM     27  C   UNL     1       4.633   3.817  12.833  0.00  0.00    +0.000 A 
ATOM     28  C   UNL     1       5.867   3.798  13.467  0.00  0.00    +0.000 A 
ATOM     29  C   UNL     1       6.948   3.113  12.878  0.00  0.00    +0.000 A 
BRANCH  24  30
ATOM     30  O   UNL     1       7.837   1.810  11.117  0.00  0.00    +0.000 OA
ATOM     31  H   UNL     1       7.832   0.879  11.386  0.00  0.00    +0.000 HD
ENDBRANCH  24  30
BRANCH  26  32
ATOM     32  O   UNL     1       3.243   3.227  11.043  0.00  0.00    +0.000 OA
ATOM     33  H   UNL     1       3.257   3.920  10.364  0.00  0.00    +0.000 HD
ENDBRANCH  26  32
ENDBRANCH  23  28
ENDBRANCH   1  23
TORSDOF 8
ENDMDL
MODEL 5
REMARK VINA RESULT:      -7.2      2.633      3.631
REMARK  Name = 
REMARK  8 active torsions:
REMARK  status: ('A' for Active; 'I' for Inactive)
REMARK    1  A    between atoms: O_1  and  C_2
REMARK    2  A    between atoms: C_4  and  O_5
REMARK    3  A    between atoms: C_7  and  O_8
REMARK    4  A    between atoms: O_8  and  C_9
REMARK    5  A    between atoms: C_10  and  O_11
REMARK    6  A    between atoms: C_13  and  O_14
REMARK    7  A    between atoms: C_19  and  O_20
REMARK    8  A    between atoms: C_22  and  O_23
REMARK                            x       y       z     vdW  Elec       q    Type
REMARK                         _______ _______ _______ _____ _____    ______ ____
ROOT
ATOM      1  C   UNL     1       4.681   5.337  16.887  0.00  0.00    +0.000 A 
ATOM      2  C   UNL     1       3.997   6.560  16.896  0.00  0.00    +0.000 A 
ATOM      3  C   UNL     1       3.293   6.956  18.030  0.00  0.00    +0.000 A 
ATOM      4  C   UNL     1       3.488   6.227  19.201  0.00  0.00    +0.000 A 
ATOM      5  C   UNL     1       4.281   5.074  19.195  0.00  0.00    +0.000 A 
ATOM      6  C   UNL     1       4.429   4.473  17.954  0.00  0.00    +0.000 A 
ATOM      7  O   UNL     1       3.261   3.570  17.758  0.00  0.00    +0.000 OA
ATOM      8  C   UNL     1       2.613   3.181  18.944  0.00  0.00    +0.000 A 
ATOM      9  C   UNL     1       1.267   2.817  18.988  0.00  0.00    +0.000 A 
ATOM     10  C   UNL     1       0.640   2.564  20.220  0.00  0.00    +0.000 A 
ATOM     11  C   UNL     1       1.381   2.595  21.404  0.00  0.00    +0.000 A 
ATOM     12  C   UNL     1       2.716   2.948  21.388  0.00  0.00    +0.000 A 
ATOM     13  C   UNL     1       3.264   3.342  20.179  0.00  0.00    +0.000 A 
ATOM     14  O   UNL     1       4.334   4.208  20.260  0.00  0.00    +0.000 OA
ENDROOT
BRANCH   2  15
ATOM     15  O   UNL     1       4.113   7.458  15.873  0.00  0.00    +0.000 OA
ATOM     16  H   UNL     1       4.729   7.069  15.224  0.00  0.00    +0.000 HD
ENDBRANCH   2  15
BRANCH   4  17
ATOM     17  O   UNL     1       2.715   6.524  20.290  0.00  0.00    +0.000 OA
ATOM     18  H   UNL     1       2.417   7.440  20.162  0.00  0.00    +0.000 HD
ENDBRANCH   4  17
BRANCH   9  19
ATOM     19  O   UNL     1       0.467   2.795  17.882  0.00  0.00    +0.000 OA
ATOM     20  H   UNL     1      -0.304   3.362  18.061  0.00  0.00    +0.000 HD
ENDBRANCH   9  19
BRANCH  11  21
ATOM     21  O   UNL     1       0.818   2.384  22.625  0.00  0.00    +0.000 OA
ATOM     22  H   UNL     1       1.499   2.065  23.236  0.00  0.00    +0.000 HD
ENDBRANCH  11  21
BRANCH   1  23
ATOM     23  O   UNL     1       6.003   5.504  16.430  0.00  0.00    +0.000 OA
BRANCH  23  28
ATOM     24  C   UNL     1       8.238   5.983  19.273  0.00  0.00    +0.000 A 
ATOM     25  C   UNL     1       8.577   7.327  19.144  0.00  0.00    +0.000 A 
ATOM     26  C   UNL     1       8.077   8.046  18.054  0.00  0.00    +0.000 A 
ATOM     27  C   UNL     1       7.257   7.449  17.112  0.00  0.00    +0.000 A 
ATOM     28  C   UNL     1       6.921   6.109  17.243  0.00  0.00    +0.000 A 
ATOM     29  C   UNL     1       7.410   5.367  18.337  0.00  0.00    +0.000 A 
BRANCH  24  30
ATOM     30  O   UNL     1       8.677   5.240  20.328  0.00  0.00    +0.000 OA
ATOM     31  H   UNL     1       7.997   4.595  20.575  0.00  0.00    +0.000 HD
ENDBRANCH  24  30
BRANCH  26  32
ATOM     32  O   UNL     1       8.353   9.369  17.886  0.00  0.00    +0.000 OA
ATOM     33  H   UNL     1       9.307   9.510  17.993  0.00  0.00    +0.000 HD
ENDBRANCH  26  32
ENDBRANCH  23  28
ENDBRANCH   1  23
TORSDOF 8
ENDMDL
MODEL 6
REMARK VINA RESULT:      -6.8      2.709      5.040
REMARK  Name = 
REMARK  8 active torsions:
REMARK  status: ('A' for Active; 'I' for Inactive)
REMARK    1  A    between atoms: O_1  and  C_2
REMARK    2  A    between atoms: C_4  and  O_5
REMARK    3  A    between atoms: C_7  and  O_8
REMARK    4  A    between atoms: O_8  and  C_9
REMARK    5  A    between atoms: C_10  and  O_11
REMARK    6  A    between atoms: C_13  and  O_14
REMARK    7  A    between atoms: C_19  and  O_20
REMARK    8  A    between atoms: C_22  and  O_23
REMARK                            x       y       z     vdW  Elec       q    Type
REMARK                         _______ _______ _______ _____ _____    ______ ____
ROOT
ATOM      1  C   UNL     1       4.276   4.385  19.348  0.00  0.00    +0.000 A 
ATOM      2  C   UNL     1       3.237   3.447  19.271  0.00  0.00    +0.000 A 
ATOM      3  C   UNL     1       2.052   3.772  18.619  0.00  0.00    +0.000 A 
ATOM      4  C   UNL     1       2.029   4.941  17.860  0.00  0.00    +0.000 A 
ATOM      5  C   UNL     1       3.131   5.803  17.852  0.00  0.00    +0.000 A 
ATOM      6  C   UNL     1       3.970   5.689  18.950  0.00  0.00    +0.000 A 
ATOM      7  O   UNL     1       3.409   6.549  20.027  0.00  0.00    +0.000 OA
ATOM      8  C   UNL     1       2.545   7.564  19.580  0.00  0.00    +0.000 A 
ATOM      9  C   UNL     1       1.537   8.109  20.375  0.00  0.00    +0.000 A 
ATOM     10  C   UNL     1       0.622   9.027  19.833  0.00  0.00    +0.000 A 
ATOM     11  C   UNL     1       0.765   9.464  18.514  0.00  0.00    +0.000 A 
ATOM     12  C   UNL     1       1.757   8.945  17.706  0.00  0.00    +0.000 A 
ATOM     13  C   UNL     1       2.544   7.929  18.222  0.00  0.00    +0.000 A 
ATOM     14  O   UNL     1       3.083   7.059  17.298  0.00  0.00    +0.000 OA
ENDROOT
BRANCH   2  15
ATOM     15  O   UNL     1       3.399   2.158  19.693  0.00  0.00    +0.000 OA
ATOM     16  H   UNL     1       3.669   1.636  18.914  0.00  0.00    +0.000 HD
ENDBRANCH   2  15
BRANCH   4  17
ATOM     17  O   UNL     1       0.840   5.339  17.313  0.00  0.00    +0.000 OA
ATOM     18  H   UNL     1       0.377   4.523  17.061  0.00  0.00    +0.000 HD
ENDBRANCH   4  17
BRANCH   9  19
ATOM     19  O   UNL     1       1.311   7.710  21.662  0.00  0.00    +0.000 OA
ATOM     20  H   UNL     1       1.580   6.777  21.735  0.00  0.00    +0.000 HD
ENDBRANCH   9  19
BRANCH  11  21
ATOM     21  O   UNL     1      -0.109  10.330  17.932  0.00  0.00    +0.000 OA
ATOM     22  H   UNL     1      -0.624   9.856  17.261  0.00  0.00    +0.000 HD
ENDBRANCH  11  21
BRANCH   1  23
ATOM     23  O   UNL     1       5.501   3.812  18.953  0.00  0.00    +0.000 OA
BRANCH  23  28
ATOM     24  C   UNL     1       7.266   5.980  16.611  0.00  0.00    +0.000 A 
ATOM     25  C   UNL     1       7.080   5.306  15.406  0.00  0.00    +0.000 A 
ATOM     26  C   UNL     1       6.394   4.089  15.415  0.00  0.00    +0.000 A 
ATOM     27  C   UNL     1       5.900   3.548  16.589  0.00  0.00    +0.000 A 
ATOM     28  C   UNL     1       6.088   4.220  17.788  0.00  0.00    +0.000 A 
ATOM     29  C   UNL     1       6.772   5.453  17.802  0.00  0.00    +0.000 A 
BRANCH  24  30
ATOM     30  O   UNL     1       7.906   7.182  16.658  0.00  0.00    +0.000 OA
ATOM     31  H   UNL     1       7.914   7.509  17.571  0.00  0.00    +0.000 HD
ENDBRANCH  24  30
BRANCH  26  32
ATOM     32  O   UNL     1       6.159   3.395  14.266  0.00  0.00    +0.000 OA
ATOM     33  H   UNL     1       6.177   2.445  14.461  0.00  0.00    +0.000 HD
ENDBRANCH  26  32
ENDBRANCH  23  28
ENDBRANCH   1  23
TORSDOF 8
ENDMDL
MODEL 7
REMARK VINA RESULT:      -6.8      1.771      2.769
REMARK  Name = 
REMARK  8 active torsions:
REMARK  status: ('A' for Active; 'I' for Inactive)
REMARK    1  A    between atoms: O_1  and  C_2
REMARK    2  A    between atoms: C_4  and  O_5
REMARK    3  A    between atoms: C_7  and  O_8
REMARK    4  A    between atoms: O_8  and  C_9
REMARK    5  A    between atoms: C_10  and  O_11
REMARK    6  A    between atoms: C_13  and  O_14
REMARK    7  A    between atoms: C_19  and  O_20
REMARK    8  A    between atoms: C_22  and  O_23
REMARK                            x       y       z     vdW  Elec       q    Type
REMARK                         _______ _______ _______ _____ _____    ______ ____
ROOT
ATOM      1  C   UNL     1       3.476   6.711  17.423  0.00  0.00    +0.000 A 
ATOM      2  C   UNL     1       2.608   7.747  17.796  0.00  0.00    +0.000 A 
ATOM      3  C   UNL     1       2.028   7.748  19.061  0.00  0.00    +0.000 A 
ATOM      4  C   UNL     1       2.515   6.840  19.999  0.00  0.00    +0.000 A 
ATOM      5  C   UNL     1       3.478   5.892  19.634  0.00  0.00    +0.000 A 
ATOM      6  C   UNL     1       3.535   5.608  18.278  0.00  0.00    +0.000 A 
ATOM      7  O   UNL     1       2.516   4.557  18.003  0.00  0.00    +0.000 OA
ATOM      8  C   UNL     1       2.128   3.806  19.127  0.00  0.00    +0.000 A 
ATOM      9  C   UNL     1       0.883   3.185  19.231  0.00  0.00    +0.000 A 
ATOM     10  C   UNL     1       0.499   2.559  20.429  0.00  0.00    +0.000 A 
ATOM     11  C   UNL     1       1.395   2.483  21.499  0.00  0.00    +0.000 A 
ATOM     12  C   UNL     1       2.635   3.085  21.421  0.00  0.00    +0.000 A 
ATOM     13  C   UNL     1       2.922   3.826  20.287  0.00  0.00    +0.000 A 
ATOM     14  O   UNL     1       3.833   4.847  20.452  0.00  0.00    +0.000 OA
ENDROOT
BRANCH   2  15
ATOM     15  O   UNL     1       2.419   8.846  17.008  0.00  0.00    +0.000 OA
ATOM     16  H   UNL     1       3.064   8.786  16.278  0.00  0.00    +0.000 HD
ENDBRANCH   2  15
BRANCH   4  17
ATOM     17  O   UNL     1       1.877   6.742  21.205  0.00  0.00    +0.000 OA
ATOM     18  H   UNL     1       1.147   6.116  21.069  0.00  0.00    +0.000 HD
ENDBRANCH   4  17
BRANCH   9  19
ATOM     19  O   UNL     1      -0.060   3.243  18.245  0.00  0.00    +0.000 OA
ATOM     20  H   UNL     1       0.339   2.885  17.431  0.00  0.00    +0.000 HD
ENDBRANCH   9  19
BRANCH  11  21
ATOM     21  O   UNL     1       1.064   1.912  22.690  0.00  0.00    +0.000 OA
ATOM     22  H   UNL     1       1.077   0.948  22.591  0.00  0.00    +0.000 HD
ENDBRANCH  11  21
BRANCH   1  23
ATOM     23  O   UNL     1       4.668   7.226  16.878  0.00  0.00    +0.000 OA
BRANCH  23  28
ATOM     24  C   UNL     1       6.579   4.888  14.832  0.00  0.00    +0.000 A 
ATOM     25  C   UNL     1       7.488   4.380  15.757  0.00  0.00    +0.000 A 
ATOM     26  C   UNL     1       7.471   4.880  17.062  0.00  0.00    +0.000 A 
ATOM     27  C   UNL     1       6.574   5.861  17.447  0.00  0.00    +0.000 A 
ATOM     28  C   UNL     1       5.670   6.366  16.523  0.00  0.00    +0.000 A 
ATOM     29  C   UNL     1       5.666   5.873  15.203  0.00  0.00    +0.000 A 
BRANCH  24  30
ATOM     30  O   UNL     1       6.535   4.421  13.553  0.00  0.00    +0.000 OA
ATOM     31  H   UNL     1       6.533   3.451  13.563  0.00  0.00    +0.000 HD
ENDBRANCH  24  30
BRANCH  26  32
ATOM     32  O   UNL     1       8.318   4.406  18.018  0.00  0.00    +0.000 OA
ATOM     33  H   UNL     1       9.233   4.575  17.742  0.00  0.00    +0.000 HD
ENDBRANCH  26  32
ENDBRANCH  23  28
ENDBRANCH   1  23
TORSDOF 8
ENDMDL
MODEL 8
REMARK VINA RESULT:      -6.8      7.172      9.524
REMARK  Name = 
REMARK  8 active torsions:
REMARK  status: ('A' for Active; 'I' for Inactive)
REMARK    1  A    between atoms: O_1  and  C_2
REMARK    2  A    between atoms: C_4  and  O_5
REMARK    3  A    between atoms: C_7  and  O_8
REMARK    4  A    between atoms: O_8  and  C_9
REMARK    5  A    between atoms: C_10  and  O_11
REMARK    6  A    between atoms: C_13  and  O_14
REMARK    7  A    between atoms: C_19  and  O_20
REMARK    8  A    between atoms: C_22  and  O_23
REMARK                            x       y       z     vdW  Elec       q    Type
REMARK                         _______ _______ _______ _____ _____    ______ ____
ROOT
ATOM      1  C   UNL     1       0.497  10.364  18.843  0.00  0.00    +0.000 A 
ATOM      2  C   UNL     1      -0.660  10.578  18.081  0.00  0.00    +0.000 A 
ATOM      3  C   UNL     1      -1.314  11.805  18.135  0.00  0.00    +0.000 A 
ATOM      4  C   UNL     1      -0.660  12.860  18.769  0.00  0.00    +0.000 A 
ATOM      5  C   UNL     1       0.562  12.649  19.419  0.00  0.00    +0.000 A 
ATOM      6  C   UNL     1       0.805  11.338  19.796  0.00  0.00    +0.000 A 
ATOM      7  O   UNL     1       0.158  11.132  21.122  0.00  0.00    +0.000 OA
ATOM      8  C   UNL     1      -0.083  12.312  21.848  0.00  0.00    +0.000 A 
ATOM      9  C   UNL     1      -1.099  12.424  22.797  0.00  0.00    +0.000 A 
ATOM     10  C   UNL     1      -1.379  13.664  23.396  0.00  0.00    +0.000 A 
ATOM     11  C   UNL     1      -0.587  14.778  23.105  0.00  0.00    +0.000 A 
ATOM     12  C   UNL     1       0.429  14.693  22.173  0.00  0.00    +0.000 A 
ATOM     13  C   UNL     1       0.577  13.500  21.487  0.00  0.00    +0.000 A 
ATOM     14  O   UNL     1       1.138  13.594  20.232  0.00  0.00    +0.000 OA
ENDROOT
BRANCH   2  15
ATOM     15  O   UNL     1      -1.096   9.664  17.165  0.00  0.00    +0.000 OA
ATOM     16  H   UNL     1      -0.500   8.894  17.225  0.00  0.00    +0.000 HD
ENDBRANCH   2  15
BRANCH   4  17
ATOM     17  O   UNL     1      -1.335  14.037  18.940  0.00  0.00    +0.000 OA
ATOM     18  H   UNL     1      -0.740  14.734  18.617  0.00  0.00    +0.000 HD
ENDBRANCH   4  17
BRANCH   9  19
ATOM     19  O   UNL     1      -1.938  11.393  23.111  0.00  0.00    +0.000 OA
ATOM     20  H   UNL     1      -1.420  10.569  23.077  0.00  0.00    +0.000 HD
ENDBRANCH   9  19
BRANCH  11  21
ATOM     21  O   UNL     1      -0.830  16.007  23.636  0.00  0.00    +0.000 OA
ATOM     22  H   UNL     1      -1.265  16.559  22.968  0.00  0.00    +0.000 HD
ENDBRANCH  11  21
BRANCH   1  23
ATOM     23  O   UNL     1       1.528   9.823  18.051  0.00  0.00    +0.000 OA
BRANCH  23  28
ATOM     24  C   UNL     1       3.542   6.792  17.811  0.00  0.00    +0.000 A 
ATOM     25  C   UNL     1       3.202   6.131  18.989  0.00  0.00    +0.000 A 
ATOM     26  C   UNL     1       2.322   6.754  19.879  0.00  0.00    +0.000 A 
ATOM     27  C   UNL     1       1.789   8.003  19.611  0.00  0.00    +0.000 A 
ATOM     28  C   UNL     1       2.131   8.659  18.438  0.00  0.00    +0.000 A 
ATOM     29  C   UNL     1       3.012   8.048  17.523  0.00  0.00    +0.000 A 
BRANCH  24  30
ATOM     30  O   UNL     1       4.376   6.222  16.896  0.00  0.00    +0.000 OA
ATOM     31  H   UNL     1       4.892   6.914  16.454  0.00  0.00    +0.000 HD
ENDBRANCH  24  30
BRANCH  26  32
ATOM     32  O   UNL     1       1.931   6.149  21.035  0.00  0.00    +0.000 OA
ATOM     33  H   UNL     1       2.585   6.336  21.727  0.00  0.00    +0.000 HD
ENDBRANCH  26  32
ENDBRANCH  23  28
ENDBRANCH   1  23
TORSDOF 8
ENDMDL
MODEL 9
REMARK VINA RESULT:      -6.8      9.510     12.437
REMARK  Name = 
REMARK  8 active torsions:
REMARK  status: ('A' for Active; 'I' for Inactive)
REMARK    1  A    between atoms: O_1  and  C_2
REMARK    2  A    between atoms: C_4  and  O_5
REMARK    3  A    between atoms: C_7  and  O_8
REMARK    4  A    between atoms: O_8  and  C_9
REMARK    5  A    between atoms: C_10  and  O_11
REMARK    6  A    between atoms: C_13  and  O_14
REMARK    7  A    between atoms: C_19  and  O_20
REMARK    8  A    between atoms: C_22  and  O_23
REMARK                            x       y       z     vdW  Elec       q    Type
REMARK                         _______ _______ _______ _____ _____    ______ ____
ROOT
ATOM      1  C   UNL     1       6.192  15.817  19.275  0.00  0.00    +0.000 A 
ATOM      2  C   UNL     1       6.861  17.032  19.070  0.00  0.00    +0.000 A 
ATOM      3  C   UNL     1       8.086  17.050  18.409  0.00  0.00    +0.000 A 
ATOM      4  C   UNL     1       8.493  15.883  17.766  0.00  0.00    +0.000 A 
ATOM      5  C   UNL     1       7.738  14.710  17.881  0.00  0.00    +0.000 A 
ATOM      6  C   UNL     1       6.911  14.654  18.992  0.00  0.00    +0.000 A 
ATOM      7  O   UNL     1       7.729  14.141  20.126  0.00  0.00    +0.000 OA
ATOM      8  C   UNL     1       8.879  13.426  19.747  0.00  0.00    +0.000 A 
ATOM      9  C   UNL     1      10.012  13.329  20.554  0.00  0.00    +0.000 A 
ATOM     10  C   UNL     1      11.179  12.713  20.069  0.00  0.00    +0.000 A 
ATOM     11  C   UNL     1      11.185  12.120  18.804  0.00  0.00    +0.000 A 
ATOM     12  C   UNL     1      10.075  12.198  17.986  0.00  0.00    +0.000 A 
ATOM     13  C   UNL     1       8.997  12.945  18.431  0.00  0.00    +0.000 A 
ATOM     14  O   UNL     1       8.199  13.490  17.449  0.00  0.00    +0.000 OA
ENDROOT
BRANCH   2  15
ATOM     15  O   UNL     1       6.283  18.231  19.373  0.00  0.00    +0.000 OA
ATOM     16  H   UNL     1       5.550  18.046  19.990  0.00  0.00    +0.000 HD
ENDBRANCH   2  15
BRANCH   4  17
ATOM     17  O   UNL     1       9.745  15.844  17.217  0.00  0.00    +0.000 OA
ATOM     18  H   UNL     1      10.042  14.923  17.299  0.00  0.00    +0.000 HD
ENDBRANCH   4  17
BRANCH   9  19
ATOM     19  O   UNL     1      10.097  13.909  21.787  0.00  0.00    +0.000 OA
ATOM     20  H   UNL     1      10.066  13.199  22.452  0.00  0.00    +0.000 HD
ENDBRANCH   9  19
BRANCH  11  21
ATOM     21  O   UNL     1      12.295  11.535  18.276  0.00  0.00    +0.000 OA
ATOM     22  H   UNL     1      12.152  10.577  18.224  0.00  0.00    +0.000 HD
ENDBRANCH  11  21
BRANCH   1  23
ATOM     23  O   UNL     1       4.846  15.912  18.872  0.00  0.00    +0.000 OA
BRANCH  23  28
ATOM     24  C   UNL     1       2.504  13.125  18.643  0.00  0.00    +0.000 A 
ATOM     25  C   UNL     1       1.920  13.140  19.907  0.00  0.00    +0.000 A 
ATOM     26  C   UNL     1       2.370  14.074  20.845  0.00  0.00    +0.000 A 
ATOM     27  C   UNL     1       3.375  14.976  20.539  0.00  0.00    +0.000 A 
ATOM     28  C   UNL     1       3.955  14.957  19.279  0.00  0.00    +0.000 A 
ATOM     29  C   UNL     1       3.513  14.027  18.317  0.00  0.00    +0.000 A 
BRANCH  24  30
ATOM     30  O   UNL     1       2.088  12.252  17.682  0.00  0.00    +0.000 OA
ATOM     31  H   UNL     1       1.656  11.492  18.102  0.00  0.00    +0.000 HD
ENDBRANCH  24  30
BRANCH  26  32
ATOM     32  O   UNL     1       1.823  14.156  22.089  0.00  0.00    +0.000 OA
ATOM     33  H   UNL     1       0.878  14.362  22.007  0.00  0.00    +0.000 HD
ENDBRANCH  26  32
ENDBRANCH  23  28
ENDBRANCH   1  23
TORSDOF 8
ENDMDL
