MODEL 1
REMARK VINA RESULT:      -8.2      0.000      0.000
REMARK  Name = 
REMARK  4 active torsions:
REMARK  status: ('A' for Active; 'I' for Inactive)
REMARK    1  A    between atoms: C_2  and  C_3
REMARK    2  A    between atoms: C_6  and  C_7
REMARK    3  A    between atoms: C_7  and  N_8
REMARK    4  A    between atoms: N_23  and  C_24
REMARK                            x       y       z     vdW  Elec       q    Type
REMARK                         _______ _______ _______ _____ _____    ______ ____
ROOT
ATOM      1  C   UNL     1       1.549   9.338  19.203  0.00  0.00    +0.000 A 
ATOM      2  C   UNL     1       1.545   8.683  20.438  0.00  0.00    +0.000 A 
ATOM      3  C   UNL     1       1.848   7.325  20.509  0.00  0.00    +0.000 A 
ATOM      4  C   UNL     1       2.267   6.620  19.373  0.00  0.00    +0.000 A 
ATOM      5  C   UNL     1       2.405   7.319  18.164  0.00  0.00    +0.000 A 
ATOM      6  C   UNL     1       2.042   8.668  18.078  0.00  0.00    +0.000 A 
ENDROOT
BRANCH   1   8
ATOM      7  O   UNL     1       1.838  11.628  18.837  0.00  0.00    +0.000 OA
ATOM      8  C   UNL     1       1.025  10.731  19.051  0.00  0.00    +0.000 C 
ATOM      9  N   UNL     1      -0.355  10.947  19.089  0.00  0.00    +0.000 N 
ATOM     10  C   UNL     1      -0.881  12.323  18.983  0.00  0.00    +0.000 C 
ATOM     11  C   UNL     1      -2.036  12.432  17.969  0.00  0.00    +0.000 C 
ATOM     12  N   UNL     1      -3.072  11.405  18.208  0.00  0.00    +0.000 N 
ATOM     13  C   UNL     1      -2.545  10.030  18.263  0.00  0.00    +0.000 C 
ATOM     14  C   UNL     1      -1.403   9.931  19.282  0.00  0.00    +0.000 C 
BRANCH  12  15
ATOM     15  C   UNL     1      -4.387  11.662  18.498  0.00  0.00    +0.000 A 
ATOM     16  C   UNL     1      -4.749  12.465  19.596  0.00  0.00    +0.000 A 
ATOM     17  C   UNL     1      -6.085  12.751  19.903  0.00  0.00    +0.000 A 
ATOM     18  C   UNL     1      -7.102  12.235  19.112  0.00  0.00    +0.000 A 
ATOM     19  C   UNL     1      -6.776  11.428  18.027  0.00  0.00    +0.000 A 
ATOM     20  C   UNL     1      -5.437  11.144  17.730  0.00  0.00    +0.000 A 
ENDBRANCH  12  15
ENDBRANCH   1   8
BRANCH   4  21
ATOM     21  C   UNL     1       2.628   5.153  19.493  0.00  0.00    +0.000 C 
BRANCH  21  22
ATOM     22  N   UNL     1       3.886   4.715  18.906  0.00  0.00    +0.000 NA
ATOM     23  C   UNL     1       5.048   5.578  19.091  0.00  0.00    +0.000 C 
ATOM     24  C   UNL     1       6.337   4.777  18.752  0.00  0.00    +0.000 C 
ATOM     25  C   UNL     1       6.283   4.408  17.287  0.00  0.00    +0.000 A 
ATOM     26  C   UNL     1       7.430   4.385  16.499  0.00  0.00    +0.000 A 
ATOM     27  C   UNL     1       7.309   4.698  15.150  0.00  0.00    +0.000 A 
ATOM     28  C   UNL     1       6.055   5.009  14.619  0.00  0.00    +0.000 A 
ATOM     29  C   UNL     1       4.898   4.809  15.376  0.00  0.00    +0.000 A 
ATOM     30  C   UNL     1       5.007   4.409  16.703  0.00  0.00    +0.000 A 
ATOM     31  C   UNL     1       3.820   4.082  17.588  0.00  0.00    +0.000 C 
ENDBRANCH  21  22
ENDBRANCH   4  21
TORSDOF 4
ENDMDL
MODEL 2
REMARK VINA RESULT:      -8.0      6.814     10.068
REMARK  Name = 
REMARK  4 active torsions:
REMARK  status: ('A' for Active; 'I' for Inactive)
REMARK    1  A    between atoms: C_2  and  C_3
REMARK    2  A    between atoms: C_6  and  C_7
REMARK    3  A    between atoms: C_7  and  N_8
REMARK    4  A    between atoms: N_23  and  C_24
REMARK                            x       y       z     vdW  Elec       q    Type
REMARK                         _______ _______ _______ _____ _____    ______ ____
ROOT
ATOM      1  C   UNL     1       7.524   7.550  17.563  0.00  0.00    +0.000 A 
ATOM      2  C   UNL     1       8.253   7.309  18.730  0.00  0.00    +0.000 A 
ATOM      3  C   UNL     1       9.010   8.328  19.305  0.00  0.00    +0.000 A 
ATOM      4  C   UNL     1       8.967   9.632  18.794  0.00  0.00    +0.000 A 
ATOM      5  C   UNL     1       8.121   9.898  17.706  0.00  0.00    +0.000 A 
ATOM      6  C   UNL     1       7.409   8.862  17.090  0.00  0.00    +0.000 A 
ENDROOT
BRANCH   1   8
ATOM      7  O   UNL     1       7.411   6.081  15.748  0.00  0.00    +0.000 OA
ATOM      8  C   UNL     1       6.877   6.440  16.797  0.00  0.00    +0.000 C 
ATOM      9  N   UNL     1       5.746   5.815  17.328  0.00  0.00    +0.000 N 
ATOM     10  C   UNL     1       5.074   4.747  16.560  0.00  0.00    +0.000 C 
ATOM     11  C   UNL     1       4.769   3.509  17.424  0.00  0.00    +0.000 C 
ATOM     12  N   UNL     1       4.081   3.874  18.681  0.00  0.00    +0.000 N 
ATOM     13  C   UNL     1       4.783   4.905  19.465  0.00  0.00    +0.000 C 
ATOM     14  C   UNL     1       5.074   6.137  18.598  0.00  0.00    +0.000 C 
BRANCH  12  15
ATOM     15  C   UNL     1       2.839   3.433  19.058  0.00  0.00    +0.000 A 
ATOM     16  C   UNL     1       2.318   3.721  20.334  0.00  0.00    +0.000 A 
ATOM     17  C   UNL     1       1.047   3.292  20.735  0.00  0.00    +0.000 A 
ATOM     18  C   UNL     1       0.258   2.557  19.861  0.00  0.00    +0.000 A 
ATOM     19  C   UNL     1       0.750   2.247  18.598  0.00  0.00    +0.000 A 
ATOM     20  C   UNL     1       2.024   2.677  18.208  0.00  0.00    +0.000 A 
ENDBRANCH  12  15
ENDBRANCH   1   8
BRANCH   4  21
ATOM     21  C   UNL     1       9.770  10.727  19.467  0.00  0.00    +0.000 C 
BRANCH  21  22
ATOM     22  N   UNL     1      10.066  11.923  18.692  0.00  0.00    +0.000 NA
ATOM     23  C   UNL     1      11.298  11.927  17.909  0.00  0.00    +0.000 C 
ATOM     24  C   UNL     1      11.239  13.085  16.873  0.00  0.00    +0.000 C 
ATOM     25  C   UNL     1      11.190  14.389  17.637  0.00  0.00    +0.000 A 
ATOM     26  C   UNL     1      11.840  15.530  17.172  0.00  0.00    +0.000 A 
ATOM     27  C   UNL     1      12.333  16.434  18.106  0.00  0.00    +0.000 A 
ATOM     28  C   UNL     1      12.156  16.189  19.470  0.00  0.00    +0.000 A 
ATOM     29  C   UNL     1      11.314  15.160  19.900  0.00  0.00    +0.000 A 
ATOM     30  C   UNL     1      10.744  14.304  18.965  0.00  0.00    +0.000 A 
ATOM     31  C   UNL     1       9.751  13.211  19.311  0.00  0.00    +0.000 C 
ENDBRANCH  21  22
ENDBRANCH   4  21
TORSDOF 4
ENDMDL
MODEL 3
REMARK VINA RESULT:      -8.0      2.164      3.594
REMARK  Name = 
REMARK  4 active torsions:
REMARK  status: ('A' for Active; 'I' for Inactive)
REMARK    1  A    between atoms: C_2  and  C_3
REMARK    2  A    between atoms: C_6  and  C_7
REMARK    3  A    between atoms: C_7  and  N_8
REMARK    4  A    between atoms: N_23  and  C_24
REMARK                            x       y       z     vdW  Elec       q    Type
REMARK                         _______ _______ _______ _____ _____    ______ ____
ROOT
ATOM      1  C   UNL     1       1.010   9.999  19.657  0.00  0.00    +0.000 A 
ATOM      2  C   UNL     1       1.407  10.207  18.333  0.00  0.00    +0.000 A 
ATOM      3  C   UNL     1       2.219   9.273  17.692  0.00  0.00    +0.000 A 
ATOM      4  C   UNL     1       2.560   8.066  18.318  0.00  0.00    +0.000 A 
ATOM      5  C   UNL     1       2.040   7.803  19.594  0.00  0.00    +0.000 A 
ATOM      6  C   UNL     1       1.275   8.766  20.263  0.00  0.00    +0.000 A 
ENDROOT
BRANCH   1   8
ATOM      7  O   UNL     1       1.016  11.766  21.187  0.00  0.00    +0.000 OA
ATOM      8  C   UNL     1       0.324  11.068  20.448  0.00  0.00    +0.000 C 
ATOM      9  N   UNL     1      -1.046  11.275  20.268  0.00  0.00    +0.000 N 
ATOM     10  C   UNL     1      -1.741  12.298  21.075  0.00  0.00    +0.000 C 
ATOM     11  C   UNL     1      -2.643  13.206  20.218  0.00  0.00    +0.000 C 
ATOM     12  N   UNL     1      -3.536  12.419  19.339  0.00  0.00    +0.000 N 
ATOM     13  C   UNL     1      -2.828  11.435  18.502  0.00  0.00    +0.000 C 
ATOM     14  C   UNL     1      -1.940  10.530  19.367  0.00  0.00    +0.000 C 
BRANCH  12  15
ATOM     15  C   UNL     1      -4.905  12.460  19.365  0.00  0.00    +0.000 A 
ATOM     16  C   UNL     1      -5.676  11.716  18.451  0.00  0.00    +0.000 A 
ATOM     17  C   UNL     1      -7.076  11.733  18.468  0.00  0.00    +0.000 A 
ATOM     18  C   UNL     1      -7.746  12.502  19.409  0.00  0.00    +0.000 A 
ATOM     19  C   UNL     1      -7.013  13.257  20.318  0.00  0.00    +0.000 A 
ATOM     20  C   UNL     1      -5.613  13.237  20.290  0.00  0.00    +0.000 A 
ENDBRANCH  12  15
ENDBRANCH   1   8
BRANCH   4  21
ATOM     21  C   UNL     1       3.412   7.054  17.578  0.00  0.00    +0.000 C 
BRANCH  21  22
ATOM     22  N   UNL     1       3.278   5.654  17.954  0.00  0.00    +0.000 NA
ATOM     23  C   UNL     1       2.056   4.965  17.552  0.00  0.00    +0.000 C 
ATOM     24  C   UNL     1       2.267   3.431  17.687  0.00  0.00    +0.000 C 
ATOM     25  C   UNL     1       2.496   3.120  19.149  0.00  0.00    +0.000 A 
ATOM     26  C   UNL     1       2.006   1.954  19.731  0.00  0.00    +0.000 A 
ATOM     27  C   UNL     1       1.643   1.990  21.073  0.00  0.00    +0.000 A 
ATOM     28  C   UNL     1       1.790   3.173  21.801  0.00  0.00    +0.000 A 
ATOM     29  C   UNL     1       2.486   4.255  21.257  0.00  0.00    +0.000 A 
ATOM     30  C   UNL     1       2.931   4.194  19.942  0.00  0.00    +0.000 A 
ATOM     31  C   UNL     1       3.767   5.272  19.280  0.00  0.00    +0.000 C 
ENDBRANCH  21  22
ENDBRANCH   4  21
TORSDOF 4
ENDMDL
MODEL 4
REMARK VINA RESULT:      -8.0      1.239      1.557
REMARK  Name = 
REMARK  4 active torsions:
REMARK  status: ('A' for Active; 'I' for Inactive)
REMARK    1  A    between atoms: C_2  and  C_3
REMARK    2  A    between atoms: C_6  and  C_7
REMARK    3  A    between atoms: C_7  and  N_8
REMARK    4  A    between atoms: N_23  and  C_24
REMARK                            x       y       z     vdW  Elec       q    Type
REMARK                         _______ _______ _______ _____ _____    ______ ____
ROOT
ATOM      1  C   UNL     1       1.292   9.240  19.876  0.00  0.00    +0.000 A 
ATOM      2  C   UNL     1       1.594   8.118  20.654  0.00  0.00    +0.000 A 
ATOM      3  C   UNL     1       1.982   6.928  20.042  0.00  0.00    +0.000 A 
ATOM      4  C   UNL     1       2.183   6.862  18.656  0.00  0.00    +0.000 A 
ATOM      5  C   UNL     1       2.014   8.031  17.900  0.00  0.00    +0.000 A 
ATOM      6  C   UNL     1       1.565   9.212  18.504  0.00  0.00    +0.000 A 
ENDROOT
BRANCH   1   8
ATOM      7  O   UNL     1       1.384  11.195  21.153  0.00  0.00    +0.000 OA
ATOM      8  C   UNL     1       0.669  10.463  20.471  0.00  0.00    +0.000 C 
ATOM      9  N   UNL     1      -0.664  10.760  20.176  0.00  0.00    +0.000 N 
ATOM     10  C   UNL     1      -1.301  11.941  20.792  0.00  0.00    +0.000 C 
ATOM     11  C   UNL     1      -2.068  12.795  19.764  0.00  0.00    +0.000 C 
ATOM     12  N   UNL     1      -2.983  11.974  18.943  0.00  0.00    +0.000 N 
ATOM     13  C   UNL     1      -2.328  10.825  18.293  0.00  0.00    +0.000 C 
ATOM     14  C   UNL     1      -1.576   9.977  19.326  0.00  0.00    +0.000 C 
BRANCH  12  15
ATOM     15  C   UNL     1      -4.342  12.135  18.874  0.00  0.00    +0.000 A 
ATOM     16  C   UNL     1      -5.063  11.780  17.718  0.00  0.00    +0.000 A 
ATOM     17  C   UNL     1      -6.453  11.924  17.631  0.00  0.00    +0.000 A 
ATOM     18  C   UNL     1      -7.164  12.432  18.709  0.00  0.00    +0.000 A 
ATOM     19  C   UNL     1      -6.479  12.803  19.862  0.00  0.00    +0.000 A 
ATOM     20  C   UNL     1      -5.088  12.659  19.937  0.00  0.00    +0.000 A 
ENDBRANCH  12  15
ENDBRANCH   1   8
BRANCH   4  21
ATOM     21  C   UNL     1       2.644   5.563  18.027  0.00  0.00    +0.000 C 
BRANCH  21  22
ATOM     22  N   UNL     1       4.018   5.491  17.554  0.00  0.00    +0.000 NA
ATOM     23  C   UNL     1       4.584   6.694  16.953  0.00  0.00    +0.000 C 
ATOM     24  C   UNL     1       6.131   6.549  16.879  0.00  0.00    +0.000 C 
ATOM     25  C   UNL     1       6.444   5.396  15.952  0.00  0.00    +0.000 A 
ATOM     26  C   UNL     1       7.548   5.424  15.103  0.00  0.00    +0.000 A 
ATOM     27  C   UNL     1       7.459   4.758  13.886  0.00  0.00    +0.000 A 
ATOM     28  C   UNL     1       6.288   4.073  13.552  0.00  0.00    +0.000 A 
ATOM     29  C   UNL     1       5.289   3.875  14.509  0.00  0.00    +0.000 A 
ATOM     30  C   UNL     1       5.411   4.466  15.761  0.00  0.00    +0.000 A 
ATOM     31  C   UNL     1       4.432   4.249  16.899  0.00  0.00    +0.000 C 
ENDBRANCH  21  22
ENDBRANCH   4  21
TORSDOF 4
ENDMDL
MODEL 5
REMARK VINA RESULT:      -7.9      3.234      4.050
REMARK  Name = 
REMARK  4 active torsions:
REMARK  status: ('A' for Active; 'I' for Inactive)
REMARK    1  A    between atoms: C_2  and  C_3
REMARK    2  A    between atoms: C_6  and  C_7
REMARK    3  A    between atoms: C_7  and  N_8
REMARK    4  A    between atoms: N_23  and  C_24
REMARK                            x       y       z     vdW  Elec       q    Type
REMARK                         _______ _______ _______ _____ _____    ______ ____
ROOT
ATOM      1  C   UNL     1       0.131   9.850  19.519  0.00  0.00    +0.000 A 
ATOM      2  C   UNL     1       0.308   9.102  20.686  0.00  0.00    +0.000 A 
ATOM      3  C   UNL     1       1.201   8.032  20.702  0.00  0.00    +0.000 A 
ATOM      4  C   UNL     1       2.013   7.755  19.594  0.00  0.00    +0.000 A 
ATOM      5  C   UNL     1       1.929   8.599  18.476  0.00  0.00    +0.000 A 
ATOM      6  C   UNL     1       0.990   9.636  18.436  0.00  0.00    +0.000 A 
ENDROOT
BRANCH   1   8
ATOM      7  O   UNL     1      -1.695  10.793  18.406  0.00  0.00    +0.000 OA
ATOM      8  C   UNL     1      -0.964  10.862  19.393  0.00  0.00    +0.000 C 
ATOM      9  N   UNL     1      -1.155  11.790  20.419  0.00  0.00    +0.000 N 
ATOM     10  C   UNL     1      -2.205  12.819  20.285  0.00  0.00    +0.000 C 
ATOM     11  C   UNL     1      -3.073  12.939  21.553  0.00  0.00    +0.000 C 
ATOM     12  N   UNL     1      -2.246  13.073  22.772  0.00  0.00    +0.000 N 
ATOM     13  C   UNL     1      -1.233  12.014  22.922  0.00  0.00    +0.000 C 
ATOM     14  C   UNL     1      -0.370  11.910  21.659  0.00  0.00    +0.000 C 
BRANCH  12  15
ATOM     15  C   UNL     1      -2.280  14.137  23.635  0.00  0.00    +0.000 A 
ATOM     16  C   UNL     1      -1.100  14.793  24.033  0.00  0.00    +0.000 A 
ATOM     17  C   UNL     1      -1.112  15.890  24.904  0.00  0.00    +0.000 A 
ATOM     18  C   UNL     1      -2.318  16.361  25.403  0.00  0.00    +0.000 A 
ATOM     19  C   UNL     1      -3.500  15.726  25.038  0.00  0.00    +0.000 A 
ATOM     20  C   UNL     1      -3.477  14.628  24.171  0.00  0.00    +0.000 A 
ENDBRANCH  12  15
ENDBRANCH   1   8
BRANCH   4  21
ATOM     21  C   UNL     1       3.002   6.609  19.658  0.00  0.00    +0.000 C 
BRANCH  21  22
ATOM     22  N   UNL     1       3.349   5.944  18.411  0.00  0.00    +0.000 NA
ATOM     23  C   UNL     1       3.624   4.512  18.469  0.00  0.00    +0.000 C 
ATOM     24  C   UNL     1       3.581   3.926  17.029  0.00  0.00    +0.000 C 
ATOM     25  C   UNL     1       4.698   4.565  16.234  0.00  0.00    +0.000 A 
ATOM     26  C   UNL     1       5.413   3.848  15.279  0.00  0.00    +0.000 A 
ATOM     27  C   UNL     1       6.747   4.180  15.069  0.00  0.00    +0.000 A 
ATOM     28  C   UNL     1       7.327   5.220  15.799  0.00  0.00    +0.000 A 
ATOM     29  C   UNL     1       6.533   6.061  16.583  0.00  0.00    +0.000 A 
ATOM     30  C   UNL     1       5.178   5.787  16.728  0.00  0.00    +0.000 A 
ATOM     31  C   UNL     1       4.210   6.678  17.483  0.00  0.00    +0.000 C 
ENDBRANCH  21  22
ENDBRANCH   4  21
TORSDOF 4
ENDMDL
MODEL 6
REMARK VINA RESULT:      -7.9      2.980     10.513
REMARK  Name = 
REMARK  4 active torsions:
REMARK  status: ('A' for Active; 'I' for Inactive)
REMARK    1  A    between atoms: C_2  and  C_3
REMARK    2  A    between atoms: C_6  and  C_7
REMARK    3  A    between atoms: C_7  and  N_8
REMARK    4  A    between atoms: N_23  and  C_24
REMARK                            x       y       z     vdW  Elec       q    Type
REMARK                         _______ _______ _______ _____ _____    ______ ____
ROOT
ATOM      1  C   UNL     1       0.515  11.695  20.524  0.00  0.00    +0.000 A 
ATOM      2  C   UNL     1       0.612  13.077  20.712  0.00  0.00    +0.000 A 
ATOM      3  C   UNL     1      -0.152  13.704  21.695  0.00  0.00    +0.000 A 
ATOM      4  C   UNL     1      -0.941  12.956  22.580  0.00  0.00    +0.000 A 
ATOM      5  C   UNL     1      -0.922  11.557  22.474  0.00  0.00    +0.000 A 
ATOM      6  C   UNL     1      -0.203  10.930  21.449  0.00  0.00    +0.000 A 
ENDROOT
BRANCH   1   8
ATOM      7  O   UNL     1       1.673  11.726  18.494  0.00  0.00    +0.000 OA
ATOM      8  C   UNL     1       1.147  11.016  19.350  0.00  0.00    +0.000 C 
ATOM      9  N   UNL     1       1.175   9.620  19.305  0.00  0.00    +0.000 N 
ATOM     10  C   UNL     1       1.757   8.940  18.131  0.00  0.00    +0.000 C 
ATOM     11  C   UNL     1       2.734   7.817  18.529  0.00  0.00    +0.000 C 
ATOM     12  N   UNL     1       2.137   6.900  19.524  0.00  0.00    +0.000 N 
ATOM     13  C   UNL     1       1.602   7.583  20.716  0.00  0.00    +0.000 C 
ATOM     14  C   UNL     1       0.625   8.693  20.307  0.00  0.00    +0.000 C 
BRANCH  12  15
ATOM     15  C   UNL     1       1.944   5.556  19.344  0.00  0.00    +0.000 A 
ATOM     16  C   UNL     1       1.482   4.736  20.391  0.00  0.00    +0.000 A 
ATOM     17  C   UNL     1       1.266   3.363  20.225  0.00  0.00    +0.000 A 
ATOM     18  C   UNL     1       1.509   2.769  18.994  0.00  0.00    +0.000 A 
ATOM     19  C   UNL     1       1.977   3.550  17.943  0.00  0.00    +0.000 A 
ATOM     20  C   UNL     1       2.194   4.922  18.121  0.00  0.00    +0.000 A 
ENDBRANCH  12  15
ENDBRANCH   1   8
BRANCH   4  21
ATOM     21  C   UNL     1      -1.728  13.665  23.663  0.00  0.00    +0.000 C 
BRANCH  21  22
ATOM     22  N   UNL     1      -3.180  13.611  23.589  0.00  0.00    +0.000 NA
ATOM     23  C   UNL     1      -3.848  12.516  24.286  0.00  0.00    +0.000 C 
ATOM     24  C   UNL     1      -5.361  12.845  24.423  0.00  0.00    +0.000 C 
ATOM     25  C   UNL     1      -5.949  12.914  23.031  0.00  0.00    +0.000 A 
ATOM     26  C   UNL     1      -7.238  12.462  22.763  0.00  0.00    +0.000 A 
ATOM     27  C   UNL     1      -7.500  11.931  21.505  0.00  0.00    +0.000 A 
ATOM     28  C   UNL     1      -6.485  11.879  20.547  0.00  0.00    +0.000 A 
ATOM     29  C   UNL     1      -5.272  12.538  20.766  0.00  0.00    +0.000 A 
ATOM     30  C   UNL     1      -5.035  13.149  21.992  0.00  0.00    +0.000 A 
ATOM     31  C   UNL     1      -3.794  13.961  22.307  0.00  0.00    +0.000 C 
ENDBRANCH  21  22
ENDBRANCH   4  21
TORSDOF 4
ENDMDL
MODEL 7
REMARK VINA RESULT:      -7.9      2.694      3.437
REMARK  Name = 
REMARK  4 active torsions:
REMARK  status: ('A' for Active; 'I' for Inactive)
REMARK    1  A    between atoms: C_2  and  C_3
REMARK    2  A    between atoms: C_6  and  C_7
REMARK    3  A    between atoms: C_7  and  N_8
REMARK    4  A    between atoms: N_23  and  C_24
REMARK                            x       y       z     vdW  Elec       q    Type
REMARK                         _______ _______ _______ _____ _____    ______ ____
ROOT
ATOM      1  C   UNL     1       1.128   8.961  19.411  0.00  0.00    +0.000 A 
ATOM      2  C   UNL     1       1.033   8.345  20.661  0.00  0.00    +0.000 A 
ATOM      3  C   UNL     1       1.593   7.085  20.864  0.00  0.00    +0.000 A 
ATOM      4  C   UNL     1       2.352   6.465  19.861  0.00  0.00    +0.000 A 
ATOM      5  C   UNL     1       2.560   7.154  18.657  0.00  0.00    +0.000 A 
ATOM      6  C   UNL     1       1.948   8.392  18.431  0.00  0.00    +0.000 A 
ENDROOT
BRANCH   1   8
ATOM      7  O   UNL     1       0.082  10.416  17.909  0.00  0.00    +0.000 OA
ATOM      8  C   UNL     1       0.362  10.206  19.088  0.00  0.00    +0.000 C 
ATOM      9  N   UNL     1      -0.058  11.035  20.131  0.00  0.00    +0.000 N 
ATOM     10  C   UNL     1      -0.777  12.288  19.821  0.00  0.00    +0.000 C 
ATOM     11  C   UNL     1      -2.042  12.465  20.683  0.00  0.00    +0.000 C 
ATOM     12  N   UNL     1      -1.756  12.272  22.121  0.00  0.00    +0.000 N 
ATOM     13  C   UNL     1      -1.083  10.997  22.427  0.00  0.00    +0.000 C 
ATOM     14  C   UNL     1       0.180  10.835  21.570  0.00  0.00    +0.000 C 
BRANCH  12  15
ATOM     15  C   UNL     1      -1.947  13.213  23.098  0.00  0.00    +0.000 A 
ATOM     16  C   UNL     1      -3.135  13.255  23.852  0.00  0.00    +0.000 A 
ATOM     17  C   UNL     1      -3.345  14.201  24.863  0.00  0.00    +0.000 A 
ATOM     18  C   UNL     1      -2.361  15.137  25.149  0.00  0.00    +0.000 A 
ATOM     19  C   UNL     1      -1.180  15.129  24.414  0.00  0.00    +0.000 A 
ATOM     20  C   UNL     1      -0.982  14.182  23.401  0.00  0.00    +0.000 A 
ENDBRANCH  12  15
ENDBRANCH   1   8
BRANCH   4  21
ATOM     21  C   UNL     1       2.982   5.112  20.128  0.00  0.00    +0.000 C 
BRANCH  21  22
ATOM     22  N   UNL     1       4.201   4.780  19.406  0.00  0.00    +0.000 NA
ATOM     23  C   UNL     1       5.209   5.827  19.274  0.00  0.00    +0.000 C 
ATOM     24  C   UNL     1       6.557   5.186  18.841  0.00  0.00    +0.000 C 
ATOM     25  C   UNL     1       6.362   4.578  17.470  0.00  0.00    +0.000 A 
ATOM     26  C   UNL     1       7.374   4.600  16.514  0.00  0.00    +0.000 A 
ATOM     27  C   UNL     1       7.011   4.666  15.173  0.00  0.00    +0.000 A 
ATOM     28  C   UNL     1       5.659   4.693  14.819  0.00  0.00    +0.000 A 
ATOM     29  C   UNL     1       4.673   4.447  15.778  0.00  0.00    +0.000 A 
ATOM     30  C   UNL     1       5.036   4.291  17.111  0.00  0.00    +0.000 A 
ATOM     31  C   UNL     1       4.062   3.937  18.218  0.00  0.00    +0.000 C 
ENDBRANCH  21  22
ENDBRANCH   4  21
TORSDOF 4
ENDMDL
MODEL 8
REMARK VINA RESULT:      -7.8      3.441      5.116
REMARK  Name = 
REMARK  4 active torsions:
REMARK  status: ('A' for Active; 'I' for Inactive)
REMARK    1  A    between atoms: C_2  and  C_3
REMARK    2  A    between atoms: C_6  and  C_7
REMARK    3  A    between atoms: C_7  and  N_8
REMARK    4  A    between atoms: N_23  and  C_24
REMARK                            x       y       z     vdW  Elec       q    Type
REMARK                         _______ _______ _______ _____ _____    ______ ____
ROOT
ATOM      1  C   UNL     1      -0.021  10.082  19.055  0.00  0.00    +0.000 A 
ATOM      2  C   UNL     1       0.542   9.302  20.068  0.00  0.00    +0.000 A 
ATOM      3  C   UNL     1       1.618   8.462  19.788  0.00  0.00    +0.000 A 
ATOM      4  C   UNL     1       2.222   8.464  18.523  0.00  0.00    +0.000 A 
ATOM      5  C   UNL     1       1.739   9.353  17.552  0.00  0.00    +0.000 A 
ATOM      6  C   UNL     1       0.621  10.154  17.814  0.00  0.00    +0.000 A 
ENDROOT
BRANCH   1   8
ATOM      7  O   UNL     1      -2.253  10.540  18.534  0.00  0.00    +0.000 OA
ATOM      8  C   UNL     1      -1.301  10.829  19.258  0.00  0.00    +0.000 C 
ATOM      9  N   UNL     1      -1.387  11.764  20.292  0.00  0.00    +0.000 N 
ATOM     10  C   UNL     1      -2.632  12.538  20.474  0.00  0.00    +0.000 C 
ATOM     11  C   UNL     1      -3.098  12.559  21.942  0.00  0.00    +0.000 C 
ATOM     12  N   UNL     1      -2.005  12.949  22.858  0.00  0.00    +0.000 N 
ATOM     13  C   UNL     1      -0.783  12.140  22.703  0.00  0.00    +0.000 C 
ATOM     14  C   UNL     1      -0.323  12.133  21.240  0.00  0.00    +0.000 C 
BRANCH  12  15
ATOM     15  C   UNL     1      -2.020  14.039  23.689  0.00  0.00    +0.000 A 
ATOM     16  C   UNL     1      -0.938  14.937  23.738  0.00  0.00    +0.000 A 
ATOM     17  C   UNL     1      -0.939  16.063  24.570  0.00  0.00    +0.000 A 
ATOM     18  C   UNL     1      -2.035  16.322  25.381  0.00  0.00    +0.000 A 
ATOM     19  C   UNL     1      -3.115  15.446  25.364  0.00  0.00    +0.000 A 
ATOM     20  C   UNL     1      -3.103  14.320  24.532  0.00  0.00    +0.000 A 
ENDBRANCH  12  15
ENDBRANCH   1   8
BRANCH   4  21
ATOM     21  C   UNL     1       3.416   7.567  18.262  0.00  0.00    +0.000 C 
BRANCH  21  22
ATOM     22  N   UNL     1       3.219   6.130  18.372  0.00  0.00    +0.000 NA
ATOM     23  C   UNL     1       1.969   5.583  17.855  0.00  0.00    +0.000 C 
ATOM     24  C   UNL     1       2.111   4.042  17.702  0.00  0.00    +0.000 C 
ATOM     25  C   UNL     1       2.320   3.455  19.080  0.00  0.00    +0.000 A 
ATOM     26  C   UNL     1       1.776   2.225  19.437  0.00  0.00    +0.000 A 
ATOM     27  C   UNL     1       1.410   2.026  20.764  0.00  0.00    +0.000 A 
ATOM     28  C   UNL     1       1.607   3.046  21.699  0.00  0.00    +0.000 A 
ATOM     29  C   UNL     1       2.353   4.178  21.362  0.00  0.00    +0.000 A 
ATOM     30  C   UNL     1       2.800   4.343  20.056  0.00  0.00    +0.000 A 
ATOM     31  C   UNL     1       3.685   5.487  19.602  0.00  0.00    +0.000 C 
ENDBRANCH  21  22
ENDBRANCH   4  21
TORSDOF 4
ENDMDL
MODEL 9
REMARK VINA RESULT:      -7.8      2.213      3.476
REMARK  Name = 
REMARK  4 active torsions:
REMARK  status: ('A' for Active; 'I' for Inactive)
REMARK    1  A    between atoms: C_2  and  C_3
REMARK    2  A    between atoms: C_6  and  C_7
REMARK    3  A    between atoms: C_7  and  N_8
REMARK    4  A    between atoms: N_23  and  C_24
REMARK                            x       y       z     vdW  Elec       q    Type
REMARK                         _______ _______ _______ _____ _____    ______ ____
ROOT
ATOM      1  C   UNL     1       1.137  10.075  19.948  0.00  0.00    +0.000 A 
ATOM      2  C   UNL     1       1.432   8.803  20.447  0.00  0.00    +0.000 A 
ATOM      3  C   UNL     1       2.019   7.847  19.620  0.00  0.00    +0.000 A 
ATOM      4  C   UNL     1       2.424   8.172  18.318  0.00  0.00    +0.000 A 
ATOM      5  C   UNL     1       2.253   9.491  17.873  0.00  0.00    +0.000 A 
ATOM      6  C   UNL     1       1.608  10.436  18.681  0.00  0.00    +0.000 A 
ENDROOT
BRANCH   1   8
ATOM      7  O   UNL     1       0.889  11.721  21.589  0.00  0.00    +0.000 OA
ATOM      8  C   UNL     1       0.318  11.054  20.727  0.00  0.00    +0.000 C 
ATOM      9  N   UNL     1      -1.031  11.221  20.406  0.00  0.00    +0.000 N 
ATOM     10  C   UNL     1      -1.860  12.153  21.197  0.00  0.00    +0.000 C 
ATOM     11  C   UNL     1      -2.702  13.087  20.307  0.00  0.00    +0.000 C 
ATOM     12  N   UNL     1      -3.453  12.335  19.279  0.00  0.00    +0.000 N 
ATOM     13  C   UNL     1      -2.610  11.444  18.462  0.00  0.00    +0.000 C 
ATOM     14  C   UNL     1      -1.784  10.512  19.357  0.00  0.00    +0.000 C 
BRANCH  12  15
ATOM     15  C   UNL     1      -4.817  12.321  19.150  0.00  0.00    +0.000 A 
ATOM     16  C   UNL     1      -5.631  13.204  19.884  0.00  0.00    +0.000 A 
ATOM     17  C   UNL     1      -7.025  13.215  19.757  0.00  0.00    +0.000 A 
ATOM     18  C   UNL     1      -7.646  12.334  18.883  0.00  0.00    +0.000 A 
ATOM     19  C   UNL     1      -6.870  11.441  18.151  0.00  0.00    +0.000 A 
ATOM     20  C   UNL     1      -5.476  11.435  18.289  0.00  0.00    +0.000 A 
ENDBRANCH  12  15
ENDBRANCH   1   8
BRANCH   4  21
ATOM     21  C   UNL     1       3.097   7.120  17.459  0.00  0.00    +0.000 C 
BRANCH  21  22
ATOM     22  N   UNL     1       2.948   5.728  17.855  0.00  0.00    +0.000 NA
ATOM     23  C   UNL     1       1.644   5.107  17.648  0.00  0.00    +0.000 C 
ATOM     24  C   UNL     1       1.791   3.562  17.753  0.00  0.00    +0.000 C 
ATOM     25  C   UNL     1       2.225   3.232  19.163  0.00  0.00    +0.000 A 
ATOM     26  C   UNL     1       1.769   2.091  19.817  0.00  0.00    +0.000 A 
ATOM     27  C   UNL     1       1.620   2.138  21.198  0.00  0.00    +0.000 A 
ATOM     28  C   UNL     1       1.940   3.307  21.892  0.00  0.00    +0.000 A 
ATOM     29  C   UNL     1       2.601   4.355  21.244  0.00  0.00    +0.000 A 
ATOM     30  C   UNL     1       2.834   4.277  19.876  0.00  0.00    +0.000 A 
ATOM     31  C   UNL     1       3.614   5.312  19.090  0.00  0.00    +0.000 C 
ENDBRANCH  21  22
ENDBRANCH   4  21
TORSDOF 4
ENDMDL
