MODEL 1
REMARK VINA RESULT:      -8.5      0.000      0.000
REMARK  Name = 
REMARK  9 active torsions:
REMARK  status: ('A' for Active; 'I' for Inactive)
REMARK    1  A    between atoms: C_1  and  O_2
REMARK    2  A    between atoms: O_2  and  C_3
REMARK    3  A    between atoms: C_5  and  N_6
REMARK    4  A    between atoms: C_7  and  C_9
REMARK    5  A    between atoms: C_9  and  C_10
REMARK    6  A    between atoms: C_10  and  C_11
REMARK    7  A    between atoms: C_21  and  C_22
REMARK    8  A    between atoms: C_28  and  O_29
REMARK    9  A    between atoms: O_29  and  C_30
REMARK                            x       y       z     vdW  Elec       q    Type
REMARK                         _______ _______ _______ _____ _____    ______ ____
ROOT
ATOM      1  C   UNL     1       9.135   9.696  19.064  0.00  0.00    +0.000 C 
ENDROOT
BRANCH   1   2
ATOM      2  C   UNL     1       9.890  10.973  18.982  0.00  0.00    +0.000 A 
ATOM      3  N   UNL     1      10.737  11.326  18.033  0.00  0.00    +0.000 NA
ATOM      4  N   UNL     1      11.227  12.575  18.340  0.00  0.00    +0.000 NA
ATOM      5  C   UNL     1      10.664  12.959  19.464  0.00  0.00    +0.000 A 
ATOM      6  C   UNL     1      10.759  14.136  20.227  0.00  0.00    +0.000 A 
ATOM      7  C   UNL     1      10.025  14.243  21.339  0.00  0.00    +0.000 A 
ATOM      8  C   UNL     1       9.169  13.079  21.770  0.00  0.00    +0.000 A 
ATOM      9  N   UNL     1       8.504  13.177  22.980  0.00  0.00    +0.000 N 
ATOM     10  C   UNL     1       7.548  14.254  23.244  0.00  0.00    +0.000 C 
ATOM     11  C   UNL     1       7.657  14.678  24.709  0.00  0.00    +0.000 C 
ATOM     12  C   UNL     1       7.504  13.481  25.663  0.00  0.00    +0.000 C 
ATOM     13  C   UNL     1       7.769  13.903  27.106  0.00  0.00    +0.000 C 
ATOM     14  C   UNL     1       8.446  12.337  25.253  0.00  0.00    +0.000 C 
ATOM     15  C   UNL     1       8.264  11.974  23.780  0.00  0.00    +0.000 C 
ATOM     16  N   UNL     1       9.083  11.976  21.073  0.00  0.00    +0.000 NA
ATOM     17  N   UNL     1       9.824  11.970  19.929  0.00  0.00    +0.000 N 
ENDBRANCH   1   2
BRANCH   1  18
ATOM     18  C   UNL     1       8.237   9.464  17.856  0.00  0.00    +0.000 C 
BRANCH  18  20
ATOM     19  N   UNL     1       6.721   7.786  16.967  0.00  0.00    +0.000 N 
ATOM     20  C   UNL     1       7.738   8.034  17.871  0.00  0.00    +0.000 C 
ATOM     21  O   UNL     1       8.284   7.216  18.604  0.00  0.00    +0.000 OA
ATOM     22  H   UNL     1       6.467   8.526  16.325  0.00  0.00    +0.000 HD
BRANCH  19  25
ATOM     23  C   UNL     1       5.743   4.363  15.799  0.00  0.00    +0.000 A 
ATOM     24  C   UNL     1       6.433   5.573  15.904  0.00  0.00    +0.000 A 
ATOM     25  C   UNL     1       6.035   6.559  16.809  0.00  0.00    +0.000 A 
ATOM     26  C   UNL     1       4.916   6.310  17.617  0.00  0.00    +0.000 A 
ATOM     27  C   UNL     1       4.213   5.102  17.518  0.00  0.00    +0.000 A 
ATOM     28  C   UNL     1       4.625   4.132  16.605  0.00  0.00    +0.000 A 
BRANCH  23  30
ATOM     29  C   UNL     1       6.105   3.813  13.513  0.00  0.00    +0.000 C 
ATOM     30  O   UNL     1       6.265   3.489  14.887  0.00  0.00    +0.000 OA
ENDBRANCH  23  30
BRANCH  27  31
ATOM     31  O   UNL     1       3.144   4.983  18.369  0.00  0.00    +0.000 OA
ATOM     32  C   UNL     1       1.945   4.436  17.824  0.00  0.00    +0.000 C 
ENDBRANCH  27  31
ENDBRANCH  19  25
ENDBRANCH  18  20
ENDBRANCH   1  18
TORSDOF 6
ENDMDL
MODEL 2
REMARK VINA RESULT:      -8.5      0.340      2.214
REMARK  Name = 
REMARK  9 active torsions:
REMARK  status: ('A' for Active; 'I' for Inactive)
REMARK    1  A    between atoms: C_1  and  O_2
REMARK    2  A    between atoms: O_2  and  C_3
REMARK    3  A    between atoms: C_5  and  N_6
REMARK    4  A    between atoms: C_7  and  C_9
REMARK    5  A    between atoms: C_9  and  C_10
REMARK    6  A    between atoms: C_10  and  C_11
REMARK    7  A    between atoms: C_21  and  C_22
REMARK    8  A    between atoms: C_28  and  O_29
REMARK    9  A    between atoms: O_29  and  C_30
REMARK                            x       y       z     vdW  Elec       q    Type
REMARK                         _______ _______ _______ _____ _____    ______ ____
ROOT
ATOM      1  C   UNL     1       9.012   9.678  19.051  0.00  0.00    +0.000 C 
ENDROOT
BRANCH   1   2
ATOM      2  C   UNL     1       9.805  10.931  18.956  0.00  0.00    +0.000 A 
ATOM      3  N   UNL     1      10.648  11.256  17.994  0.00  0.00    +0.000 NA
ATOM      4  N   UNL     1      11.181  12.490  18.292  0.00  0.00    +0.000 NA
ATOM      5  C   UNL     1      10.646  12.893  19.423  0.00  0.00    +0.000 A 
ATOM      6  C   UNL     1      10.788  14.068  20.182  0.00  0.00    +0.000 A 
ATOM      7  C   UNL     1      10.074  14.198  21.304  0.00  0.00    +0.000 A 
ATOM      8  C   UNL     1       9.189  13.063  21.749  0.00  0.00    +0.000 A 
ATOM      9  N   UNL     1       8.544  13.183  22.968  0.00  0.00    +0.000 N 
ATOM     10  C   UNL     1       7.626  14.289  23.244  0.00  0.00    +0.000 C 
ATOM     11  C   UNL     1       7.768  14.712  24.706  0.00  0.00    +0.000 C 
ATOM     12  C   UNL     1       7.592  13.522  25.664  0.00  0.00    +0.000 C 
ATOM     13  C   UNL     1       7.890  13.938  27.103  0.00  0.00    +0.000 C 
ATOM     14  C   UNL     1       8.493  12.349  25.244  0.00  0.00    +0.000 C 
ATOM     15  C   UNL     1       8.279  11.989  23.774  0.00  0.00    +0.000 C 
ATOM     16  N   UNL     1       9.059  11.961  21.056  0.00  0.00    +0.000 NA
ATOM     17  N   UNL     1       9.784  11.931  19.901  0.00  0.00    +0.000 N 
ENDBRANCH   1   2
BRANCH   1  18
ATOM     18  C   UNL     1       8.271   9.350  17.761  0.00  0.00    +0.000 C 
BRANCH  18  20
ATOM     19  N   UNL     1       6.659   7.705  16.987  0.00  0.00    +0.000 N 
ATOM     20  C   UNL     1       7.716   7.943  17.848  0.00  0.00    +0.000 C 
ATOM     21  O   UNL     1       8.252   7.131  18.594  0.00  0.00    +0.000 OA
ATOM     22  H   UNL     1       6.414   8.431  16.326  0.00  0.00    +0.000 HD
BRANCH  19  25
ATOM     23  C   UNL     1       4.055   5.064  17.518  0.00  0.00    +0.000 A 
ATOM     24  C   UNL     1       4.772   6.255  17.655  0.00  0.00    +0.000 A 
ATOM     25  C   UNL     1       5.919   6.502  16.899  0.00  0.00    +0.000 A 
ATOM     26  C   UNL     1       6.345   5.521  15.992  0.00  0.00    +0.000 A 
ATOM     27  C   UNL     1       5.637   4.320  15.848  0.00  0.00    +0.000 A 
ATOM     28  C   UNL     1       4.496   4.092  16.616  0.00  0.00    +0.000 A 
BRANCH  23  30
ATOM     29  C   UNL     1       2.886   3.899  19.231  0.00  0.00    +0.000 C 
ATOM     30  O   UNL     1       2.942   4.977  18.307  0.00  0.00    +0.000 OA
ENDBRANCH  23  30
BRANCH  27  31
ATOM     31  O   UNL     1       6.154   3.449  14.924  0.00  0.00    +0.000 OA
ATOM     32  C   UNL     1       6.306   3.937  13.593  0.00  0.00    +0.000 C 
ENDBRANCH  27  31
ENDBRANCH  19  25
ENDBRANCH  18  20
ENDBRANCH   1  18
TORSDOF 6
ENDMDL
MODEL 3
REMARK VINA RESULT:      -8.2      7.139      9.036
REMARK  Name = 
REMARK  9 active torsions:
REMARK  status: ('A' for Active; 'I' for Inactive)
REMARK    1  A    between atoms: C_1  and  O_2
REMARK    2  A    between atoms: O_2  and  C_3
REMARK    3  A    between atoms: C_5  and  N_6
REMARK    4  A    between atoms: C_7  and  C_9
REMARK    5  A    between atoms: C_9  and  C_10
REMARK    6  A    between atoms: C_10  and  C_11
REMARK    7  A    between atoms: C_21  and  C_22
REMARK    8  A    between atoms: C_28  and  O_29
REMARK    9  A    between atoms: O_29  and  C_30
REMARK                            x       y       z     vdW  Elec       q    Type
REMARK                         _______ _______ _______ _____ _____    ______ ____
ROOT
ATOM      1  C   UNL     1       0.671   9.824  19.374  0.00  0.00    +0.000 C 
ENDROOT
BRANCH   1   2
ATOM      2  C   UNL     1      -0.608  10.311  18.796  0.00  0.00    +0.000 A 
ATOM      3  N   UNL     1      -1.079  10.043  17.592  0.00  0.00    +0.000 NA
ATOM      4  N   UNL     1      -2.281  10.698  17.448  0.00  0.00    +0.000 NA
ATOM      5  C   UNL     1      -2.520  11.344  18.568  0.00  0.00    +0.000 A 
ATOM      6  C   UNL     1      -3.594  12.143  19.000  0.00  0.00    +0.000 A 
ATOM      7  C   UNL     1      -3.558  12.654  20.234  0.00  0.00    +0.000 A 
ATOM      8  C   UNL     1      -2.348  12.409  21.098  0.00  0.00    +0.000 A 
ATOM      9  N   UNL     1      -2.292  13.038  22.330  0.00  0.00    +0.000 N 
ATOM     10  C   UNL     1      -3.326  12.828  23.345  0.00  0.00    +0.000 C 
ATOM     11  C   UNL     1      -3.564  14.135  24.102  0.00  0.00    +0.000 C 
ATOM     12  C   UNL     1      -2.257  14.710  24.674  0.00  0.00    +0.000 C 
ATOM     13  C   UNL     1      -2.496  16.087  25.290  0.00  0.00    +0.000 C 
ATOM     14  C   UNL     1      -1.175  14.787  23.584  0.00  0.00    +0.000 C 
ATOM     15  C   UNL     1      -0.998  13.438  22.886  0.00  0.00    +0.000 C 
ATOM     16  N   UNL     1      -1.340  11.676  20.701  0.00  0.00    +0.000 NA
ATOM     17  N   UNL     1      -1.479  11.153  19.450  0.00  0.00    +0.000 N 
ENDBRANCH   1   2
BRANCH   1  18
ATOM     18  C   UNL     1       1.610   9.245  18.324  0.00  0.00    +0.000 C 
BRANCH  18  20
ATOM     19  N   UNL     1       2.732   7.148  17.829  0.00  0.00    +0.000 N 
ATOM     20  C   UNL     1       2.166   7.928  18.822  0.00  0.00    +0.000 C 
ATOM     21  O   UNL     1       2.134   7.678  20.023  0.00  0.00    +0.000 OA
ATOM     22  H   UNL     1       2.812   7.546  16.903  0.00  0.00    +0.000 HD
BRANCH  19  25
ATOM     23  C   UNL     1       3.084   3.426  18.082  0.00  0.00    +0.000 A 
ATOM     24  C   UNL     1       2.506   4.688  17.931  0.00  0.00    +0.000 A 
ATOM     25  C   UNL     1       3.273   5.852  18.003  0.00  0.00    +0.000 A 
ATOM     26  C   UNL     1       4.651   5.729  18.236  0.00  0.00    +0.000 A 
ATOM     27  C   UNL     1       5.244   4.469  18.394  0.00  0.00    +0.000 A 
ATOM     28  C   UNL     1       4.458   3.319  18.322  0.00  0.00    +0.000 A 
BRANCH  23  30
ATOM     29  C   UNL     1       0.985   2.478  18.676  0.00  0.00    +0.000 C 
ATOM     30  O   UNL     1       2.210   2.382  17.963  0.00  0.00    +0.000 OA
ENDBRANCH  23  30
BRANCH  27  31
ATOM     31  O   UNL     1       6.597   4.488  18.608  0.00  0.00    +0.000 OA
ATOM     32  C   UNL     1       7.432   4.564  17.455  0.00  0.00    +0.000 C 
ENDBRANCH  27  31
ENDBRANCH  19  25
ENDBRANCH  18  20
ENDBRANCH   1  18
TORSDOF 6
ENDMDL
MODEL 4
REMARK VINA RESULT:      -8.2      3.461      9.289
REMARK  Name = 
REMARK  9 active torsions:
REMARK  status: ('A' for Active; 'I' for Inactive)
REMARK    1  A    between atoms: C_1  and  O_2
REMARK    2  A    between atoms: O_2  and  C_3
REMARK    3  A    between atoms: C_5  and  N_6
REMARK    4  A    between atoms: C_7  and  C_9
REMARK    5  A    between atoms: C_9  and  C_10
REMARK    6  A    between atoms: C_10  and  C_11
REMARK    7  A    between atoms: C_21  and  C_22
REMARK    8  A    between atoms: C_28  and  O_29
REMARK    9  A    between atoms: O_29  and  C_30
REMARK                            x       y       z     vdW  Elec       q    Type
REMARK                         _______ _______ _______ _____ _____    ______ ____
ROOT
ATOM      1  C   UNL     1       6.993   6.711  16.708  0.00  0.00    +0.000 C 
ENDROOT
BRANCH   1   2
ATOM      2  C   UNL     1       6.021   5.605  16.910  0.00  0.00    +0.000 A 
ATOM      3  N   UNL     1       6.196   4.337  16.588  0.00  0.00    +0.000 NA
ATOM      4  N   UNL     1       5.054   3.648  16.930  0.00  0.00    +0.000 NA
ATOM      5  C   UNL     1       4.212   4.509  17.458  0.00  0.00    +0.000 A 
ATOM      6  C   UNL     1       2.924   4.373  18.006  0.00  0.00    +0.000 A 
ATOM      7  C   UNL     1       2.317   5.456  18.499  0.00  0.00    +0.000 A 
ATOM      8  C   UNL     1       3.005   6.794  18.400  0.00  0.00    +0.000 A 
ATOM      9  N   UNL     1       2.310   7.914  18.822  0.00  0.00    +0.000 N 
ATOM     10  C   UNL     1       1.808   8.033  20.193  0.00  0.00    +0.000 C 
ATOM     11  C   UNL     1       0.462   8.758  20.177  0.00  0.00    +0.000 C 
ATOM     12  C   UNL     1       0.548  10.105  19.442  0.00  0.00    +0.000 C 
ATOM     13  C   UNL     1      -0.837  10.736  19.306  0.00  0.00    +0.000 C 
ATOM     14  C   UNL     1       1.198   9.929  18.059  0.00  0.00    +0.000 C 
ATOM     15  C   UNL     1       2.540   9.205  18.169  0.00  0.00    +0.000 C 
ATOM     16  N   UNL     1       4.199   6.932  17.882  0.00  0.00    +0.000 NA
ATOM     17  N   UNL     1       4.765   5.771  17.448  0.00  0.00    +0.000 N 
ENDBRANCH   1   2
BRANCH   1  18
ATOM     18  C   UNL     1       7.772   7.049  17.972  0.00  0.00    +0.000 C 
BRANCH  18  20
ATOM     19  N   UNL     1       8.968   8.942  18.914  0.00  0.00    +0.000 N 
ATOM     20  C   UNL     1       7.949   8.550  18.064  0.00  0.00    +0.000 C 
ATOM     21  O   UNL     1       7.253   9.280  17.366  0.00  0.00    +0.000 OA
ATOM     22  H   UNL     1       9.552   8.222  19.316  0.00  0.00    +0.000 HD
BRANCH  19  25
ATOM     23  C   UNL     1       9.662  12.105  20.801  0.00  0.00    +0.000 A 
ATOM     24  C   UNL     1       9.287  10.787  20.528  0.00  0.00    +0.000 A 
ATOM     25  C   UNL     1       9.313  10.278  19.229  0.00  0.00    +0.000 A 
ATOM     26  C   UNL     1       9.725  11.125  18.190  0.00  0.00    +0.000 A 
ATOM     27  C   UNL     1      10.100  12.450  18.448  0.00  0.00    +0.000 A 
ATOM     28  C   UNL     1      10.062  12.939  19.753  0.00  0.00    +0.000 A 
BRANCH  23  30
ATOM     29  C   UNL     1       8.400  13.038  22.587  0.00  0.00    +0.000 C 
ATOM     30  O   UNL     1       9.606  12.450  22.121  0.00  0.00    +0.000 OA
ENDBRANCH  23  30
BRANCH  27  31
ATOM     31  O   UNL     1      10.488  13.168  17.346  0.00  0.00    +0.000 OA
ATOM     32  C   UNL     1      11.871  13.123  17.002  0.00  0.00    +0.000 C 
ENDBRANCH  27  31
ENDBRANCH  19  25
ENDBRANCH  18  20
ENDBRANCH   1  18
TORSDOF 6
ENDMDL
MODEL 5
REMARK VINA RESULT:      -8.2      3.708      9.164
REMARK  Name = 
REMARK  9 active torsions:
REMARK  status: ('A' for Active; 'I' for Inactive)
REMARK    1  A    between atoms: C_1  and  O_2
REMARK    2  A    between atoms: O_2  and  C_3
REMARK    3  A    between atoms: C_5  and  N_6
REMARK    4  A    between atoms: C_7  and  C_9
REMARK    5  A    between atoms: C_9  and  C_10
REMARK    6  A    between atoms: C_10  and  C_11
REMARK    7  A    between atoms: C_21  and  C_22
REMARK    8  A    between atoms: C_28  and  O_29
REMARK    9  A    between atoms: O_29  and  C_30
REMARK                            x       y       z     vdW  Elec       q    Type
REMARK                         _______ _______ _______ _____ _____    ______ ____
ROOT
ATOM      1  C   UNL     1       6.545   6.811  17.316  0.00  0.00    +0.000 C 
ENDROOT
BRANCH   1   2
ATOM      2  C   UNL     1       5.707   5.748  17.928  0.00  0.00    +0.000 A 
ATOM      3  N   UNL     1       6.008   4.466  18.022  0.00  0.00    +0.000 NA
ATOM      4  N   UNL     1       4.960   3.825  18.643  0.00  0.00    +0.000 NA
ATOM      5  C   UNL     1       4.048   4.730  18.921  0.00  0.00    +0.000 A 
ATOM      6  C   UNL     1       2.801   4.663  19.568  0.00  0.00    +0.000 A 
ATOM      7  C   UNL     1       2.097   5.787  19.725  0.00  0.00    +0.000 A 
ATOM      8  C   UNL     1       2.630   7.076  19.154  0.00  0.00    +0.000 A 
ATOM      9  N   UNL     1       1.832   8.203  19.238  0.00  0.00    +0.000 N 
ATOM     10  C   UNL     1       1.366   8.718  20.527  0.00  0.00    +0.000 C 
ATOM     11  C   UNL     1      -0.051   9.270  20.369  0.00  0.00    +0.000 C 
ATOM     12  C   UNL     1      -0.137  10.304  19.234  0.00  0.00    +0.000 C 
ATOM     13  C   UNL     1      -1.586  10.725  18.995  0.00  0.00    +0.000 C 
ATOM     14  C   UNL     1       0.482   9.745  17.942  0.00  0.00    +0.000 C 
ATOM     15  C   UNL     1       1.898   9.224  18.190  0.00  0.00    +0.000 C 
ATOM     16  N   UNL     1       3.784   7.146  18.540  0.00  0.00    +0.000 NA
ATOM     17  N   UNL     1       4.459   5.964  18.468  0.00  0.00    +0.000 N 
ENDBRANCH   1   2
BRANCH   1  18
ATOM     18  C   UNL     1       7.818   7.086  18.105  0.00  0.00    +0.000 C 
BRANCH  18  20
ATOM     19  N   UNL     1       9.069   8.959  19.016  0.00  0.00    +0.000 N 
ATOM     20  C   UNL     1       8.083   8.577  18.124  0.00  0.00    +0.000 C 
ATOM     21  O   UNL     1       7.479   9.303  17.342  0.00  0.00    +0.000 OA
ATOM     22  H   UNL     1       9.581   8.230  19.497  0.00  0.00    +0.000 HD
BRANCH  19  25
ATOM     23  C   UNL     1      10.426  12.427  18.605  0.00  0.00    +0.000 A 
ATOM     24  C   UNL     1      10.061  11.111  18.313  0.00  0.00    +0.000 A 
ATOM     25  C   UNL     1       9.478  10.288  19.278  0.00  0.00    +0.000 A 
ATOM     26  C   UNL     1       9.265  10.812  20.561  0.00  0.00    +0.000 A 
ATOM     27  C   UNL     1       9.630  12.130  20.869  0.00  0.00    +0.000 A 
ATOM     28  C   UNL     1      10.215  12.933  19.891  0.00  0.00    +0.000 A 
BRANCH  23  30
ATOM     29  C   UNL     1      10.610  14.486  17.428  0.00  0.00    +0.000 C 
ATOM     30  O   UNL     1      10.963  13.115  17.554  0.00  0.00    +0.000 OA
ENDBRANCH  23  30
BRANCH  27  31
ATOM     31  O   UNL     1       9.361  12.520  22.155  0.00  0.00    +0.000 OA
ATOM     32  C   UNL     1       8.995  13.883  22.352  0.00  0.00    +0.000 C 
ENDBRANCH  27  31
ENDBRANCH  19  25
ENDBRANCH  18  20
ENDBRANCH   1  18
TORSDOF 6
ENDMDL
MODEL 6
REMARK VINA RESULT:      -7.9      1.267      2.441
REMARK  Name = 
REMARK  9 active torsions:
REMARK  status: ('A' for Active; 'I' for Inactive)
REMARK    1  A    between atoms: C_1  and  O_2
REMARK    2  A    between atoms: O_2  and  C_3
REMARK    3  A    between atoms: C_5  and  N_6
REMARK    4  A    between atoms: C_7  and  C_9
REMARK    5  A    between atoms: C_9  and  C_10
REMARK    6  A    between atoms: C_10  and  C_11
REMARK    7  A    between atoms: C_21  and  C_22
REMARK    8  A    between atoms: C_28  and  O_29
REMARK    9  A    between atoms: O_29  and  C_30
REMARK                            x       y       z     vdW  Elec       q    Type
REMARK                         _______ _______ _______ _____ _____    ______ ____
ROOT
ATOM      1  C   UNL     1       8.439  10.320  18.225  0.00  0.00    +0.000 C 
ENDROOT
BRANCH   1   2
ATOM      2  C   UNL     1       9.589  11.254  18.342  0.00  0.00    +0.000 A 
ATOM      3  N   UNL     1      10.560  11.418  17.464  0.00  0.00    +0.000 NA
ATOM      4  N   UNL     1      11.429  12.364  17.959  0.00  0.00    +0.000 NA
ATOM      5  C   UNL     1      10.965  12.761  19.123  0.00  0.00    +0.000 A 
ATOM      6  C   UNL     1      11.411  13.715  20.055  0.00  0.00    +0.000 A 
ATOM      7  C   UNL     1      10.693  13.915  21.164  0.00  0.00    +0.000 A 
ATOM      8  C   UNL     1       9.466  13.074  21.408  0.00  0.00    +0.000 A 
ATOM      9  N   UNL     1       8.803  13.229  22.613  0.00  0.00    +0.000 N 
ATOM     10  C   UNL     1       8.260  14.523  23.028  0.00  0.00    +0.000 C 
ATOM     11  C   UNL     1       8.419  14.677  24.541  0.00  0.00    +0.000 C 
ATOM     12  C   UNL     1       7.808  13.489  25.302  0.00  0.00    +0.000 C 
ATOM     13  C   UNL     1       8.114  13.589  26.795  0.00  0.00    +0.000 C 
ATOM     14  C   UNL     1       8.325  12.157  24.734  0.00  0.00    +0.000 C 
ATOM     15  C   UNL     1       8.119  12.086  23.221  0.00  0.00    +0.000 C 
ATOM     16  N   UNL     1       9.050  12.176  20.552  0.00  0.00    +0.000 NA
ATOM     17  N   UNL     1       9.812  12.071  19.427  0.00  0.00    +0.000 N 
ENDBRANCH   1   2
BRANCH   1  18
ATOM     18  C   UNL     1       8.841   8.863  18.412  0.00  0.00    +0.000 C 
BRANCH  18  20
ATOM     19  N   UNL     1       7.724   6.706  18.423  0.00  0.00    +0.000 N 
ATOM     20  C   UNL     1       7.751   7.969  17.860  0.00  0.00    +0.000 C 
ATOM     21  O   UNL     1       6.964   8.421  17.035  0.00  0.00    +0.000 OA
ATOM     22  H   UNL     1       8.349   6.519  19.197  0.00  0.00    +0.000 HD
BRANCH  19  25
ATOM     23  C   UNL     1       5.045   4.087  18.517  0.00  0.00    +0.000 A 
ATOM     24  C   UNL     1       5.908   5.107  18.928  0.00  0.00    +0.000 A 
ATOM     25  C   UNL     1       6.850   5.655  18.056  0.00  0.00    +0.000 A 
ATOM     26  C   UNL     1       6.918   5.155  16.747  0.00  0.00    +0.000 A 
ATOM     27  C   UNL     1       6.061   4.131  16.324  0.00  0.00    +0.000 A 
ATOM     28  C   UNL     1       5.129   3.594  17.212  0.00  0.00    +0.000 A 
BRANCH  23  30
ATOM     29  C   UNL     1       4.331   2.354  19.981  0.00  0.00    +0.000 C 
ATOM     30  O   UNL     1       4.163   3.670  19.474  0.00  0.00    +0.000 OA
ENDBRANCH  23  30
BRANCH  27  31
ATOM     31  O   UNL     1       6.226   3.739  15.020  0.00  0.00    +0.000 OA
ATOM     32  C   UNL     1       6.859   4.668  14.143  0.00  0.00    +0.000 C 
ENDBRANCH  27  31
ENDBRANCH  19  25
ENDBRANCH  18  20
ENDBRANCH   1  18
TORSDOF 6
ENDMDL
MODEL 7
REMARK VINA RESULT:      -7.8      5.959      7.922
REMARK  Name = 
REMARK  9 active torsions:
REMARK  status: ('A' for Active; 'I' for Inactive)
REMARK    1  A    between atoms: C_1  and  O_2
REMARK    2  A    between atoms: O_2  and  C_3
REMARK    3  A    between atoms: C_5  and  N_6
REMARK    4  A    between atoms: C_7  and  C_9
REMARK    5  A    between atoms: C_9  and  C_10
REMARK    6  A    between atoms: C_10  and  C_11
REMARK    7  A    between atoms: C_21  and  C_22
REMARK    8  A    between atoms: C_28  and  O_29
REMARK    9  A    between atoms: O_29  and  C_30
REMARK                            x       y       z     vdW  Elec       q    Type
REMARK                         _______ _______ _______ _____ _____    ______ ____
ROOT
ATOM      1  C   UNL     1       1.373   8.900  21.806  0.00  0.00    +0.000 C 
ENDROOT
BRANCH   1   2
ATOM      2  C   UNL     1       0.344   9.863  22.276  0.00  0.00    +0.000 A 
ATOM      3  N   UNL     1      -0.709   9.587  23.021  0.00  0.00    +0.000 NA
ATOM      4  N   UNL     1      -1.411  10.754  23.218  0.00  0.00    +0.000 NA
ATOM      5  C   UNL     1      -0.768  11.717  22.595  0.00  0.00    +0.000 A 
ATOM      6  C   UNL     1      -0.997  13.099  22.476  0.00  0.00    +0.000 A 
ATOM      7  C   UNL     1      -0.129  13.837  21.779  0.00  0.00    +0.000 A 
ATOM      8  C   UNL     1       1.030  13.159  21.094  0.00  0.00    +0.000 A 
ATOM      9  N   UNL     1       1.851  13.932  20.291  0.00  0.00    +0.000 N 
ATOM     10  C   UNL     1       2.567  15.094  20.821  0.00  0.00    +0.000 C 
ATOM     11  C   UNL     1       2.615  16.188  19.753  0.00  0.00    +0.000 C 
ATOM     12  C   UNL     1       3.197  15.667  18.429  0.00  0.00    +0.000 C 
ATOM     13  C   UNL     1       3.092  16.730  17.337  0.00  0.00    +0.000 C 
ATOM     14  C   UNL     1       2.484  14.376  17.993  0.00  0.00    +0.000 C 
ATOM     15  C   UNL     1       2.491  13.337  19.115  0.00  0.00    +0.000 C 
ATOM     16  N   UNL     1       1.245  11.872  21.189  0.00  0.00    +0.000 NA
ATOM     17  N   UNL     1       0.341  11.203  21.959  0.00  0.00    +0.000 N 
ENDBRANCH   1   2
BRANCH   1  18
ATOM     18  C   UNL     1       1.306   8.650  20.305  0.00  0.00    +0.000 C 
BRANCH  18  20
ATOM     19  N   UNL     1       2.464   7.167  18.768  0.00  0.00    +0.000 N 
ATOM     20  C   UNL     1       1.849   7.269  20.003  0.00  0.00    +0.000 C 
ATOM     21  O   UNL     1       1.767   6.392  20.857  0.00  0.00    +0.000 OA
ATOM     22  H   UNL     1       2.582   8.014  18.227  0.00  0.00    +0.000 HD
BRANCH  19  25
ATOM     23  C   UNL     1       2.853   3.659  17.511  0.00  0.00    +0.000 A 
ATOM     24  C   UNL     1       2.288   4.796  18.093  0.00  0.00    +0.000 A 
ATOM     25  C   UNL     1       3.008   5.986  18.210  0.00  0.00    +0.000 A 
ATOM     26  C   UNL     1       4.325   6.018  17.729  0.00  0.00    +0.000 A 
ATOM     27  C   UNL     1       4.905   4.884  17.146  0.00  0.00    +0.000 A 
ATOM     28  C   UNL     1       4.170   3.704  17.043  0.00  0.00    +0.000 A 
BRANCH  23  30
ATOM     29  C   UNL     1       1.223   2.305  18.591  0.00  0.00    +0.000 C 
ATOM     30  O   UNL     1       2.018   2.579  17.446  0.00  0.00    +0.000 OA
ENDBRANCH  23  30
BRANCH  27  31
ATOM     31  O   UNL     1       6.195   5.051  16.711  0.00  0.00    +0.000 OA
ATOM     32  C   UNL     1       7.190   5.261  17.710  0.00  0.00    +0.000 C 
ENDBRANCH  27  31
ENDBRANCH  19  25
ENDBRANCH  18  20
ENDBRANCH   1  18
TORSDOF 6
ENDMDL
MODEL 8
REMARK VINA RESULT:      -7.7      7.414     10.917
REMARK  Name = 
REMARK  9 active torsions:
REMARK  status: ('A' for Active; 'I' for Inactive)
REMARK    1  A    between atoms: C_1  and  O_2
REMARK    2  A    between atoms: O_2  and  C_3
REMARK    3  A    between atoms: C_5  and  N_6
REMARK    4  A    between atoms: C_7  and  C_9
REMARK    5  A    between atoms: C_9  and  C_10
REMARK    6  A    between atoms: C_10  and  C_11
REMARK    7  A    between atoms: C_21  and  C_22
REMARK    8  A    between atoms: C_28  and  O_29
REMARK    9  A    between atoms: O_29  and  C_30
REMARK                            x       y       z     vdW  Elec       q    Type
REMARK                         _______ _______ _______ _____ _____    ______ ____
ROOT
ATOM      1  C   UNL     1       1.364  10.715  18.891  0.00  0.00    +0.000 C 
ENDROOT
BRANCH   1   2
ATOM      2  C   UNL     1       1.164   9.591  19.843  0.00  0.00    +0.000 A 
ATOM      3  N   UNL     1       0.456   9.621  20.956  0.00  0.00    +0.000 NA
ATOM      4  N   UNL     1       0.539   8.380  21.548  0.00  0.00    +0.000 NA
ATOM      5  C   UNL     1       1.288   7.621  20.780  0.00  0.00    +0.000 A 
ATOM      6  C   UNL     1       1.686   6.275  20.864  0.00  0.00    +0.000 A 
ATOM      7  C   UNL     1       2.449   5.768  19.890  0.00  0.00    +0.000 A 
ATOM      8  C   UNL     1       2.905   6.667  18.770  0.00  0.00    +0.000 A 
ATOM      9  N   UNL     1       3.780   6.144  17.834  0.00  0.00    +0.000 N 
ATOM     10  C   UNL     1       3.434   4.967  17.035  0.00  0.00    +0.000 C 
ATOM     11  C   UNL     1       4.686   4.115  16.821  0.00  0.00    +0.000 C 
ATOM     12  C   UNL     1       5.841   4.937  16.225  0.00  0.00    +0.000 C 
ATOM     13  C   UNL     1       7.121   4.106  16.165  0.00  0.00    +0.000 C 
ATOM     14  C   UNL     1       6.069   6.222  17.038  0.00  0.00    +0.000 C 
ATOM     15  C   UNL     1       4.771   7.014  17.195  0.00  0.00    +0.000 C 
ATOM     16  N   UNL     1       2.549   7.924  18.690  0.00  0.00    +0.000 NA
ATOM     17  N   UNL     1       1.731   8.345  19.695  0.00  0.00    +0.000 N 
ENDBRANCH   1   2
BRANCH   1  18
ATOM     18  C   UNL     1       0.858  12.044  19.435  0.00  0.00    +0.000 C 
BRANCH  18  20
ATOM     19  N   UNL     1      -1.392  11.409  18.776  0.00  0.00    +0.000 N 
ATOM     20  C   UNL     1      -0.437  12.409  18.739  0.00  0.00    +0.000 C 
ATOM     21  O   UNL     1      -0.568  13.532  18.265  0.00  0.00    +0.000 OA
ATOM     22  H   UNL     1      -1.193  10.584  19.326  0.00  0.00    +0.000 HD
BRANCH  19  25
ATOM     23  C   UNL     1      -4.168  11.111  16.276  0.00  0.00    +0.000 A 
ATOM     24  C   UNL     1      -2.890  11.072  16.838  0.00  0.00    +0.000 A 
ATOM     25  C   UNL     1      -2.666  11.459  18.161  0.00  0.00    +0.000 A 
ATOM     26  C   UNL     1      -3.760  11.896  18.922  0.00  0.00    +0.000 A 
ATOM     27  C   UNL     1      -5.047  11.944  18.369  0.00  0.00    +0.000 A 
ATOM     28  C   UNL     1      -5.247  11.557  17.045  0.00  0.00    +0.000 A 
BRANCH  23  30
ATOM     29  C   UNL     1      -3.101   9.989  14.471  0.00  0.00    +0.000 C 
ATOM     30  O   UNL     1      -4.233  10.680  14.981  0.00  0.00    +0.000 OA
ENDBRANCH  23  30
BRANCH  27  31
ATOM     31  O   UNL     1      -6.027  12.383  19.221  0.00  0.00    +0.000 OA
ATOM     32  C   UNL     1      -7.281  11.707  19.163  0.00  0.00    +0.000 C 
ENDBRANCH  27  31
ENDBRANCH  19  25
ENDBRANCH  18  20
ENDBRANCH   1  18
TORSDOF 6
ENDMDL
MODEL 9
REMARK VINA RESULT:      -7.6      7.395      9.076
REMARK  Name = 
REMARK  9 active torsions:
REMARK  status: ('A' for Active; 'I' for Inactive)
REMARK    1  A    between atoms: C_1  and  O_2
REMARK    2  A    between atoms: O_2  and  C_3
REMARK    3  A    between atoms: C_5  and  N_6
REMARK    4  A    between atoms: C_7  and  C_9
REMARK    5  A    between atoms: C_9  and  C_10
REMARK    6  A    between atoms: C_10  and  C_11
REMARK    7  A    between atoms: C_21  and  C_22
REMARK    8  A    between atoms: C_28  and  O_29
REMARK    9  A    between atoms: O_29  and  C_30
REMARK                            x       y       z     vdW  Elec       q    Type
REMARK                         _______ _______ _______ _____ _____    ______ ____
ROOT
ATOM      1  C   UNL     1       0.765  10.767  19.065  0.00  0.00    +0.000 C 
ENDROOT
BRANCH   1   2
ATOM      2  C   UNL     1      -0.646  10.935  18.630  0.00  0.00    +0.000 A 
ATOM      3  N   UNL     1      -1.173  10.518  17.495  0.00  0.00    +0.000 NA
ATOM      4  N   UNL     1      -2.499  10.885  17.479  0.00  0.00    +0.000 NA
ATOM      5  C   UNL     1      -2.753  11.512  18.607  0.00  0.00    +0.000 A 
ATOM      6  C   UNL     1      -3.924  12.074  19.145  0.00  0.00    +0.000 A 
ATOM      7  C   UNL     1      -3.870  12.635  20.357  0.00  0.00    +0.000 A 
ATOM      8  C   UNL     1      -2.548  12.700  21.079  0.00  0.00    +0.000 A 
ATOM      9  N   UNL     1      -2.500  13.380  22.284  0.00  0.00    +0.000 N 
ATOM     10  C   UNL     1      -3.343  12.993  23.416  0.00  0.00    +0.000 C 
ATOM     11  C   UNL     1      -3.783  14.248  24.171  0.00  0.00    +0.000 C 
ATOM     12  C   UNL     1      -2.583  15.121  24.576  0.00  0.00    +0.000 C 
ATOM     13  C   UNL     1      -3.055  16.437  25.189  0.00  0.00    +0.000 C 
ATOM     14  C   UNL     1      -1.672  15.385  23.366  0.00  0.00    +0.000 C 
ATOM     15  C   UNL     1      -1.275  14.079  22.678  0.00  0.00    +0.000 C 
ATOM     16  N   UNL     1      -1.451  12.189  20.581  0.00  0.00    +0.000 NA
ATOM     17  N   UNL     1      -1.606  11.594  19.365  0.00  0.00    +0.000 N 
ENDBRANCH   1   2
BRANCH   1  18
ATOM     18  C   UNL     1       1.065   9.359  19.563  0.00  0.00    +0.000 C 
BRANCH  18  20
ATOM     19  N   UNL     1       2.260   7.350  18.902  0.00  0.00    +0.000 N 
ATOM     20  C   UNL     1       1.859   8.615  18.510  0.00  0.00    +0.000 C 
ATOM     21  O   UNL     1       2.033   9.133  17.412  0.00  0.00    +0.000 OA
ATOM     22  H   UNL     1       1.923   7.000  19.789  0.00  0.00    +0.000 HD
BRANCH  19  25
ATOM     23  C   UNL     1       5.022   5.933  16.803  0.00  0.00    +0.000 A 
ATOM     24  C   UNL     1       4.249   6.847  17.523  0.00  0.00    +0.000 A 
ATOM     25  C   UNL     1       3.058   6.463  18.141  0.00  0.00    +0.000 A 
ATOM     26  C   UNL     1       2.646   5.128  18.022  0.00  0.00    +0.000 A 
ATOM     27  C   UNL     1       3.409   4.202  17.299  0.00  0.00    +0.000 A 
ATOM     28  C   UNL     1       4.594   4.608  16.686  0.00  0.00    +0.000 A 
BRANCH  23  30
ATOM     29  C   UNL     1       7.250   6.678  17.171  0.00  0.00    +0.000 C 
ATOM     30  O   UNL     1       6.171   6.452  16.275  0.00  0.00    +0.000 OA
ENDBRANCH  23  30
BRANCH  27  31
ATOM     31  O   UNL     1       2.898   2.930  17.266  0.00  0.00    +0.000 OA
ATOM     32  C   UNL     1       3.522   1.963  18.107  0.00  0.00    +0.000 C 
ENDBRANCH  27  31
ENDBRANCH  19  25
ENDBRANCH  18  20
ENDBRANCH   1  18
TORSDOF 6
ENDMDL
