MODEL 1
REMARK VINA RESULT:      -7.6      0.000      0.000
REMARK  Name = 
REMARK  5 active torsions:
REMARK  status: ('A' for Active; 'I' for Inactive)
REMARK    1  A    between atoms: C_1  and  C_2
REMARK    2  A    between atoms: C_7  and  O_8
REMARK    3  A    between atoms: O_8  and  C_9
REMARK    4  A    between atoms: N_15  and  C_16
REMARK    5  A    between atoms: C_18  and  C_19
REMARK                            x       y       z     vdW  Elec       q    Type
REMARK                         _______ _______ _______ _____ _____    ______ ____
ROOT
ATOM      1  C   UNL     1       0.334  14.000  21.244  0.00  0.00    +0.000 C 
ATOM      2  C   UNL     1      -0.776  13.626  20.252  0.00  0.00    +0.000 C 
ATOM      3  C   UNL     1      -0.817  12.189  19.735  0.00  0.00    +0.000 C 
ATOM      4  N   UNL     1       0.470  11.553  19.476  0.00  0.00    +0.000 N 
ATOM      5  C   UNL     1       0.412  10.320  18.769  0.00  0.00    +0.000 C 
ATOM      6  O   UNL     1      -0.599   9.917  18.215  0.00  0.00    +0.000 OA
ATOM      7  N   UNL     1       1.602   9.616  18.746  0.00  0.00    +0.000 N 
ATOM      8  C   UNL     1       1.594  11.914  20.338  0.00  0.00    +0.000 C 
ATOM      9  C   UNL     1       1.656  13.354  20.842  0.00  0.00    +0.000 C 
ATOM     10  H   UNL     1       2.258   9.818  19.480  0.00  0.00    +0.000 HD
ENDROOT
BRANCH   7  11
ATOM     11  C   UNL     1       1.804   8.339  18.112  0.00  0.00    +0.000 C 
ATOM     12  C   UNL     1       3.129   7.861  17.593  0.00  0.00    +0.000 C 
ATOM     13  C   UNL     1       2.624   7.320  18.903  0.00  0.00    +0.000 C 
BRANCH  13  14
ATOM     14  C   UNL     1       2.172   5.886  19.047  0.00  0.00    +0.000 A 
ATOM     15  C   UNL     1       1.720   5.387  20.281  0.00  0.00    +0.000 A 
ATOM     16  C   UNL     1       1.233   4.082  20.409  0.00  0.00    +0.000 A 
ATOM     17  C   UNL     1       1.181   3.246  19.300  0.00  0.00    +0.000 A 
ATOM     18  C   UNL     1       1.614   3.715  18.063  0.00  0.00    +0.000 A 
ATOM     19  C   UNL     1       2.098   5.022  17.941  0.00  0.00    +0.000 A 
ENDBRANCH  13  14
ENDBRANCH   7  11
BRANCH   1  20
ATOM     20  O   UNL     1      -0.002  13.745  22.629  0.00  0.00    +0.000 OA
BRANCH  20  27
ATOM     21  C   UNL     1      -1.103  11.162  23.093  0.00  0.00    +0.000 C 
ATOM     22  C   UNL     1      -1.912  12.417  23.215  0.00  0.00    +0.000 A 
ATOM     23  C   UNL     1      -3.276  12.282  23.578  0.00  0.00    +0.000 A 
ATOM     24  C   UNL     1      -4.068  13.407  23.782  0.00  0.00    +0.000 A 
ATOM     25  C   UNL     1      -3.504  14.668  23.637  0.00  0.00    +0.000 A 
ATOM     26  C   UNL     1      -2.156  14.813  23.263  0.00  0.00    +0.000 A 
ATOM     27  C   UNL     1      -1.335  13.697  23.023  0.00  0.00    +0.000 A 
ENDBRANCH  20  27
ENDBRANCH   1  20
TORSDOF 4
ENDMDL
MODEL 2
REMARK VINA RESULT:      -7.5      1.729      2.392
REMARK  Name = 
REMARK  5 active torsions:
REMARK  status: ('A' for Active; 'I' for Inactive)
REMARK    1  A    between atoms: C_1  and  C_2
REMARK    2  A    between atoms: C_7  and  O_8
REMARK    3  A    between atoms: O_8  and  C_9
REMARK    4  A    between atoms: N_15  and  C_16
REMARK    5  A    between atoms: C_18  and  C_19
REMARK                            x       y       z     vdW  Elec       q    Type
REMARK                         _______ _______ _______ _____ _____    ______ ____
ROOT
ATOM      1  C   UNL     1      -0.880  12.305  21.408  0.00  0.00    +0.000 C 
ATOM      2  C   UNL     1       0.033  12.914  20.336  0.00  0.00    +0.000 C 
ATOM      3  C   UNL     1       0.521  12.002  19.212  0.00  0.00    +0.000 C 
ATOM      4  N   UNL     1       0.850  10.630  19.582  0.00  0.00    +0.000 N 
ATOM      5  C   UNL     1       1.529   9.874  18.587  0.00  0.00    +0.000 C 
ATOM      6  O   UNL     1       2.011  10.375  17.584  0.00  0.00    +0.000 OA
ATOM      7  N   UNL     1       1.614   8.520  18.856  0.00  0.00    +0.000 N 
ATOM      8  C   UNL     1       0.066  10.007  20.647  0.00  0.00    +0.000 C 
ATOM      9  C   UNL     1      -0.408  10.905  21.787  0.00  0.00    +0.000 C 
ATOM     10  H   UNL     1       0.927   8.142  19.483  0.00  0.00    +0.000 HD
ENDROOT
BRANCH   7  11
ATOM     11  C   UNL     1       2.237   7.538  18.006  0.00  0.00    +0.000 C 
ATOM     12  C   UNL     1       3.722   7.394  17.841  0.00  0.00    +0.000 C 
ATOM     13  C   UNL     1       2.989   6.415  18.718  0.00  0.00    +0.000 C 
BRANCH  13  14
ATOM     14  C   UNL     1       2.812   4.970  18.317  0.00  0.00    +0.000 A 
ATOM     15  C   UNL     1       3.836   4.267  17.661  0.00  0.00    +0.000 A 
ATOM     16  C   UNL     1       3.711   2.909  17.348  0.00  0.00    +0.000 A 
ATOM     17  C   UNL     1       2.553   2.220  17.693  0.00  0.00    +0.000 A 
ATOM     18  C   UNL     1       1.524   2.888  18.350  0.00  0.00    +0.000 A 
ATOM     19  C   UNL     1       1.657   4.245  18.661  0.00  0.00    +0.000 A 
ENDBRANCH  13  14
ENDBRANCH   7  11
BRANCH   1  20
ATOM     20  O   UNL     1      -2.288  12.336  21.071  0.00  0.00    +0.000 OA
BRANCH  20  27
ATOM     21  C   UNL     1      -4.955  12.853  20.223  0.00  0.00    +0.000 C 
ATOM     22  C   UNL     1      -4.563  12.807  21.669  0.00  0.00    +0.000 A 
ATOM     23  C   UNL     1      -5.581  13.034  22.629  0.00  0.00    +0.000 A 
ATOM     24  C   UNL     1      -5.305  12.933  23.988  0.00  0.00    +0.000 A 
ATOM     25  C   UNL     1      -4.021  12.598  24.396  0.00  0.00    +0.000 A 
ATOM     26  C   UNL     1      -3.000  12.386  23.452  0.00  0.00    +0.000 A 
ATOM     27  C   UNL     1      -3.239  12.505  22.072  0.00  0.00    +0.000 A 
ENDBRANCH  20  27
ENDBRANCH   1  20
TORSDOF 4
ENDMDL
MODEL 3
REMARK VINA RESULT:      -7.3      2.507      9.217
REMARK  Name = 
REMARK  5 active torsions:
REMARK  status: ('A' for Active; 'I' for Inactive)
REMARK    1  A    between atoms: C_1  and  C_2
REMARK    2  A    between atoms: C_7  and  O_8
REMARK    3  A    between atoms: O_8  and  C_9
REMARK    4  A    between atoms: N_15  and  C_16
REMARK    5  A    between atoms: C_18  and  C_19
REMARK                            x       y       z     vdW  Elec       q    Type
REMARK                         _______ _______ _______ _____ _____    ______ ____
ROOT
ATOM      1  C   UNL     1       2.935   6.842  18.438  0.00  0.00    +0.000 C 
ATOM      2  C   UNL     1       2.690   6.746  19.949  0.00  0.00    +0.000 C 
ATOM      3  C   UNL     1       1.495   7.500  20.529  0.00  0.00    +0.000 C 
ATOM      4  N   UNL     1       1.206   8.807  19.949  0.00  0.00    +0.000 N 
ATOM      5  C   UNL     1       0.256   9.593  20.657  0.00  0.00    +0.000 C 
ATOM      6  O   UNL     1      -0.131   9.318  21.781  0.00  0.00    +0.000 OA
ATOM      7  N   UNL     1      -0.186  10.711  19.972  0.00  0.00    +0.000 N 
ATOM      8  C   UNL     1       1.480   8.995  18.525  0.00  0.00    +0.000 C 
ATOM      9  C   UNL     1       2.686   8.263  17.941  0.00  0.00    +0.000 C 
ATOM     10  H   UNL     1      -0.105  10.687  18.971  0.00  0.00    +0.000 HD
ENDROOT
BRANCH   7  11
ATOM     11  C   UNL     1      -1.154  11.660  20.460  0.00  0.00    +0.000 C 
ATOM     12  C   UNL     1      -1.107  13.131  20.165  0.00  0.00    +0.000 C 
ATOM     13  C   UNL     1      -2.083  12.269  19.411  0.00  0.00    +0.000 C 
BRANCH  13  14
ATOM     14  C   UNL     1      -3.572  12.370  19.641  0.00  0.00    +0.000 A 
ATOM     15  C   UNL     1      -4.486  11.767  18.761  0.00  0.00    +0.000 A 
ATOM     16  C   UNL     1      -5.864  11.794  19.002  0.00  0.00    +0.000 A 
ATOM     17  C   UNL     1      -6.359  12.423  20.139  0.00  0.00    +0.000 A 
ATOM     18  C   UNL     1      -5.477  13.022  21.033  0.00  0.00    +0.000 A 
ATOM     19  C   UNL     1      -4.101  12.990  20.787  0.00  0.00    +0.000 A 
ENDBRANCH  13  14
ENDBRANCH   7  11
BRANCH   1  20
ATOM     20  O   UNL     1       2.216   5.855  17.659  0.00  0.00    +0.000 OA
BRANCH  20  27
ATOM     21  C   UNL     1       4.430   4.300  16.777  0.00  0.00    +0.000 C 
ATOM     22  C   UNL     1       3.304   3.719  17.578  0.00  0.00    +0.000 A 
ATOM     23  C   UNL     1       3.373   2.339  17.893  0.00  0.00    +0.000 A 
ATOM     24  C   UNL     1       2.401   1.748  18.695  0.00  0.00    +0.000 A 
ATOM     25  C   UNL     1       1.367   2.530  19.193  0.00  0.00    +0.000 A 
ATOM     26  C   UNL     1       1.282   3.897  18.874  0.00  0.00    +0.000 A 
ATOM     27  C   UNL     1       2.233   4.519  18.045  0.00  0.00    +0.000 A 
ENDBRANCH  20  27
ENDBRANCH   1  20
TORSDOF 4
ENDMDL
MODEL 4
REMARK VINA RESULT:      -7.2      3.522      8.930
REMARK  Name = 
REMARK  5 active torsions:
REMARK  status: ('A' for Active; 'I' for Inactive)
REMARK    1  A    between atoms: C_1  and  C_2
REMARK    2  A    between atoms: C_7  and  O_8
REMARK    3  A    between atoms: O_8  and  C_9
REMARK    4  A    between atoms: N_15  and  C_16
REMARK    5  A    between atoms: C_18  and  C_19
REMARK                            x       y       z     vdW  Elec       q    Type
REMARK                         _______ _______ _______ _____ _____    ______ ____
ROOT
ATOM      1  C   UNL     1       2.368   7.653  19.532  0.00  0.00    +0.000 C 
ATOM      2  C   UNL     1       1.793   8.604  20.590  0.00  0.00    +0.000 C 
ATOM      3  C   UNL     1       0.438   9.251  20.307  0.00  0.00    +0.000 C 
ATOM      4  N   UNL     1       0.183   9.650  18.927  0.00  0.00    +0.000 N 
ATOM      5  C   UNL     1      -0.966  10.465  18.730  0.00  0.00    +0.000 C 
ATOM      6  O   UNL     1      -1.577  10.990  19.647  0.00  0.00    +0.000 OA
ATOM      7  N   UNL     1      -1.330  10.630  17.405  0.00  0.00    +0.000 N 
ATOM      8  C   UNL     1       0.760   8.831  17.864  0.00  0.00    +0.000 C 
ATOM      9  C   UNL     1       2.124   8.197  18.128  0.00  0.00    +0.000 C 
ATOM     10  H   UNL     1      -1.020   9.923  16.762  0.00  0.00    +0.000 HD
ENDROOT
BRANCH   7  11
ATOM     11  C   UNL     1      -2.459  11.393  16.939  0.00  0.00    +0.000 C 
ATOM     12  C   UNL     1      -3.123  11.180  15.610  0.00  0.00    +0.000 C 
ATOM     13  C   UNL     1      -3.786  10.641  16.849  0.00  0.00    +0.000 C 
BRANCH  13  14
ATOM     14  C   UNL     1      -5.067  11.234  17.385  0.00  0.00    +0.000 A 
ATOM     15  C   UNL     1      -5.720  10.671  18.494  0.00  0.00    +0.000 A 
ATOM     16  C   UNL     1      -6.868  11.253  19.044  0.00  0.00    +0.000 A 
ATOM     17  C   UNL     1      -7.386  12.421  18.495  0.00  0.00    +0.000 A 
ATOM     18  C   UNL     1      -6.756  13.006  17.401  0.00  0.00    +0.000 A 
ATOM     19  C   UNL     1      -5.608  12.420  16.858  0.00  0.00    +0.000 A 
ENDBRANCH  13  14
ENDBRANCH   7  11
BRANCH   1  20
ATOM     20  O   UNL     1       1.931   6.280  19.672  0.00  0.00    +0.000 OA
BRANCH  20  27
ATOM     21  C   UNL     1       0.872   3.655  19.964  0.00  0.00    +0.000 C 
ATOM     22  C   UNL     1       2.031   3.962  19.064  0.00  0.00    +0.000 A 
ATOM     23  C   UNL     1       2.601   2.882  18.343  0.00  0.00    +0.000 A 
ATOM     24  C   UNL     1       3.631   3.105  17.435  0.00  0.00    +0.000 A 
ATOM     25  C   UNL     1       4.088   4.401  17.234  0.00  0.00    +0.000 A 
ATOM     26  C   UNL     1       3.540   5.476  17.955  0.00  0.00    +0.000 A 
ATOM     27  C   UNL     1       2.516   5.282  18.899  0.00  0.00    +0.000 A 
ENDBRANCH  20  27
ENDBRANCH   1  20
TORSDOF 4
ENDMDL
MODEL 5
REMARK VINA RESULT:      -7.2      1.008      1.703
REMARK  Name = 
REMARK  5 active torsions:
REMARK  status: ('A' for Active; 'I' for Inactive)
REMARK    1  A    between atoms: C_1  and  C_2
REMARK    2  A    between atoms: C_7  and  O_8
REMARK    3  A    between atoms: O_8  and  C_9
REMARK    4  A    between atoms: N_15  and  C_16
REMARK    5  A    between atoms: C_18  and  C_19
REMARK                            x       y       z     vdW  Elec       q    Type
REMARK                         _______ _______ _______ _____ _____    ______ ____
ROOT
ATOM      1  C   UNL     1      -0.505  13.440  21.148  0.00  0.00    +0.000 C 
ATOM      2  C   UNL     1      -1.207  13.229  19.800  0.00  0.00    +0.000 C 
ATOM      3  C   UNL     1      -1.090  11.855  19.142  0.00  0.00    +0.000 C 
ATOM      4  N   UNL     1       0.195  11.178  19.271  0.00  0.00    +0.000 N 
ATOM      5  C   UNL     1       0.364  10.026  18.453  0.00  0.00    +0.000 C 
ATOM      6  O   UNL     1      -0.397   9.737  17.544  0.00  0.00    +0.000 OA
ATOM      7  N   UNL     1       1.476   9.263  18.762  0.00  0.00    +0.000 N 
ATOM      8  C   UNL     1       0.955  11.388  20.501  0.00  0.00    +0.000 C 
ATOM      9  C   UNL     1       0.863  12.765  21.155  0.00  0.00    +0.000 C 
ATOM     10  H   UNL     1       1.839   9.354  19.694  0.00  0.00    +0.000 HD
ENDROOT
BRANCH   7  11
ATOM     11  C   UNL     1       1.863   8.046  18.096  0.00  0.00    +0.000 C 
ATOM     12  C   UNL     1       3.288   7.647  17.841  0.00  0.00    +0.000 C 
ATOM     13  C   UNL     1       2.539   6.990  18.969  0.00  0.00    +0.000 C 
BRANCH  13  14
ATOM     14  C   UNL     1       2.130   5.538  18.910  0.00  0.00    +0.000 A 
ATOM     15  C   UNL     1       2.432   4.743  17.791  0.00  0.00    +0.000 A 
ATOM     16  C   UNL     1       2.121   3.380  17.754  0.00  0.00    +0.000 A 
ATOM     17  C   UNL     1       1.503   2.777  18.844  0.00  0.00    +0.000 A 
ATOM     18  C   UNL     1       1.199   3.538  19.970  0.00  0.00    +0.000 A 
ATOM     19  C   UNL     1       1.514   4.900  20.001  0.00  0.00    +0.000 A 
ENDBRANCH  13  14
ENDBRANCH   7  11
BRANCH   1  20
ATOM     20  O   UNL     1      -1.306  13.067  22.295  0.00  0.00    +0.000 OA
BRANCH  20  27
ATOM     21  C   UNL     1      -3.563  12.578  23.958  0.00  0.00    +0.000 C 
ATOM     22  C   UNL     1      -2.697  13.791  24.110  0.00  0.00    +0.000 A 
ATOM     23  C   UNL     1      -3.039  14.713  25.132  0.00  0.00    +0.000 A 
ATOM     24  C   UNL     1      -2.238  15.822  25.379  0.00  0.00    +0.000 A 
ATOM     25  C   UNL     1      -1.091  16.013  24.620  0.00  0.00    +0.000 A 
ATOM     26  C   UNL     1      -0.751  15.112  23.595  0.00  0.00    +0.000 A 
ATOM     27  C   UNL     1      -1.552  13.995  23.302  0.00  0.00    +0.000 A 
ENDBRANCH  20  27
ENDBRANCH   1  20
TORSDOF 4
ENDMDL
MODEL 6
REMARK VINA RESULT:      -7.1      1.975      9.177
REMARK  Name = 
REMARK  5 active torsions:
REMARK  status: ('A' for Active; 'I' for Inactive)
REMARK    1  A    between atoms: C_1  and  C_2
REMARK    2  A    between atoms: C_7  and  O_8
REMARK    3  A    between atoms: O_8  and  C_9
REMARK    4  A    between atoms: N_15  and  C_16
REMARK    5  A    between atoms: C_18  and  C_19
REMARK                            x       y       z     vdW  Elec       q    Type
REMARK                         _______ _______ _______ _____ _____    ______ ____
ROOT
ATOM      1  C   UNL     1       2.960   6.620  18.451  0.00  0.00    +0.000 C 
ATOM      2  C   UNL     1       2.667   6.718  19.953  0.00  0.00    +0.000 C 
ATOM      3  C   UNL     1       1.593   7.704  20.409  0.00  0.00    +0.000 C 
ATOM      4  N   UNL     1       1.530   8.974  19.694  0.00  0.00    +0.000 N 
ATOM      5  C   UNL     1       0.701   9.967  20.284  0.00  0.00    +0.000 C 
ATOM      6  O   UNL     1       0.247   9.872  21.413  0.00  0.00    +0.000 OA
ATOM      7  N   UNL     1       0.459  11.065  19.477  0.00  0.00    +0.000 N 
ATOM      8  C   UNL     1       1.866   8.971  18.271  0.00  0.00    +0.000 C 
ATOM      9  C   UNL     1       2.953   8.004  17.809  0.00  0.00    +0.000 C 
ATOM     10  H   UNL     1       0.560  10.927  18.487  0.00  0.00    +0.000 HD
ENDROOT
BRANCH   7  11
ATOM     11  C   UNL     1      -0.356  12.198  19.832  0.00  0.00    +0.000 C 
ATOM     12  C   UNL     1      -0.997  13.115  18.831  0.00  0.00    +0.000 C 
ATOM     13  C   UNL     1      -1.846  12.077  19.513  0.00  0.00    +0.000 C 
BRANCH  13  14
ATOM     14  C   UNL     1      -2.901  12.456  20.524  0.00  0.00    +0.000 A 
ATOM     15  C   UNL     1      -4.217  12.748  20.127  0.00  0.00    +0.000 A 
ATOM     16  C   UNL     1      -5.220  13.030  21.061  0.00  0.00    +0.000 A 
ATOM     17  C   UNL     1      -4.927  13.022  22.420  0.00  0.00    +0.000 A 
ATOM     18  C   UNL     1      -3.635  12.729  22.844  0.00  0.00    +0.000 A 
ATOM     19  C   UNL     1      -2.637  12.445  21.905  0.00  0.00    +0.000 A 
ENDBRANCH  13  14
ENDBRANCH   7  11
BRANCH   1  20
ATOM     20  O   UNL     1       2.112   5.684  17.743  0.00  0.00    +0.000 OA
BRANCH  20  27
ATOM     21  C   UNL     1       4.224   4.040  16.775  0.00  0.00    +0.000 C 
ATOM     22  C   UNL     1       3.104   3.504  17.614  0.00  0.00    +0.000 A 
ATOM     23  C   UNL     1       3.125   2.120  17.922  0.00  0.00    +0.000 A 
ATOM     24  C   UNL     1       2.159   1.568  18.757  0.00  0.00    +0.000 A 
ATOM     25  C   UNL     1       1.178   2.390  19.295  0.00  0.00    +0.000 A 
ATOM     26  C   UNL     1       1.141   3.761  18.984  0.00  0.00    +0.000 A 
ATOM     27  C   UNL     1       2.086   4.346  18.123  0.00  0.00    +0.000 A 
ENDBRANCH  20  27
ENDBRANCH   1  20
TORSDOF 4
ENDMDL
MODEL 7
REMARK VINA RESULT:      -7.1      3.352      8.956
REMARK  Name = 
REMARK  5 active torsions:
REMARK  status: ('A' for Active; 'I' for Inactive)
REMARK    1  A    between atoms: C_1  and  C_2
REMARK    2  A    between atoms: C_7  and  O_8
REMARK    3  A    between atoms: O_8  and  C_9
REMARK    4  A    between atoms: N_15  and  C_16
REMARK    5  A    between atoms: C_18  and  C_19
REMARK                            x       y       z     vdW  Elec       q    Type
REMARK                         _______ _______ _______ _____ _____    ______ ____
ROOT
ATOM      1  C   UNL     1       2.422   7.536  19.606  0.00  0.00    +0.000 C 
ATOM      2  C   UNL     1       1.863   8.480  20.679  0.00  0.00    +0.000 C 
ATOM      3  C   UNL     1       0.536   9.180  20.393  0.00  0.00    +0.000 C 
ATOM      4  N   UNL     1       0.315   9.622  19.021  0.00  0.00    +0.000 N 
ATOM      5  C   UNL     1      -0.803  10.481  18.828  0.00  0.00    +0.000 C 
ATOM      6  O   UNL     1      -1.409  11.003  19.749  0.00  0.00    +0.000 OA
ATOM      7  N   UNL     1      -1.141  10.690  17.502  0.00  0.00    +0.000 N 
ATOM      8  C   UNL     1       0.879   8.809  17.945  0.00  0.00    +0.000 C 
ATOM      9  C   UNL     1       2.217   8.123  18.212  0.00  0.00    +0.000 C 
ATOM     10  H   UNL     1      -0.845   9.990  16.846  0.00  0.00    +0.000 HD
ENDROOT
BRANCH   7  11
ATOM     11  C   UNL     1      -2.236  11.504  17.040  0.00  0.00    +0.000 C 
ATOM     12  C   UNL     1      -3.078  11.173  15.842  0.00  0.00    +0.000 C 
ATOM     13  C   UNL     1      -3.633  10.910  17.216  0.00  0.00    +0.000 C 
BRANCH  13  14
ATOM     14  C   UNL     1      -4.771  11.726  17.781  0.00  0.00    +0.000 A 
ATOM     15  C   UNL     1      -4.844  12.020  19.153  0.00  0.00    +0.000 A 
ATOM     16  C   UNL     1      -5.854  12.835  19.676  0.00  0.00    +0.000 A 
ATOM     17  C   UNL     1      -6.815  13.380  18.832  0.00  0.00    +0.000 A 
ATOM     18  C   UNL     1      -6.765  13.112  17.468  0.00  0.00    +0.000 A 
ATOM     19  C   UNL     1      -5.751  12.299  16.950  0.00  0.00    +0.000 A 
ENDBRANCH  13  14
ENDBRANCH   7  11
BRANCH   1  20
ATOM     20  O   UNL     1       1.936   6.176  19.705  0.00  0.00    +0.000 OA
BRANCH  20  27
ATOM     21  C   UNL     1       0.955   3.630  20.512  0.00  0.00    +0.000 C 
ATOM     22  C   UNL     1       2.371   3.846  20.072  0.00  0.00    +0.000 A 
ATOM     23  C   UNL     1       3.233   2.720  20.067  0.00  0.00    +0.000 A 
ATOM     24  C   UNL     1       4.538   2.831  19.601  0.00  0.00    +0.000 A 
ATOM     25  C   UNL     1       4.987   4.058  19.129  0.00  0.00    +0.000 A 
ATOM     26  C   UNL     1       4.145   5.184  19.143  0.00  0.00    +0.000 A 
ATOM     27  C   UNL     1       2.829   5.112  19.632  0.00  0.00    +0.000 A 
ENDBRANCH  20  27
ENDBRANCH   1  20
TORSDOF 4
ENDMDL
MODEL 8
REMARK VINA RESULT:      -7.1      3.844      5.810
REMARK  Name = 
REMARK  5 active torsions:
REMARK  status: ('A' for Active; 'I' for Inactive)
REMARK    1  A    between atoms: C_1  and  C_2
REMARK    2  A    between atoms: C_7  and  O_8
REMARK    3  A    between atoms: O_8  and  C_9
REMARK    4  A    between atoms: N_15  and  C_16
REMARK    5  A    between atoms: C_18  and  C_19
REMARK                            x       y       z     vdW  Elec       q    Type
REMARK                         _______ _______ _______ _____ _____    ______ ____
ROOT
ATOM      1  C   UNL     1       0.651   9.658  19.455  0.00  0.00    +0.000 C 
ATOM      2  C   UNL     1       0.873   8.437  20.357  0.00  0.00    +0.000 C 
ATOM      3  C   UNL     1       2.131   7.601  20.131  0.00  0.00    +0.000 C 
ATOM      4  N   UNL     1       2.552   7.418  18.746  0.00  0.00    +0.000 N 
ATOM      5  C   UNL     1       3.569   6.446  18.540  0.00  0.00    +0.000 C 
ATOM      6  O   UNL     1       3.918   5.654  19.401  0.00  0.00    +0.000 OA
ATOM      7  N   UNL     1       4.124   6.458  17.273  0.00  0.00    +0.000 N 
ATOM      8  C   UNL     1       2.309   8.515  17.811  0.00  0.00    +0.000 C 
ATOM      9  C   UNL     1       1.042   9.342  18.015  0.00  0.00    +0.000 C 
ATOM     10  H   UNL     1       4.048   7.316  16.757  0.00  0.00    +0.000 HD
ENDROOT
BRANCH   7  11
ATOM     11  C   UNL     1       5.176   5.588  16.815  0.00  0.00    +0.000 C 
ATOM     12  C   UNL     1       5.219   4.112  17.085  0.00  0.00    +0.000 C 
ATOM     13  C   UNL     1       4.792   4.589  15.723  0.00  0.00    +0.000 C 
BRANCH  13  14
ATOM     14  C   UNL     1       5.658   4.384  14.503  0.00  0.00    +0.000 A 
ATOM     15  C   UNL     1       5.223   3.589  13.429  0.00  0.00    +0.000 A 
ATOM     16  C   UNL     1       5.986   3.449  12.264  0.00  0.00    +0.000 A 
ATOM     17  C   UNL     1       7.204   4.110  12.147  0.00  0.00    +0.000 A 
ATOM     18  C   UNL     1       7.656   4.910  13.191  0.00  0.00    +0.000 A 
ATOM     19  C   UNL     1       6.888   5.047  14.352  0.00  0.00    +0.000 A 
ENDBRANCH  13  14
ENDBRANCH   7  11
BRANCH   1  20
ATOM     20  O   UNL     1       1.276  10.871  19.940  0.00  0.00    +0.000 OA
BRANCH  20  27
ATOM     21  C   UNL     1       2.519  12.756  18.208  0.00  0.00    +0.000 C 
ATOM     22  C   UNL     1       1.260  13.061  18.961  0.00  0.00    +0.000 A 
ATOM     23  C   UNL     1       0.688  14.346  18.784  0.00  0.00    +0.000 A 
ATOM     24  C   UNL     1      -0.519  14.673  19.394  0.00  0.00    +0.000 A 
ATOM     25  C   UNL     1      -1.165  13.720  20.171  0.00  0.00    +0.000 A 
ATOM     26  C   UNL     1      -0.599  12.448  20.364  0.00  0.00    +0.000 A 
ATOM     27  C   UNL     1       0.632  12.094  19.784  0.00  0.00    +0.000 A 
ENDBRANCH  20  27
ENDBRANCH   1  20
TORSDOF 4
ENDMDL
MODEL 9
REMARK VINA RESULT:      -7.1      2.510      9.263
REMARK  Name = 
REMARK  5 active torsions:
REMARK  status: ('A' for Active; 'I' for Inactive)
REMARK    1  A    between atoms: C_1  and  C_2
REMARK    2  A    between atoms: C_7  and  O_8
REMARK    3  A    between atoms: O_8  and  C_9
REMARK    4  A    between atoms: N_15  and  C_16
REMARK    5  A    between atoms: C_18  and  C_19
REMARK                            x       y       z     vdW  Elec       q    Type
REMARK                         _______ _______ _______ _____ _____    ______ ____
ROOT
ATOM      1  C   UNL     1       2.701   6.823  18.627  0.00  0.00    +0.000 C 
ATOM      2  C   UNL     1       2.632   6.963  20.153  0.00  0.00    +0.000 C 
ATOM      3  C   UNL     1       1.491   7.788  20.744  0.00  0.00    +0.000 C 
ATOM      4  N   UNL     1       1.103   8.985  20.006  0.00  0.00    +0.000 N 
ATOM      5  C   UNL     1       0.218   9.865  20.690  0.00  0.00    +0.000 C 
ATOM      6  O   UNL     1      -0.032   9.766  21.880  0.00  0.00    +0.000 OA
ATOM      7  N   UNL     1      -0.328  10.858  19.896  0.00  0.00    +0.000 N 
ATOM      8  C   UNL     1       1.209   8.951  18.549  0.00  0.00    +0.000 C 
ATOM      9  C   UNL     1       2.360   8.146  17.948  0.00  0.00    +0.000 C 
ATOM     10  H   UNL     1      -0.360  10.678  18.908  0.00  0.00    +0.000 HD
ENDROOT
BRANCH   7  11
ATOM     11  C   UNL     1      -1.259  11.863  20.340  0.00  0.00    +0.000 C 
ATOM     12  C   UNL     1      -1.314  13.257  19.787  0.00  0.00    +0.000 C 
ATOM     13  C   UNL     1      -2.347  12.257  19.342  0.00  0.00    +0.000 C 
BRANCH  13  14
ATOM     14  C   UNL     1      -3.793  12.374  19.758  0.00  0.00    +0.000 A 
ATOM     15  C   UNL     1      -4.826  11.875  18.945  0.00  0.00    +0.000 A 
ATOM     16  C   UNL     1      -6.164  11.913  19.352  0.00  0.00    +0.000 A 
ATOM     17  C   UNL     1      -6.499  12.449  20.591  0.00  0.00    +0.000 A 
ATOM     18  C   UNL     1      -5.497  12.944  21.421  0.00  0.00    +0.000 A 
ATOM     19  C   UNL     1      -4.161  12.901  21.008  0.00  0.00    +0.000 A 
ENDBRANCH  13  14
ENDBRANCH   7  11
BRANCH   1  20
ATOM     20  O   UNL     1       1.925   5.721  18.099  0.00  0.00    +0.000 OA
BRANCH  20  27
ATOM     21  C   UNL     1       0.798   3.903  19.976  0.00  0.00    +0.000 C 
ATOM     22  C   UNL     1       1.931   3.528  19.070  0.00  0.00    +0.000 A 
ATOM     23  C   UNL     1       2.441   2.209  19.175  0.00  0.00    +0.000 A 
ATOM     24  C   UNL     1       3.443   1.768  18.316  0.00  0.00    +0.000 A 
ATOM     25  C   UNL     1       3.932   2.633  17.346  0.00  0.00    +0.000 A 
ATOM     26  C   UNL     1       3.443   3.947  17.243  0.00  0.00    +0.000 A 
ATOM     27  C   UNL     1       2.450   4.433  18.112  0.00  0.00    +0.000 A 
ENDBRANCH  20  27
ENDBRANCH   1  20
TORSDOF 4
ENDMDL
