MODEL 1
REMARK VINA RESULT:      -9.3      0.000      0.000
REMARK  Name = 
REMARK  5 active torsions:
REMARK  status: ('A' for Active; 'I' for Inactive)
REMARK    1  A    between atoms: C_7  and  N_8
REMARK    2  A    between atoms: C_10  and  C_11
REMARK    3  A    between atoms: C_14  and  N_15
REMARK    4  A    between atoms: C_17  and  C_18
REMARK    5  A    between atoms: C_23  and  C_24
REMARK                            x       y       z     vdW  Elec       q    Type
REMARK                         _______ _______ _______ _____ _____    ______ ____
ROOT
ATOM      1  C   UNL     1       1.316   9.121  19.320  0.00  0.00    +0.000 A 
ATOM      2  C   UNL     1       1.769   9.117  17.993  0.00  0.00    +0.000 A 
ATOM      3  C   UNL     1       2.567   8.077  17.513  0.00  0.00    +0.000 A 
ATOM      4  C   UNL     1       2.893   7.000  18.347  0.00  0.00    +0.000 A 
ATOM      5  C   UNL     1       2.467   7.004  19.679  0.00  0.00    +0.000 A 
ATOM      6  C   UNL     1       1.680   8.058  20.157  0.00  0.00    +0.000 A 
ENDROOT
BRANCH   1   9
ATOM      7  N   UNL     1      -0.209  11.913  21.004  0.00  0.00    +0.000 N 
ATOM      8  C   UNL     1       0.895  11.126  20.797  0.00  0.00    +0.000 A 
ATOM      9  C   UNL     1       0.509  10.207  19.848  0.00  0.00    +0.000 A 
ATOM     10  N   UNL     1      -0.783  10.462  19.481  0.00  0.00    +0.000 NA
ATOM     11  N   UNL     1      -1.213  11.504  20.185  0.00  0.00    +0.000 NA
BRANCH   7  18
ATOM     12  F   UNL     1      -1.891  11.759  23.316  0.00  0.00    +0.000 F 
ATOM     13  C   UNL     1      -1.223  12.878  23.015  0.00  0.00    +0.000 A 
ATOM     14  C   UNL     1      -1.364  13.975  23.846  0.00  0.00    +0.000 A 
ATOM     15  N   UNL     1      -0.740  15.158  23.647  0.00  0.00    +0.000 NA
ATOM     16  C   UNL     1       0.066  15.243  22.566  0.00  0.00    +0.000 A 
ATOM     17  C   UNL     1       0.273  14.200  21.676  0.00  0.00    +0.000 A 
ATOM     18  C   UNL     1      -0.390  12.987  21.905  0.00  0.00    +0.000 A 
ENDBRANCH   7  18
ENDBRANCH   1   9
BRANCH   4  19
ATOM     19  N   UNL     1       3.690   5.947  17.828  0.00  0.00    +0.000 N 
ATOM     20  N   UNL     1       4.942   6.243  17.380  0.00  0.00    +0.000 NA
ATOM     21  C   UNL     1       5.561   5.059  17.229  0.00  0.00    +0.000 A 
ATOM     22  C   UNL     1       4.641   4.003  17.412  0.00  0.00    +0.000 A 
ATOM     23  C   UNL     1       3.433   4.601  17.719  0.00  0.00    +0.000 A 
BRANCH  21  24
ATOM     24  C   UNL     1       7.020   4.917  16.875  0.00  0.00    +0.000 C 
ATOM     25  F   UNL     1       7.241   4.275  15.698  0.00  0.00    +0.000 F 
ATOM     26  F   UNL     1       7.623   6.134  16.777  0.00  0.00    +0.000 F 
ATOM     27  F   UNL     1       7.699   4.230  17.834  0.00  0.00    +0.000 F 
ENDBRANCH  21  24
BRANCH  23  28
ATOM     28  C   UNL     1       2.101   3.985  17.830  0.00  0.00    +0.000 C 
ATOM     29  F   UNL     1       1.104   4.668  17.222  0.00  0.00    +0.000 F 
ATOM     30  F   UNL     1       2.098   2.746  17.271  0.00  0.00    +0.000 F 
ATOM     31  F   UNL     1       1.743   3.826  19.128  0.00  0.00    +0.000 F 
ENDBRANCH  23  28
ENDBRANCH   4  19
TORSDOF 5
ENDMDL
MODEL 2
REMARK VINA RESULT:      -9.2      0.144      1.293
REMARK  Name = 
REMARK  5 active torsions:
REMARK  status: ('A' for Active; 'I' for Inactive)
REMARK    1  A    between atoms: C_7  and  N_8
REMARK    2  A    between atoms: C_10  and  C_11
REMARK    3  A    between atoms: C_14  and  N_15
REMARK    4  A    between atoms: C_17  and  C_18
REMARK    5  A    between atoms: C_23  and  C_24
REMARK                            x       y       z     vdW  Elec       q    Type
REMARK                         _______ _______ _______ _____ _____    ______ ____
ROOT
ATOM      1  C   UNL     1       1.288   9.145  19.395  0.00  0.00    +0.000 A 
ATOM      2  C   UNL     1       1.687   8.071  20.205  0.00  0.00    +0.000 A 
ATOM      3  C   UNL     1       2.430   7.015  19.675  0.00  0.00    +0.000 A 
ATOM      4  C   UNL     1       2.820   7.035  18.331  0.00  0.00    +0.000 A 
ATOM      5  C   UNL     1       2.409   8.088  17.508  0.00  0.00    +0.000 A 
ATOM      6  C   UNL     1       1.651   9.136  18.042  0.00  0.00    +0.000 A 
ENDROOT
BRANCH   1   9
ATOM      7  N   UNL     1      -0.218  11.952  21.071  0.00  0.00    +0.000 N 
ATOM      8  C   UNL     1       0.878  11.151  20.873  0.00  0.00    +0.000 A 
ATOM      9  C   UNL     1       0.490  10.240  19.918  0.00  0.00    +0.000 A 
ATOM     10  N   UNL     1      -0.795  10.512  19.538  0.00  0.00    +0.000 NA
ATOM     11  N   UNL     1      -1.219  11.558  20.240  0.00  0.00    +0.000 NA
BRANCH   7  18
ATOM     12  F   UNL     1      -1.959  11.828  23.341  0.00  0.00    +0.000 F 
ATOM     13  C   UNL     1      -1.257  12.932  23.062  0.00  0.00    +0.000 A 
ATOM     14  C   UNL     1      -1.391  14.028  23.895  0.00  0.00    +0.000 A 
ATOM     15  N   UNL     1      -0.733  15.196  23.718  0.00  0.00    +0.000 NA
ATOM     16  C   UNL     1       0.100  15.267  22.657  0.00  0.00    +0.000 A 
ATOM     17  C   UNL     1       0.303  14.223  21.767  0.00  0.00    +0.000 A 
ATOM     18  C   UNL     1      -0.395  13.026  21.973  0.00  0.00    +0.000 A 
ENDBRANCH   7  18
ENDBRANCH   1   9
BRANCH   4  19
ATOM     19  N   UNL     1       3.590   5.957  17.823  0.00  0.00    +0.000 N 
ATOM     20  N   UNL     1       4.828   6.225  17.321  0.00  0.00    +0.000 NA
ATOM     21  C   UNL     1       5.432   5.031  17.191  0.00  0.00    +0.000 A 
ATOM     22  C   UNL     1       4.511   3.990  17.444  0.00  0.00    +0.000 A 
ATOM     23  C   UNL     1       3.319   4.610  17.771  0.00  0.00    +0.000 A 
BRANCH  21  24
ATOM     24  C   UNL     1       6.876   4.862  16.792  0.00  0.00    +0.000 C 
ATOM     25  F   UNL     1       7.635   4.229  17.724  0.00  0.00    +0.000 F 
ATOM     26  F   UNL     1       6.987   4.143  15.641  0.00  0.00    +0.000 F 
ATOM     27  F   UNL     1       7.468   6.064  16.550  0.00  0.00    +0.000 F 
ENDBRANCH  21  24
BRANCH  23  28
ATOM     28  C   UNL     1       1.986   4.011  17.950  0.00  0.00    +0.000 C 
ATOM     29  F   UNL     1       1.525   4.017  19.221  0.00  0.00    +0.000 F 
ATOM     30  F   UNL     1       1.059   4.677  17.214  0.00  0.00    +0.000 F 
ATOM     31  F   UNL     1       1.969   2.724  17.523  0.00  0.00    +0.000 F 
ENDBRANCH  23  28
ENDBRANCH   4  19
TORSDOF 5
ENDMDL
MODEL 3
REMARK VINA RESULT:      -9.2      1.402      1.821
REMARK  Name = 
REMARK  5 active torsions:
REMARK  status: ('A' for Active; 'I' for Inactive)
REMARK    1  A    between atoms: C_7  and  N_8
REMARK    2  A    between atoms: C_10  and  C_11
REMARK    3  A    between atoms: C_14  and  N_15
REMARK    4  A    between atoms: C_17  and  C_18
REMARK    5  A    between atoms: C_23  and  C_24
REMARK                            x       y       z     vdW  Elec       q    Type
REMARK                         _______ _______ _______ _____ _____    ______ ____
ROOT
ATOM      1  C   UNL     1       1.353   9.231  19.295  0.00  0.00    +0.000 A 
ATOM      2  C   UNL     1       1.807   9.207  17.968  0.00  0.00    +0.000 A 
ATOM      3  C   UNL     1       2.559   8.133  17.489  0.00  0.00    +0.000 A 
ATOM      4  C   UNL     1       2.835   7.043  18.324  0.00  0.00    +0.000 A 
ATOM      5  C   UNL     1       2.407   7.065  19.655  0.00  0.00    +0.000 A 
ATOM      6  C   UNL     1       1.668   8.153  20.132  0.00  0.00    +0.000 A 
ENDROOT
BRANCH   1   9
ATOM      7  N   UNL     1      -0.901  11.581  20.829  0.00  0.00    +0.000 N 
ATOM      8  C   UNL     1      -0.509  10.280  20.640  0.00  0.00    +0.000 A 
ATOM      9  C   UNL     1       0.595  10.352  19.821  0.00  0.00    +0.000 A 
ATOM     10  N   UNL     1       0.867  11.666  19.555  0.00  0.00    +0.000 NA
ATOM     11  N   UNL     1      -0.044  12.409  20.175  0.00  0.00    +0.000 NA
BRANCH   7  18
ATOM     12  F   UNL     1      -1.291  11.134  23.631  0.00  0.00    +0.000 F 
ATOM     13  C   UNL     1      -2.165  11.847  22.911  0.00  0.00    +0.000 A 
ATOM     14  C   UNL     1      -3.277  12.366  23.549  0.00  0.00    +0.000 A 
ATOM     15  N   UNL     1      -4.228  13.103  22.930  0.00  0.00    +0.000 NA
ATOM     16  C   UNL     1      -4.052  13.331  21.610  0.00  0.00    +0.000 A 
ATOM     17  C   UNL     1      -2.971  12.855  20.884  0.00  0.00    +0.000 A 
ATOM     18  C   UNL     1      -2.004  12.091  21.550  0.00  0.00    +0.000 A 
ENDBRANCH   7  18
ENDBRANCH   1   9
BRANCH   4  19
ATOM     19  N   UNL     1       3.585   5.955  17.806  0.00  0.00    +0.000 N 
ATOM     20  N   UNL     1       4.821   6.208  17.291  0.00  0.00    +0.000 NA
ATOM     21  C   UNL     1       5.407   5.006  17.153  0.00  0.00    +0.000 A 
ATOM     22  C   UNL     1       4.476   3.977  17.415  0.00  0.00    +0.000 A 
ATOM     23  C   UNL     1       3.296   4.612  17.756  0.00  0.00    +0.000 A 
BRANCH  21  24
ATOM     24  C   UNL     1       6.845   4.819  16.738  0.00  0.00    +0.000 C 
ATOM     25  F   UNL     1       7.619   4.226  17.683  0.00  0.00    +0.000 F 
ATOM     26  F   UNL     1       6.937   4.050  15.618  0.00  0.00    +0.000 F 
ATOM     27  F   UNL     1       7.432   6.008  16.434  0.00  0.00    +0.000 F 
ENDBRANCH  21  24
BRANCH  23  28
ATOM     28  C   UNL     1       1.957   4.030  17.949  0.00  0.00    +0.000 C 
ATOM     29  F   UNL     1       1.510   4.042  19.226  0.00  0.00    +0.000 F 
ATOM     30  F   UNL     1       1.031   4.707  17.222  0.00  0.00    +0.000 F 
ATOM     31  F   UNL     1       1.919   2.743  17.523  0.00  0.00    +0.000 F 
ENDBRANCH  23  28
ENDBRANCH   4  19
TORSDOF 5
ENDMDL
MODEL 4
REMARK VINA RESULT:      -9.2      1.467      2.126
REMARK  Name = 
REMARK  5 active torsions:
REMARK  status: ('A' for Active; 'I' for Inactive)
REMARK    1  A    between atoms: C_7  and  N_8
REMARK    2  A    between atoms: C_10  and  C_11
REMARK    3  A    between atoms: C_14  and  N_15
REMARK    4  A    between atoms: C_17  and  C_18
REMARK    5  A    between atoms: C_23  and  C_24
REMARK                            x       y       z     vdW  Elec       q    Type
REMARK                         _______ _______ _______ _____ _____    ______ ____
ROOT
ATOM      1  C   UNL     1       1.326   9.007  19.906  0.00  0.00    +0.000 A 
ATOM      2  C   UNL     1       1.716   7.840  20.579  0.00  0.00    +0.000 A 
ATOM      3  C   UNL     1       2.397   6.822  19.909  0.00  0.00    +0.000 A 
ATOM      4  C   UNL     1       2.736   6.975  18.559  0.00  0.00    +0.000 A 
ATOM      5  C   UNL     1       2.333   8.123  17.871  0.00  0.00    +0.000 A 
ATOM      6  C   UNL     1       1.636   9.132  18.546  0.00  0.00    +0.000 A 
ENDROOT
BRANCH   1   9
ATOM      7  N   UNL     1      -0.964  11.459  21.209  0.00  0.00    +0.000 N 
ATOM      8  C   UNL     1      -0.742  10.363  20.414  0.00  0.00    +0.000 A 
ATOM      9  C   UNL     1       0.591  10.065  20.576  0.00  0.00    +0.000 A 
ATOM     10  N   UNL     1       1.139  10.944  21.469  0.00  0.00    +0.000 NA
ATOM     11  N   UNL     1       0.187  11.787  21.853  0.00  0.00    +0.000 NA
BRANCH   7  18
ATOM     12  F   UNL     1      -2.447  11.484  23.659  0.00  0.00    +0.000 F 
ATOM     13  C   UNL     1      -2.846  12.193  22.597  0.00  0.00    +0.000 A 
ATOM     14  C   UNL     1      -4.003  12.943  22.700  0.00  0.00    +0.000 A 
ATOM     15  N   UNL     1      -4.505  13.699  21.698  0.00  0.00    +0.000 NA
ATOM     16  C   UNL     1      -3.811  13.706  20.539  0.00  0.00    +0.000 A 
ATOM     17  C   UNL     1      -2.641  12.989  20.338  0.00  0.00    +0.000 A 
ATOM     18  C   UNL     1      -2.146  12.211  21.393  0.00  0.00    +0.000 A 
ENDBRANCH   7  18
ENDBRANCH   1   9
BRANCH   4  19
ATOM     19  N   UNL     1       3.445   5.933  17.907  0.00  0.00    +0.000 N 
ATOM     20  N   UNL     1       4.669   6.213  17.381  0.00  0.00    +0.000 NA
ATOM     21  C   UNL     1       5.223   5.021  17.100  0.00  0.00    +0.000 A 
ATOM     22  C   UNL     1       4.276   3.989  17.283  0.00  0.00    +0.000 A 
ATOM     23  C   UNL     1       3.123   4.608  17.726  0.00  0.00    +0.000 A 
BRANCH  21  24
ATOM     24  C   UNL     1       6.643   4.850  16.621  0.00  0.00    +0.000 C 
ATOM     25  F   UNL     1       7.248   6.012  16.265  0.00  0.00    +0.000 F 
ATOM     26  F   UNL     1       7.421   4.282  17.583  0.00  0.00    +0.000 F 
ATOM     27  F   UNL     1       6.707   4.023  15.541  0.00  0.00    +0.000 F 
ENDBRANCH  21  24
BRANCH  23  28
ATOM     28  C   UNL     1       1.777   4.036  17.900  0.00  0.00    +0.000 C 
ATOM     29  F   UNL     1       1.298   4.082  19.164  0.00  0.00    +0.000 F 
ATOM     30  F   UNL     1       0.871   4.699  17.134  0.00  0.00    +0.000 F 
ATOM     31  F   UNL     1       1.744   2.740  17.505  0.00  0.00    +0.000 F 
ENDBRANCH  23  28
ENDBRANCH   4  19
TORSDOF 5
ENDMDL
MODEL 5
REMARK VINA RESULT:      -9.2      1.586      2.049
REMARK  Name = 
REMARK  5 active torsions:
REMARK  status: ('A' for Active; 'I' for Inactive)
REMARK    1  A    between atoms: C_7  and  N_8
REMARK    2  A    between atoms: C_10  and  C_11
REMARK    3  A    between atoms: C_14  and  N_15
REMARK    4  A    between atoms: C_17  and  C_18
REMARK    5  A    between atoms: C_23  and  C_24
REMARK                            x       y       z     vdW  Elec       q    Type
REMARK                         _______ _______ _______ _____ _____    ______ ____
ROOT
ATOM      1  C   UNL     1       1.317   9.204  19.370  0.00  0.00    +0.000 A 
ATOM      2  C   UNL     1       1.776   9.193  18.045  0.00  0.00    +0.000 A 
ATOM      3  C   UNL     1       2.546   8.132  17.564  0.00  0.00    +0.000 A 
ATOM      4  C   UNL     1       2.837   7.043  18.395  0.00  0.00    +0.000 A 
ATOM      5  C   UNL     1       2.405   7.053  19.724  0.00  0.00    +0.000 A 
ATOM      6  C   UNL     1       1.646   8.127  20.203  0.00  0.00    +0.000 A 
ENDROOT
BRANCH   1   9
ATOM      7  N   UNL     1      -0.978  11.511  20.908  0.00  0.00    +0.000 N 
ATOM      8  C   UNL     1      -0.565  10.217  20.715  0.00  0.00    +0.000 A 
ATOM      9  C   UNL     1       0.539  10.310  19.899  0.00  0.00    +0.000 A 
ATOM     10  N   UNL     1       0.790  11.629  19.638  0.00  0.00    +0.000 NA
ATOM     11  N   UNL     1      -0.134  12.355  20.258  0.00  0.00    +0.000 NA
BRANCH   7  18
ATOM     12  F   UNL     1      -3.235  12.756  19.659  0.00  0.00    +0.000 F 
ATOM     13  C   UNL     1      -3.168  12.608  20.987  0.00  0.00    +0.000 A 
ATOM     14  C   UNL     1      -4.217  13.076  21.758  0.00  0.00    +0.000 A 
ATOM     15  N   UNL     1      -4.265  12.982  23.106  0.00  0.00    +0.000 NA
ATOM     16  C   UNL     1      -3.212  12.387  23.709  0.00  0.00    +0.000 A 
ATOM     17  C   UNL     1      -2.116  11.884  23.024  0.00  0.00    +0.000 A 
ATOM     18  C   UNL     1      -2.091  12.000  21.628  0.00  0.00    +0.000 A 
ENDBRANCH   7  18
ENDBRANCH   1   9
BRANCH   4  19
ATOM     19  N   UNL     1       3.606   5.970  17.875  0.00  0.00    +0.000 N 
ATOM     20  N   UNL     1       4.855   6.238  17.401  0.00  0.00    +0.000 NA
ATOM     21  C   UNL     1       5.450   5.042  17.253  0.00  0.00    +0.000 A 
ATOM     22  C   UNL     1       4.516   4.004  17.466  0.00  0.00    +0.000 A 
ATOM     23  C   UNL     1       3.324   4.627  17.786  0.00  0.00    +0.000 A 
BRANCH  21  24
ATOM     24  C   UNL     1       6.900   4.869  16.876  0.00  0.00    +0.000 C 
ATOM     25  F   UNL     1       7.641   4.228  17.816  0.00  0.00    +0.000 F 
ATOM     26  F   UNL     1       7.026   4.155  15.723  0.00  0.00    +0.000 F 
ATOM     27  F   UNL     1       7.500   6.069  16.649  0.00  0.00    +0.000 F 
ENDBRANCH  21  24
BRANCH  23  28
ATOM     28  C   UNL     1       1.983   4.036  17.928  0.00  0.00    +0.000 C 
ATOM     29  F   UNL     1       1.516   3.981  19.196  0.00  0.00    +0.000 F 
ATOM     30  F   UNL     1       1.067   4.752  17.225  0.00  0.00    +0.000 F 
ATOM     31  F   UNL     1       1.951   2.774  17.433  0.00  0.00    +0.000 F 
ENDBRANCH  23  28
ENDBRANCH   4  19
TORSDOF 5
ENDMDL
MODEL 6
REMARK VINA RESULT:      -9.2      1.592      2.133
REMARK  Name = 
REMARK  5 active torsions:
REMARK  status: ('A' for Active; 'I' for Inactive)
REMARK    1  A    between atoms: C_7  and  N_8
REMARK    2  A    between atoms: C_10  and  C_11
REMARK    3  A    between atoms: C_14  and  N_15
REMARK    4  A    between atoms: C_17  and  C_18
REMARK    5  A    between atoms: C_23  and  C_24
REMARK                            x       y       z     vdW  Elec       q    Type
REMARK                         _______ _______ _______ _____ _____    ______ ____
ROOT
ATOM      1  C   UNL     1       1.417   9.135  19.507  0.00  0.00    +0.000 A 
ATOM      2  C   UNL     1       1.767   8.005  20.261  0.00  0.00    +0.000 A 
ATOM      3  C   UNL     1       2.454   6.940  19.675  0.00  0.00    +0.000 A 
ATOM      4  C   UNL     1       2.836   7.006  18.330  0.00  0.00    +0.000 A 
ATOM      5  C   UNL     1       2.473   8.116  17.562  0.00  0.00    +0.000 A 
ATOM      6  C   UNL     1       1.771   9.173  18.152  0.00  0.00    +0.000 A 
ENDROOT
BRANCH   1   9
ATOM      7  N   UNL     1      -0.852  11.461  21.053  0.00  0.00    +0.000 N 
ATOM      8  C   UNL     1      -0.540  10.167  20.723  0.00  0.00    +0.000 A 
ATOM      9  C   UNL     1       0.678  10.241  20.088  0.00  0.00    +0.000 A 
ATOM     10  N   UNL     1       1.091  11.545  20.068  0.00  0.00    +0.000 NA
ATOM     11  N   UNL     1       0.158  12.282  20.660  0.00  0.00    +0.000 NA
BRANCH   7  18
ATOM     12  F   UNL     1      -2.980  12.742  19.627  0.00  0.00    +0.000 F 
ATOM     13  C   UNL     1      -3.021  12.598  20.957  0.00  0.00    +0.000 A 
ATOM     14  C   UNL     1      -4.118  13.089  21.641  0.00  0.00    +0.000 A 
ATOM     15  N   UNL     1      -4.274  13.002  22.981  0.00  0.00    +0.000 NA
ATOM     16  C   UNL     1      -3.283  12.391  23.667  0.00  0.00    +0.000 A 
ATOM     17  C   UNL     1      -2.146  11.866  23.072  0.00  0.00    +0.000 A 
ATOM     18  C   UNL     1      -2.009  11.974  21.682  0.00  0.00    +0.000 A 
ENDBRANCH   7  18
ENDBRANCH   1   9
BRANCH   4  19
ATOM     19  N   UNL     1       3.548   5.916  17.764  0.00  0.00    +0.000 N 
ATOM     20  N   UNL     1       4.770   6.158  17.213  0.00  0.00    +0.000 NA
ATOM     21  C   UNL     1       5.329   4.949  17.030  0.00  0.00    +0.000 A 
ATOM     22  C   UNL     1       4.388   3.931  17.301  0.00  0.00    +0.000 A 
ATOM     23  C   UNL     1       3.232   4.580  17.695  0.00  0.00    +0.000 A 
BRANCH  21  24
ATOM     24  C   UNL     1       6.749   4.745  16.564  0.00  0.00    +0.000 C 
ATOM     25  F   UNL     1       6.862   3.930  15.483  0.00  0.00    +0.000 F 
ATOM     26  F   UNL     1       7.329   5.929  16.223  0.00  0.00    +0.000 F 
ATOM     27  F   UNL     1       7.523   4.209  17.546  0.00  0.00    +0.000 F 
ENDBRANCH  21  24
BRANCH  23  28
ATOM     28  C   UNL     1       1.890   4.018  17.920  0.00  0.00    +0.000 C 
ATOM     29  F   UNL     1       1.455   4.076  19.199  0.00  0.00    +0.000 F 
ATOM     30  F   UNL     1       0.963   4.682  17.181  0.00  0.00    +0.000 F 
ATOM     31  F   UNL     1       1.835   2.719  17.536  0.00  0.00    +0.000 F 
ENDBRANCH  23  28
ENDBRANCH   4  19
TORSDOF 5
ENDMDL
MODEL 7
REMARK VINA RESULT:      -9.1      1.399      1.699
REMARK  Name = 
REMARK  5 active torsions:
REMARK  status: ('A' for Active; 'I' for Inactive)
REMARK    1  A    between atoms: C_7  and  N_8
REMARK    2  A    between atoms: C_10  and  C_11
REMARK    3  A    between atoms: C_14  and  N_15
REMARK    4  A    between atoms: C_17  and  C_18
REMARK    5  A    between atoms: C_23  and  C_24
REMARK                            x       y       z     vdW  Elec       q    Type
REMARK                         _______ _______ _______ _____ _____    ______ ____
ROOT
ATOM      1  C   UNL     1       1.391   8.614  20.145  0.00  0.00    +0.000 A 
ATOM      2  C   UNL     1       1.728   8.840  18.802  0.00  0.00    +0.000 A 
ATOM      3  C   UNL     1       2.471   7.901  18.084  0.00  0.00    +0.000 A 
ATOM      4  C   UNL     1       2.855   6.698  18.689  0.00  0.00    +0.000 A 
ATOM      5  C   UNL     1       2.545   6.471  20.034  0.00  0.00    +0.000 A 
ATOM      6  C   UNL     1       1.814   7.424  20.752  0.00  0.00    +0.000 A 
ENDROOT
BRANCH   1   9
ATOM      7  N   UNL     1      -0.757  11.142  21.540  0.00  0.00    +0.000 N 
ATOM      8  C   UNL     1      -0.422  10.339  20.480  0.00  0.00    +0.000 A 
ATOM      9  C   UNL     1       0.645   9.589  20.919  0.00  0.00    +0.000 A 
ATOM     10  N   UNL     1       0.917   9.920  22.218  0.00  0.00    +0.000 NA
ATOM     11  N   UNL     1       0.058  10.863  22.591  0.00  0.00    +0.000 NA
BRANCH   7  18
ATOM     12  F   UNL     1      -2.631  11.301  23.700  0.00  0.00    +0.000 F 
ATOM     13  C   UNL     1      -2.653  12.182  22.693  0.00  0.00    +0.000 A 
ATOM     14  C   UNL     1      -3.611  13.180  22.709  0.00  0.00    +0.000 A 
ATOM     15  N   UNL     1      -3.731  14.127  21.751  0.00  0.00    +0.000 NA
ATOM     16  C   UNL     1      -2.847  14.071  20.731  0.00  0.00    +0.000 A 
ATOM     17  C   UNL     1      -1.851  13.112  20.626  0.00  0.00    +0.000 A 
ATOM     18  C   UNL     1      -1.753  12.141  21.631  0.00  0.00    +0.000 A 
ENDBRANCH   7  18
ENDBRANCH   1   9
BRANCH   4  19
ATOM     19  N   UNL     1       3.594   5.753  17.931  0.00  0.00    +0.000 N 
ATOM     20  N   UNL     1       4.801   6.130  17.425  0.00  0.00    +0.000 NA
ATOM     21  C   UNL     1       5.395   4.993  17.022  0.00  0.00    +0.000 A 
ATOM     22  C   UNL     1       4.488   3.914  17.109  0.00  0.00    +0.000 A 
ATOM     23  C   UNL     1       3.318   4.443  17.621  0.00  0.00    +0.000 A 
BRANCH  21  24
ATOM     24  C   UNL     1       6.814   4.924  16.517  0.00  0.00    +0.000 C 
ATOM     25  F   UNL     1       7.655   4.233  17.329  0.00  0.00    +0.000 F 
ATOM     26  F   UNL     1       6.872   4.327  15.294  0.00  0.00    +0.000 F 
ATOM     27  F   UNL     1       7.347   6.166  16.360  0.00  0.00    +0.000 F 
ENDBRANCH  21  24
BRANCH  23  28
ATOM     28  C   UNL     1       1.997   3.806  17.749  0.00  0.00    +0.000 C 
ATOM     29  F   UNL     1       0.975   4.495  17.191  0.00  0.00    +0.000 F 
ATOM     30  F   UNL     1       1.993   2.586  17.152  0.00  0.00    +0.000 F 
ATOM     31  F   UNL     1       1.678   3.601  19.051  0.00  0.00    +0.000 F 
ENDBRANCH  23  28
ENDBRANCH   4  19
TORSDOF 5
ENDMDL
MODEL 8
REMARK VINA RESULT:      -9.1      1.613      1.945
REMARK  Name = 
REMARK  5 active torsions:
REMARK  status: ('A' for Active; 'I' for Inactive)
REMARK    1  A    between atoms: C_7  and  N_8
REMARK    2  A    between atoms: C_10  and  C_11
REMARK    3  A    between atoms: C_14  and  N_15
REMARK    4  A    between atoms: C_17  and  C_18
REMARK    5  A    between atoms: C_23  and  C_24
REMARK                            x       y       z     vdW  Elec       q    Type
REMARK                         _______ _______ _______ _____ _____    ______ ____
ROOT
ATOM      1  C   UNL     1       1.412   9.022  19.829  0.00  0.00    +0.000 A 
ATOM      2  C   UNL     1       1.805   9.142  18.488  0.00  0.00    +0.000 A 
ATOM      3  C   UNL     1       2.519   8.121  17.858  0.00  0.00    +0.000 A 
ATOM      4  C   UNL     1       2.818   6.943  18.552  0.00  0.00    +0.000 A 
ATOM      5  C   UNL     1       2.453   6.820  19.896  0.00  0.00    +0.000 A 
ATOM      6  C   UNL     1       1.751   7.855  20.525  0.00  0.00    +0.000 A 
ENDROOT
BRANCH   1   9
ATOM      7  N   UNL     1      -0.869  11.401  21.275  0.00  0.00    +0.000 N 
ATOM      8  C   UNL     1      -0.671  10.243  20.568  0.00  0.00    +0.000 A 
ATOM      9  C   UNL     1       0.695  10.084  20.512  0.00  0.00    +0.000 A 
ATOM     10  N   UNL     1       1.291  11.108  21.195  0.00  0.00    +0.000 NA
ATOM     11  N   UNL     1       0.334  11.904  21.660  0.00  0.00    +0.000 NA
BRANCH   7  18
ATOM     12  F   UNL     1      -2.521  12.691  19.324  0.00  0.00    +0.000 F 
ATOM     13  C   UNL     1      -2.849  12.687  20.621  0.00  0.00    +0.000 A 
ATOM     14  C   UNL     1      -4.011  13.328  21.010  0.00  0.00    +0.000 A 
ATOM     15  N   UNL     1      -4.448  13.391  22.288  0.00  0.00    +0.000 NA
ATOM     16  C   UNL     1      -3.684  12.778  23.219  0.00  0.00    +0.000 A 
ATOM     17  C   UNL     1      -2.505  12.108  22.929  0.00  0.00    +0.000 A 
ATOM     18  C   UNL     1      -2.075  12.064  21.596  0.00  0.00    +0.000 A 
ENDBRANCH   7  18
ENDBRANCH   1   9
BRANCH   4  19
ATOM     19  N   UNL     1       3.529   5.913  17.882  0.00  0.00    +0.000 N 
ATOM     20  N   UNL     1       4.753   6.206  17.360  0.00  0.00    +0.000 NA
ATOM     21  C   UNL     1       5.310   5.019  17.059  0.00  0.00    +0.000 A 
ATOM     22  C   UNL     1       4.366   3.982  17.226  0.00  0.00    +0.000 A 
ATOM     23  C   UNL     1       3.211   4.591  17.680  0.00  0.00    +0.000 A 
BRANCH  21  24
ATOM     24  C   UNL     1       6.729   4.860  16.576  0.00  0.00    +0.000 C 
ATOM     25  F   UNL     1       6.854   4.058  15.487  0.00  0.00    +0.000 F 
ATOM     26  F   UNL     1       7.273   6.063  16.241  0.00  0.00    +0.000 F 
ATOM     27  F   UNL     1       7.528   4.337  17.546  0.00  0.00    +0.000 F 
ENDBRANCH  21  24
BRANCH  23  28
ATOM     28  C   UNL     1       1.867   4.013  17.847  0.00  0.00    +0.000 C 
ATOM     29  F   UNL     1       0.885   4.646  17.165  0.00  0.00    +0.000 F 
ATOM     30  F   UNL     1       1.845   2.723  17.421  0.00  0.00    +0.000 F 
ATOM     31  F   UNL     1       1.502   3.996  19.152  0.00  0.00    +0.000 F 
ENDBRANCH  23  28
ENDBRANCH   4  19
TORSDOF 5
ENDMDL
MODEL 9
REMARK VINA RESULT:      -9.1      1.417      1.720
REMARK  Name = 
REMARK  5 active torsions:
REMARK  status: ('A' for Active; 'I' for Inactive)
REMARK    1  A    between atoms: C_7  and  N_8
REMARK    2  A    between atoms: C_10  and  C_11
REMARK    3  A    between atoms: C_14  and  N_15
REMARK    4  A    between atoms: C_17  and  C_18
REMARK    5  A    between atoms: C_23  and  C_24
REMARK                            x       y       z     vdW  Elec       q    Type
REMARK                         _______ _______ _______ _____ _____    ______ ____
ROOT
ATOM      1  C   UNL     1       1.185   8.918  20.202  0.00  0.00    +0.000 A 
ATOM      2  C   UNL     1       1.499   9.160  18.857  0.00  0.00    +0.000 A 
ATOM      3  C   UNL     1       2.246   8.239  18.120  0.00  0.00    +0.000 A 
ATOM      4  C   UNL     1       2.657   7.037  18.710  0.00  0.00    +0.000 A 
ATOM      5  C   UNL     1       2.370   6.794  20.056  0.00  0.00    +0.000 A 
ATOM      6  C   UNL     1       1.634   7.730  20.793  0.00  0.00    +0.000 A 
ENDROOT
BRANCH   1   9
ATOM      7  N   UNL     1      -0.960  11.424  21.643  0.00  0.00    +0.000 N 
ATOM      8  C   UNL     1      -0.614  10.654  20.562  0.00  0.00    +0.000 A 
ATOM      9  C   UNL     1       0.435   9.875  20.996  0.00  0.00    +0.000 A 
ATOM     10  N   UNL     1       0.684  10.157  22.310  0.00  0.00    +0.000 NA
ATOM     11  N   UNL     1      -0.170  11.097  22.699  0.00  0.00    +0.000 NA
BRANCH   7  18
ATOM     12  F   UNL     1      -2.937  11.477  23.714  0.00  0.00    +0.000 F 
ATOM     13  C   UNL     1      -2.896  12.420  22.766  0.00  0.00    +0.000 A 
ATOM     14  C   UNL     1      -3.840  13.431  22.800  0.00  0.00    +0.000 A 
ATOM     15  N   UNL     1      -3.900  14.439  21.900  0.00  0.00    +0.000 NA
ATOM     16  C   UNL     1      -2.967  14.433  20.922  0.00  0.00    +0.000 A 
ATOM     17  C   UNL     1      -1.980  13.466  20.805  0.00  0.00    +0.000 A 
ATOM     18  C   UNL     1      -1.945  12.431  21.749  0.00  0.00    +0.000 A 
ENDBRANCH   7  18
ENDBRANCH   1   9
BRANCH   4  19
ATOM     19  N   UNL     1       3.399   6.110  17.933  0.00  0.00    +0.000 N 
ATOM     20  N   UNL     1       4.577   6.521  17.385  0.00  0.00    +0.000 NA
ATOM     21  C   UNL     1       5.192   5.400  16.969  0.00  0.00    +0.000 A 
ATOM     22  C   UNL     1       4.323   4.293  17.093  0.00  0.00    +0.000 A 
ATOM     23  C   UNL     1       3.154   4.789  17.641  0.00  0.00    +0.000 A 
BRANCH  21  24
ATOM     24  C   UNL     1       6.595   5.371  16.417  0.00  0.00    +0.000 C 
ATOM     25  F   UNL     1       6.653   5.195  15.071  0.00  0.00    +0.000 F 
ATOM     26  F   UNL     1       7.254   6.530  16.690  0.00  0.00    +0.000 F 
ATOM     27  F   UNL     1       7.329   4.372  16.979  0.00  0.00    +0.000 F 
ENDBRANCH  21  24
BRANCH  23  28
ATOM     28  C   UNL     1       1.858   4.113  17.817  0.00  0.00    +0.000 C 
ATOM     29  F   UNL     1       1.435   4.017  19.098  0.00  0.00    +0.000 F 
ATOM     30  F   UNL     1       0.878   4.775  17.149  0.00  0.00    +0.000 F 
ATOM     31  F   UNL     1       1.892   2.856  17.311  0.00  0.00    +0.000 F 
ENDBRANCH  23  28
ENDBRANCH   4  19
TORSDOF 5
ENDMDL
