MODEL 1
REMARK VINA RESULT:      -7.4      0.000      0.000
REMARK  Name = 
REMARK  6 active torsions:
REMARK  status: ('A' for Active; 'I' for Inactive)
REMARK    1  A    between atoms: C_2  and  C_3
REMARK    2  A    between atoms: C_7  and  C_8
REMARK    3  A    between atoms: C_8  and  O_10
REMARK    4  A    between atoms: O_10  and  C_11
REMARK    5  A    between atoms: C_11  and  C_12
REMARK    6  A    between atoms: N_17  and  C_18
REMARK                            x       y       z     vdW  Elec       q    Type
REMARK                         _______ _______ _______ _____ _____    ______ ____
ROOT
ATOM      1  C   UNL     1       8.126   8.536  18.046  0.00  0.00    +0.000 C 
ATOM      2  O   UNL     1       7.286   8.428  17.155  0.00  0.00    +0.000 OA
ATOM      3  N   UNL     1       8.444   7.509  18.918  0.00  0.00    +0.000 N 
ATOM      4  C   UNL     1       7.960   6.222  18.917  0.00  0.00    +0.000 C 
ATOM      5  O   UNL     1       8.338   5.430  19.777  0.00  0.00    +0.000 OA
ATOM      6  N   UNL     1       7.070   5.895  17.922  0.00  0.00    +0.000 N 
ATOM      7  H   UNL     1       9.159   7.663  19.622  0.00  0.00    +0.000 HD
ATOM      8  H   UNL     1       6.615   6.689  17.473  0.00  0.00    +0.000 HD
ENDROOT
BRANCH   6   9
ATOM      9  C   UNL     1       6.419   4.585  17.892  0.00  0.00    +0.000 C 
ATOM     10  C   UNL     1       5.250   4.462  18.885  0.00  0.00    +0.000 C 
ATOM     11  C   UNL     1       3.849   4.569  18.294  0.00  0.00    +0.000 C 
ATOM     12  C   UNL     1       3.694   3.672  17.079  0.00  0.00    +0.000 C 
ATOM     13  C   UNL     1       4.662   4.108  15.994  0.00  0.00    +0.000 C 
ATOM     14  C   UNL     1       6.118   4.088  16.461  0.00  0.00    +0.000 C 
ENDBRANCH   6   9
BRANCH   1  15
ATOM     15  C   UNL     1       8.869   9.854  18.269  0.00  0.00    +0.000 C 
BRANCH  15  16
ATOM     16  O   UNL     1       9.361   9.994  19.605  0.00  0.00    +0.000 OA
BRANCH  16  17
ATOM     17  C   UNL     1      10.132  11.087  19.815  0.00  0.00    +0.000 C 
ATOM     18  O   UNL     1      11.121  11.372  19.153  0.00  0.00    +0.000 OA
BRANCH  17  23
ATOM     19  C   UNL     1       8.326  12.221  22.991  0.00  0.00    +0.000 A 
ATOM     20  C   UNL     1       8.702  13.566  23.027  0.00  0.00    +0.000 A 
ATOM     21  C   UNL     1       9.531  14.088  22.030  0.00  0.00    +0.000 A 
ATOM     22  C   UNL     1       9.985  13.263  20.997  0.00  0.00    +0.000 A 
ATOM     23  C   UNL     1       9.618  11.909  20.950  0.00  0.00    +0.000 A 
ATOM     24  C   UNL     1       8.785  11.391  21.952  0.00  0.00    +0.000 A 
BRANCH  19  26
ATOM     25  N   UNL     1       6.770  11.261  24.843  0.00  0.00    +0.000 NA
ATOM     26  C   UNL     1       7.472  11.695  24.016  0.00  0.00    +0.000 C 
ENDBRANCH  19  26
ENDBRANCH  17  23
ENDBRANCH  16  17
ENDBRANCH  15  16
ENDBRANCH   1  15
TORSDOF 6
ENDMDL
MODEL 2
REMARK VINA RESULT:      -7.3      5.894      9.086
REMARK  Name = 
REMARK  6 active torsions:
REMARK  status: ('A' for Active; 'I' for Inactive)
REMARK    1  A    between atoms: C_2  and  C_3
REMARK    2  A    between atoms: C_7  and  C_8
REMARK    3  A    between atoms: C_8  and  O_10
REMARK    4  A    between atoms: O_10  and  C_11
REMARK    5  A    between atoms: C_11  and  C_12
REMARK    6  A    between atoms: N_17  and  C_18
REMARK                            x       y       z     vdW  Elec       q    Type
REMARK                         _______ _______ _______ _____ _____    ______ ____
ROOT
ATOM      1  C   UNL     1       2.187   6.041  20.114  0.00  0.00    +0.000 C 
ATOM      2  O   UNL     1       1.412   6.547  20.922  0.00  0.00    +0.000 OA
ATOM      3  N   UNL     1       2.602   6.680  18.958  0.00  0.00    +0.000 N 
ATOM      4  C   UNL     1       2.301   7.957  18.545  0.00  0.00    +0.000 C 
ATOM      5  O   UNL     1       2.743   8.370  17.477  0.00  0.00    +0.000 OA
ATOM      6  N   UNL     1       1.512   8.709  19.383  0.00  0.00    +0.000 N 
ATOM      7  H   UNL     1       3.255   6.208  18.341  0.00  0.00    +0.000 HD
ATOM      8  H   UNL     1       0.973   8.173  20.063  0.00  0.00    +0.000 HD
ENDROOT
BRANCH   6   9
ATOM      9  C   UNL     1       1.050  10.040  18.990  0.00  0.00    +0.000 C 
ATOM     10  C   UNL     1      -0.141  10.010  18.017  0.00  0.00    +0.000 C 
ATOM     11  C   UNL     1      -1.511  10.304  18.618  0.00  0.00    +0.000 C 
ATOM     12  C   UNL     1      -1.478  11.556  19.478  0.00  0.00    +0.000 C 
ATOM     13  C   UNL     1      -0.523  11.351  20.642  0.00  0.00    +0.000 C 
ATOM     14  C   UNL     1       0.896  11.007  20.186  0.00  0.00    +0.000 C 
ENDBRANCH   6   9
BRANCH   1  15
ATOM     15  C   UNL     1       2.729   4.627  20.325  0.00  0.00    +0.000 C 
BRANCH  15  16
ATOM     16  O   UNL     1       3.185   4.020  19.112  0.00  0.00    +0.000 OA
BRANCH  16  17
ATOM     17  C   UNL     1       4.463   3.575  19.144  0.00  0.00    +0.000 C 
ATOM     18  O   UNL     1       4.873   2.706  19.902  0.00  0.00    +0.000 OA
BRANCH  17  23
ATOM     19  C   UNL     1       6.177   4.581  15.875  0.00  0.00    +0.000 A 
ATOM     20  C   UNL     1       6.956   5.654  16.320  0.00  0.00    +0.000 A 
ATOM     21  C   UNL     1       6.918   6.036  17.663  0.00  0.00    +0.000 A 
ATOM     22  C   UNL     1       6.099   5.348  18.563  0.00  0.00    +0.000 A 
ATOM     23  C   UNL     1       5.309   4.271  18.130  0.00  0.00    +0.000 A 
ATOM     24  C   UNL     1       5.352   3.890  16.781  0.00  0.00    +0.000 A 
BRANCH  19  26
ATOM     25  N   UNL     1       6.272   3.867  13.375  0.00  0.00    +0.000 NA
ATOM     26  C   UNL     1       6.226   4.193  14.496  0.00  0.00    +0.000 C 
ENDBRANCH  19  26
ENDBRANCH  17  23
ENDBRANCH  16  17
ENDBRANCH  15  16
ENDBRANCH   1  15
TORSDOF 6
ENDMDL
MODEL 3
REMARK VINA RESULT:      -7.3      7.184      9.532
REMARK  Name = 
REMARK  6 active torsions:
REMARK  status: ('A' for Active; 'I' for Inactive)
REMARK    1  A    between atoms: C_2  and  C_3
REMARK    2  A    between atoms: C_7  and  C_8
REMARK    3  A    between atoms: C_8  and  O_10
REMARK    4  A    between atoms: O_10  and  C_11
REMARK    5  A    between atoms: C_11  and  C_12
REMARK    6  A    between atoms: N_17  and  C_18
REMARK                            x       y       z     vdW  Elec       q    Type
REMARK                         _______ _______ _______ _____ _____    ______ ____
ROOT
ATOM      1  C   UNL     1       2.068   8.354  18.863  0.00  0.00    +0.000 C 
ATOM      2  O   UNL     1       2.674   8.462  17.798  0.00  0.00    +0.000 OA
ATOM      3  N   UNL     1       2.164   7.243  19.682  0.00  0.00    +0.000 N 
ATOM      4  C   UNL     1       2.961   6.135  19.511  0.00  0.00    +0.000 C 
ATOM      5  O   UNL     1       2.917   5.222  20.331  0.00  0.00    +0.000 OA
ATOM      6  N   UNL     1       3.783   6.128  18.409  0.00  0.00    +0.000 N 
ATOM      7  H   UNL     1       1.647   7.227  20.555  0.00  0.00    +0.000 HD
ATOM      8  H   UNL     1       3.515   6.774  17.667  0.00  0.00    +0.000 HD
ENDROOT
BRANCH   6   9
ATOM      9  C   UNL     1       4.593   4.955  18.080  0.00  0.00    +0.000 C 
ATOM     10  C   UNL     1       4.530   4.568  16.592  0.00  0.00    +0.000 C 
ATOM     11  C   UNL     1       5.731   4.963  15.741  0.00  0.00    +0.000 C 
ATOM     12  C   UNL     1       7.035   4.558  16.406  0.00  0.00    +0.000 C 
ATOM     13  C   UNL     1       7.180   5.284  17.732  0.00  0.00    +0.000 C 
ATOM     14  C   UNL     1       6.014   5.009  18.684  0.00  0.00    +0.000 C 
ENDBRANCH   6   9
BRANCH   1  15
ATOM     15  C   UNL     1       1.124   9.457  19.344  0.00  0.00    +0.000 C 
BRANCH  15  16
ATOM     16  O   UNL     1       0.169   9.843  18.350  0.00  0.00    +0.000 OA
BRANCH  16  17
ATOM     17  C   UNL     1      -0.938  10.454  18.833  0.00  0.00    +0.000 C 
ATOM     18  O   UNL     1      -1.044  10.896  19.969  0.00  0.00    +0.000 OA
BRANCH  17  23
ATOM     19  C   UNL     1      -4.157  11.325  16.956  0.00  0.00    +0.000 A 
ATOM     20  C   UNL     1      -3.971  10.588  15.784  0.00  0.00    +0.000 A 
ATOM     21  C   UNL     1      -2.815   9.822  15.615  0.00  0.00    +0.000 A 
ATOM     22  C   UNL     1      -1.842   9.795  16.618  0.00  0.00    +0.000 A 
ATOM     23  C   UNL     1      -2.013  10.533  17.800  0.00  0.00    +0.000 A 
ATOM     24  C   UNL     1      -3.176  11.299  17.965  0.00  0.00    +0.000 A 
BRANCH  19  26
ATOM     25  N   UNL     1      -6.315  12.745  17.269  0.00  0.00    +0.000 NA
ATOM     26  C   UNL     1      -5.349  12.105  17.123  0.00  0.00    +0.000 C 
ENDBRANCH  19  26
ENDBRANCH  17  23
ENDBRANCH  16  17
ENDBRANCH  15  16
ENDBRANCH   1  15
TORSDOF 6
ENDMDL
MODEL 4
REMARK VINA RESULT:      -7.2      6.112      9.361
REMARK  Name = 
REMARK  6 active torsions:
REMARK  status: ('A' for Active; 'I' for Inactive)
REMARK    1  A    between atoms: C_2  and  C_3
REMARK    2  A    between atoms: C_7  and  C_8
REMARK    3  A    between atoms: C_8  and  O_10
REMARK    4  A    between atoms: O_10  and  C_11
REMARK    5  A    between atoms: C_11  and  C_12
REMARK    6  A    between atoms: N_17  and  C_18
REMARK                            x       y       z     vdW  Elec       q    Type
REMARK                         _______ _______ _______ _____ _____    ______ ____
ROOT
ATOM      1  C   UNL     1       2.980   7.453  17.982  0.00  0.00    +0.000 C 
ATOM      2  O   UNL     1       2.736   8.375  17.207  0.00  0.00    +0.000 OA
ATOM      3  N   UNL     1       2.500   7.406  19.280  0.00  0.00    +0.000 N 
ATOM      4  C   UNL     1       1.652   8.294  19.898  0.00  0.00    +0.000 C 
ATOM      5  O   UNL     1       1.331   8.113  21.070  0.00  0.00    +0.000 OA
ATOM      6  N   UNL     1       1.200   9.349  19.141  0.00  0.00    +0.000 N 
ATOM      7  H   UNL     1       2.729   6.607  19.862  0.00  0.00    +0.000 HD
ATOM      8  H   UNL     1       1.758   9.555  18.313  0.00  0.00    +0.000 HD
ENDROOT
BRANCH   6   9
ATOM      9  C   UNL     1       0.377  10.404  19.732  0.00  0.00    +0.000 C 
ATOM     10  C   UNL     1       1.084  11.769  19.790  0.00  0.00    +0.000 C 
ATOM     11  C   UNL     1       0.673  12.788  18.733  0.00  0.00    +0.000 C 
ATOM     12  C   UNL     1      -0.839  12.905  18.641  0.00  0.00    +0.000 C 
ATOM     13  C   UNL     1      -1.431  11.572  18.219  0.00  0.00    +0.000 C 
ATOM     14  C   UNL     1      -1.064  10.436  19.175  0.00  0.00    +0.000 C 
ENDBRANCH   6   9
BRANCH   1  15
ATOM     15  C   UNL     1       3.876   6.288  17.560  0.00  0.00    +0.000 C 
BRANCH  15  16
ATOM     16  O   UNL     1       4.880   5.980  18.531  0.00  0.00    +0.000 OA
BRANCH  16  17
ATOM     17  C   UNL     1       5.283   4.687  18.541  0.00  0.00    +0.000 C 
ATOM     18  O   UNL     1       6.444   4.325  18.407  0.00  0.00    +0.000 OA
BRANCH  17  23
ATOM     19  C   UNL     1       2.394   2.731  20.110  0.00  0.00    +0.000 A 
ATOM     20  C   UNL     1       1.990   1.959  19.017  0.00  0.00    +0.000 A 
ATOM     21  C   UNL     1       2.654   2.079  17.793  0.00  0.00    +0.000 A 
ATOM     22  C   UNL     1       3.720   2.974  17.661  0.00  0.00    +0.000 A 
ATOM     23  C   UNL     1       4.134   3.758  18.749  0.00  0.00    +0.000 A 
ATOM     24  C   UNL     1       3.466   3.632  19.976  0.00  0.00    +0.000 A 
BRANCH  19  26
ATOM     25  N   UNL     1       1.163   2.485  22.389  0.00  0.00    +0.000 NA
ATOM     26  C   UNL     1       1.710   2.598  21.364  0.00  0.00    +0.000 C 
ENDBRANCH  19  26
ENDBRANCH  17  23
ENDBRANCH  16  17
ENDBRANCH  15  16
ENDBRANCH   1  15
TORSDOF 6
ENDMDL
MODEL 5
REMARK VINA RESULT:      -7.2      5.970      9.220
REMARK  Name = 
REMARK  6 active torsions:
REMARK  status: ('A' for Active; 'I' for Inactive)
REMARK    1  A    between atoms: C_2  and  C_3
REMARK    2  A    between atoms: C_7  and  C_8
REMARK    3  A    between atoms: C_8  and  O_10
REMARK    4  A    between atoms: O_10  and  C_11
REMARK    5  A    between atoms: C_11  and  C_12
REMARK    6  A    between atoms: N_17  and  C_18
REMARK                            x       y       z     vdW  Elec       q    Type
REMARK                         _______ _______ _______ _____ _____    ______ ____
ROOT
ATOM      1  C   UNL     1       1.592   4.685  19.633  0.00  0.00    +0.000 C 
ATOM      2  O   UNL     1       0.984   4.868  20.686  0.00  0.00    +0.000 OA
ATOM      3  N   UNL     1       2.191   5.706  18.915  0.00  0.00    +0.000 N 
ATOM      4  C   UNL     1       2.278   7.036  19.253  0.00  0.00    +0.000 C 
ATOM      5  O   UNL     1       2.837   7.821  18.491  0.00  0.00    +0.000 OA
ATOM      6  N   UNL     1       1.728   7.407  20.457  0.00  0.00    +0.000 N 
ATOM      7  H   UNL     1       2.689   5.481  18.060  0.00  0.00    +0.000 HD
ATOM      8  H   UNL     1       1.047   6.751  20.839  0.00  0.00    +0.000 HD
ENDROOT
BRANCH   6   9
ATOM      9  C   UNL     1       1.676   8.812  20.862  0.00  0.00    +0.000 C 
ATOM     10  C   UNL     1       0.790   9.678  19.949  0.00  0.00    +0.000 C 
ATOM     11  C   UNL     1      -0.590  10.033  20.489  0.00  0.00    +0.000 C 
ATOM     12  C   UNL     1      -0.507  10.561  21.911  0.00  0.00    +0.000 C 
ATOM     13  C   UNL     1       0.058   9.486  22.823  0.00  0.00    +0.000 C 
ATOM     14  C   UNL     1       1.437   9.000  22.377  0.00  0.00    +0.000 C 
ENDBRANCH   6   9
BRANCH   1  15
ATOM     15  C   UNL     1       1.699   3.288  19.021  0.00  0.00    +0.000 C 
BRANCH  15  16
ATOM     16  O   UNL     1       2.473   3.267  17.818  0.00  0.00    +0.000 OA
BRANCH  16  17
ATOM     17  C   UNL     1       3.667   2.639  17.921  0.00  0.00    +0.000 C 
ATOM     18  O   UNL     1       3.802   1.439  18.122  0.00  0.00    +0.000 OA
BRANCH  17  23
ATOM     19  C   UNL     1       6.450   4.781  16.403  0.00  0.00    +0.000 A 
ATOM     20  C   UNL     1       6.950   5.396  17.554  0.00  0.00    +0.000 A 
ATOM     21  C   UNL     1       6.385   5.112  18.800  0.00  0.00    +0.000 A 
ATOM     22  C   UNL     1       5.318   4.214  18.895  0.00  0.00    +0.000 A 
ATOM     23  C   UNL     1       4.803   3.591  17.747  0.00  0.00    +0.000 A 
ATOM     24  C   UNL     1       5.374   3.879  16.499  0.00  0.00    +0.000 A 
BRANCH  19  26
ATOM     25  N   UNL     1       7.528   5.310  14.094  0.00  0.00    +0.000 NA
ATOM     26  C   UNL     1       7.038   5.074  15.128  0.00  0.00    +0.000 C 
ENDBRANCH  19  26
ENDBRANCH  17  23
ENDBRANCH  16  17
ENDBRANCH  15  16
ENDBRANCH   1  15
TORSDOF 6
ENDMDL
MODEL 6
REMARK VINA RESULT:      -7.2      6.797      9.421
REMARK  Name = 
REMARK  6 active torsions:
REMARK  status: ('A' for Active; 'I' for Inactive)
REMARK    1  A    between atoms: C_2  and  C_3
REMARK    2  A    between atoms: C_7  and  C_8
REMARK    3  A    between atoms: C_8  and  O_10
REMARK    4  A    between atoms: O_10  and  C_11
REMARK    5  A    between atoms: C_11  and  C_12
REMARK    6  A    between atoms: N_17  and  C_18
REMARK                            x       y       z     vdW  Elec       q    Type
REMARK                         _______ _______ _______ _____ _____    ______ ____
ROOT
ATOM      1  C   UNL     1       2.100   8.269  18.985  0.00  0.00    +0.000 C 
ATOM      2  O   UNL     1       2.699   8.452  17.928  0.00  0.00    +0.000 OA
ATOM      3  N   UNL     1       2.234   7.119  19.744  0.00  0.00    +0.000 N 
ATOM      4  C   UNL     1       3.064   6.048  19.512  0.00  0.00    +0.000 C 
ATOM      5  O   UNL     1       3.051   5.091  20.283  0.00  0.00    +0.000 OA
ATOM      6  N   UNL     1       3.883   6.125  18.410  0.00  0.00    +0.000 N 
ATOM      7  H   UNL     1       1.720   7.040  20.615  0.00  0.00    +0.000 HD
ATOM      8  H   UNL     1       3.592   6.801  17.705  0.00  0.00    +0.000 HD
ENDROOT
BRANCH   6   9
ATOM      9  C   UNL     1       4.728   4.997  18.019  0.00  0.00    +0.000 C 
ATOM     10  C   UNL     1       4.472   4.514  16.580  0.00  0.00    +0.000 C 
ATOM     11  C   UNL     1       5.492   4.944  15.532  0.00  0.00    +0.000 C 
ATOM     12  C   UNL     1       6.912   4.679  16.005  0.00  0.00    +0.000 C 
ATOM     13  C   UNL     1       7.195   5.495  17.254  0.00  0.00    +0.000 C 
ATOM     14  C   UNL     1       6.215   5.194  18.389  0.00  0.00    +0.000 C 
ENDBRANCH   6   9
BRANCH   1  15
ATOM     15  C   UNL     1       1.123   9.315  19.526  0.00  0.00    +0.000 C 
BRANCH  15  16
ATOM     16  O   UNL     1       0.080   9.631  18.599  0.00  0.00    +0.000 OA
BRANCH  16  17
ATOM     17  C   UNL     1      -0.867  10.473  19.075  0.00  0.00    +0.000 C 
ATOM     18  O   UNL     1      -0.815  11.025  20.166  0.00  0.00    +0.000 OA
BRANCH  17  23
ATOM     19  C   UNL     1      -2.967  10.468  15.877  0.00  0.00    +0.000 A 
ATOM     20  C   UNL     1      -4.139  11.067  16.346  0.00  0.00    +0.000 A 
ATOM     21  C   UNL     1      -4.237  11.462  17.682  0.00  0.00    +0.000 A 
ATOM     22  C   UNL     1      -3.161  11.258  18.552  0.00  0.00    +0.000 A 
ATOM     23  C   UNL     1      -1.978  10.655  18.096  0.00  0.00    +0.000 A 
ATOM     24  C   UNL     1      -1.885  10.261  16.753  0.00  0.00    +0.000 A 
BRANCH  19  26
ATOM     25  N   UNL     1      -2.801   9.755  13.380  0.00  0.00    +0.000 NA
ATOM     26  C   UNL     1      -2.874  10.070  14.503  0.00  0.00    +0.000 C 
ENDBRANCH  19  26
ENDBRANCH  17  23
ENDBRANCH  16  17
ENDBRANCH  15  16
ENDBRANCH   1  15
TORSDOF 6
ENDMDL
MODEL 7
REMARK VINA RESULT:      -7.1      5.414      8.748
REMARK  Name = 
REMARK  6 active torsions:
REMARK  status: ('A' for Active; 'I' for Inactive)
REMARK    1  A    between atoms: C_2  and  C_3
REMARK    2  A    between atoms: C_7  and  C_8
REMARK    3  A    between atoms: C_8  and  O_10
REMARK    4  A    between atoms: O_10  and  C_11
REMARK    5  A    between atoms: C_11  and  C_12
REMARK    6  A    between atoms: N_17  and  C_18
REMARK                            x       y       z     vdW  Elec       q    Type
REMARK                         _______ _______ _______ _____ _____    ______ ____
ROOT
ATOM      1  C   UNL     1       2.216   6.367  20.028  0.00  0.00    +0.000 C 
ATOM      2  O   UNL     1       1.375   6.872  20.769  0.00  0.00    +0.000 OA
ATOM      3  N   UNL     1       2.610   6.936  18.829  0.00  0.00    +0.000 N 
ATOM      4  C   UNL     1       2.212   8.139  18.295  0.00  0.00    +0.000 C 
ATOM      5  O   UNL     1       2.650   8.494  17.204  0.00  0.00    +0.000 OA
ATOM      6  N   UNL     1       1.335   8.888  19.042  0.00  0.00    +0.000 N 
ATOM      7  H   UNL     1       3.321   6.472  18.273  0.00  0.00    +0.000 HD
ATOM      8  H   UNL     1       0.824   8.369  19.755  0.00  0.00    +0.000 HD
ENDROOT
BRANCH   6   9
ATOM      9  C   UNL     1       0.771  10.133  18.520  0.00  0.00    +0.000 C 
ATOM     10  C   UNL     1      -0.723  10.308  18.842  0.00  0.00    +0.000 C 
ATOM     11  C   UNL     1      -1.060  11.267  19.978  0.00  0.00    +0.000 C 
ATOM     12  C   UNL     1      -0.327  12.588  19.821  0.00  0.00    +0.000 C 
ATOM     13  C   UNL     1       1.172  12.350  19.878  0.00  0.00    +0.000 C 
ATOM     14  C   UNL     1       1.654  11.368  18.809  0.00  0.00    +0.000 C 
ENDBRANCH   6   9
BRANCH   1  15
ATOM     15  C   UNL     1       2.873   5.031  20.380  0.00  0.00    +0.000 C 
BRANCH  15  16
ATOM     16  O   UNL     1       3.044   4.180  19.243  0.00  0.00    +0.000 OA
BRANCH  16  17
ATOM     17  C   UNL     1       4.296   3.690  19.083  0.00  0.00    +0.000 C 
ATOM     18  O   UNL     1       4.777   2.791  19.758  0.00  0.00    +0.000 OA
BRANCH  17  23
ATOM     19  C   UNL     1       6.463   6.116  17.069  0.00  0.00    +0.000 A 
ATOM     20  C   UNL     1       6.302   5.590  15.784  0.00  0.00    +0.000 A 
ATOM     21  C   UNL     1       5.499   4.464  15.586  0.00  0.00    +0.000 A 
ATOM     22  C   UNL     1       4.858   3.862  16.672  0.00  0.00    +0.000 A 
ATOM     23  C   UNL     1       5.014   4.378  17.969  0.00  0.00    +0.000 A 
ATOM     24  C   UNL     1       5.820   5.508  18.163  0.00  0.00    +0.000 A 
BRANCH  19  26
ATOM     25  N   UNL     1       7.949   8.224  17.414  0.00  0.00    +0.000 NA
ATOM     26  C   UNL     1       7.286   7.275  17.263  0.00  0.00    +0.000 C 
ENDBRANCH  19  26
ENDBRANCH  17  23
ENDBRANCH  16  17
ENDBRANCH  15  16
ENDBRANCH   1  15
TORSDOF 6
ENDMDL
MODEL 8
REMARK VINA RESULT:      -7.1      6.364      8.411
REMARK  Name = 
REMARK  6 active torsions:
REMARK  status: ('A' for Active; 'I' for Inactive)
REMARK    1  A    between atoms: C_2  and  C_3
REMARK    2  A    between atoms: C_7  and  C_8
REMARK    3  A    between atoms: C_8  and  O_10
REMARK    4  A    between atoms: O_10  and  C_11
REMARK    5  A    between atoms: C_11  and  C_12
REMARK    6  A    between atoms: N_17  and  C_18
REMARK                            x       y       z     vdW  Elec       q    Type
REMARK                         _______ _______ _______ _____ _____    ______ ____
ROOT
ATOM      1  C   UNL     1       2.336   7.375  19.628  0.00  0.00    +0.000 C 
ATOM      2  O   UNL     1       2.839   7.747  18.570  0.00  0.00    +0.000 OA
ATOM      3  N   UNL     1       2.549   6.118  20.167  0.00  0.00    +0.000 N 
ATOM      4  C   UNL     1       3.369   5.122  19.690  0.00  0.00    +0.000 C 
ATOM      5  O   UNL     1       3.434   4.051  20.286  0.00  0.00    +0.000 OA
ATOM      6  N   UNL     1       4.088   5.404  18.553  0.00  0.00    +0.000 N 
ATOM      7  H   UNL     1       2.114   5.881  21.053  0.00  0.00    +0.000 HD
ATOM      8  H   UNL     1       3.729   6.181  17.998  0.00  0.00    +0.000 HD
ENDROOT
BRANCH   6   9
ATOM      9  C   UNL     1       4.909   4.381  17.907  0.00  0.00    +0.000 C 
ATOM     10  C   UNL     1       4.523   4.125  16.440  0.00  0.00    +0.000 C 
ATOM     11  C   UNL     1       5.431   4.748  15.385  0.00  0.00    +0.000 C 
ATOM     12  C   UNL     1       6.893   4.456  15.674  0.00  0.00    +0.000 C 
ATOM     13  C   UNL     1       7.283   5.071  17.007  0.00  0.00    +0.000 C 
ATOM     14  C   UNL     1       6.422   4.563  18.164  0.00  0.00    +0.000 C 
ENDBRANCH   6   9
BRANCH   1  15
ATOM     15  C   UNL     1       1.398   8.289  20.416  0.00  0.00    +0.000 C 
BRANCH  15  16
ATOM     16  O   UNL     1       1.235   9.574  19.809  0.00  0.00    +0.000 OA
BRANCH  16  17
ATOM     17  C   UNL     1       0.474  10.444  20.514  0.00  0.00    +0.000 C 
ATOM     18  O   UNL     1       0.749  10.851  21.635  0.00  0.00    +0.000 OA
BRANCH  17  23
ATOM     19  C   UNL     1      -2.233  10.739  17.827  0.00  0.00    +0.000 A 
ATOM     20  C   UNL     1      -3.046  11.722  18.397  0.00  0.00    +0.000 A 
ATOM     21  C   UNL     1      -2.711  12.275  19.635  0.00  0.00    +0.000 A 
ATOM     22  C   UNL     1      -1.564  11.843  20.307  0.00  0.00    +0.000 A 
ATOM     23  C   UNL     1      -0.739  10.854  19.748  0.00  0.00    +0.000 A 
ATOM     24  C   UNL     1      -1.079  10.303  18.504  0.00  0.00    +0.000 A 
BRANCH  19  26
ATOM     25  N   UNL     1      -2.858   9.731  15.511  0.00  0.00    +0.000 NA
ATOM     26  C   UNL     1      -2.582  10.180  16.553  0.00  0.00    +0.000 C 
ENDBRANCH  19  26
ENDBRANCH  17  23
ENDBRANCH  16  17
ENDBRANCH  15  16
ENDBRANCH   1  15
TORSDOF 6
ENDMDL
MODEL 9
REMARK VINA RESULT:      -7.1      6.039      9.590
REMARK  Name = 
REMARK  6 active torsions:
REMARK  status: ('A' for Active; 'I' for Inactive)
REMARK    1  A    between atoms: C_2  and  C_3
REMARK    2  A    between atoms: C_7  and  C_8
REMARK    3  A    between atoms: C_8  and  O_10
REMARK    4  A    between atoms: O_10  and  C_11
REMARK    5  A    between atoms: C_11  and  C_12
REMARK    6  A    between atoms: N_17  and  C_18
REMARK                            x       y       z     vdW  Elec       q    Type
REMARK                         _______ _______ _______ _____ _____    ______ ____
ROOT
ATOM      1  C   UNL     1       2.000   7.418  19.922  0.00  0.00    +0.000 C 
ATOM      2  O   UNL     1       1.857   8.006  18.852  0.00  0.00    +0.000 OA
ATOM      3  N   UNL     1       1.737   8.001  21.149  0.00  0.00    +0.000 N 
ATOM      4  C   UNL     1       1.232   9.256  21.397  0.00  0.00    +0.000 C 
ATOM      5  O   UNL     1       1.070   9.628  22.556  0.00  0.00    +0.000 OA
ATOM      6  N   UNL     1       0.923  10.026  20.301  0.00  0.00    +0.000 N 
ATOM      7  H   UNL     1       1.863   7.452  21.994  0.00  0.00    +0.000 HD
ATOM      8  H   UNL     1       1.373   9.739  19.433  0.00  0.00    +0.000 HD
ENDROOT
BRANCH   6   9
ATOM      9  C   UNL     1       0.476  11.411  20.454  0.00  0.00    +0.000 C 
ATOM     10  C   UNL     1       1.488  12.440  19.921  0.00  0.00    +0.000 C 
ATOM     11  C   UNL     1       1.170  13.058  18.563  0.00  0.00    +0.000 C 
ATOM     12  C   UNL     1      -0.267  13.549  18.505  0.00  0.00    +0.000 C 
ATOM     13  C   UNL     1      -1.216  12.378  18.687  0.00  0.00    +0.000 C 
ATOM     14  C   UNL     1      -0.984  11.632  20.002  0.00  0.00    +0.000 C 
ENDBRANCH   6   9
BRANCH   1  15
ATOM     15  C   UNL     1       2.517   5.979  19.964  0.00  0.00    +0.000 C 
BRANCH  15  16
ATOM     16  O   UNL     1       3.222   5.609  18.775  0.00  0.00    +0.000 OA
BRANCH  16  17
ATOM     17  C   UNL     1       3.957   4.476  18.881  0.00  0.00    +0.000 C 
ATOM     18  O   UNL     1       3.693   3.549  19.635  0.00  0.00    +0.000 OA
BRANCH  17  23
ATOM     19  C   UNL     1       6.155   4.237  15.759  0.00  0.00    +0.000 A 
ATOM     20  C   UNL     1       7.404   4.546  16.306  0.00  0.00    +0.000 A 
ATOM     21  C   UNL     1       7.519   4.826  17.670  0.00  0.00    +0.000 A 
ATOM     22  C   UNL     1       6.385   4.799  18.488  0.00  0.00    +0.000 A 
ATOM     23  C   UNL     1       5.124   4.494  17.951  0.00  0.00    +0.000 A 
ATOM     24  C   UNL     1       5.014   4.212  16.581  0.00  0.00    +0.000 A 
BRANCH  19  26
ATOM     25  N   UNL     1       5.951   3.702  13.220  0.00  0.00    +0.000 NA
ATOM     26  C   UNL     1       6.047   3.947  14.359  0.00  0.00    +0.000 C 
ENDBRANCH  19  26
ENDBRANCH  17  23
ENDBRANCH  16  17
ENDBRANCH  15  16
ENDBRANCH   1  15
TORSDOF 6
ENDMDL
