MODEL 1
REMARK VINA RESULT:      -7.6      0.000      0.000
REMARK  Name = 
REMARK  7 active torsions:
REMARK  status: ('A' for Active; 'I' for Inactive)
REMARK    1  A    between atoms: C_1  and  C_2
REMARK    2  A    between atoms: C_3  and  P_4
REMARK    3  A    between atoms: P_4  and  C_6
REMARK    4  A    between atoms: P_4  and  C_12
REMARK    5  A    between atoms: N_24  and  C_25
REMARK    6  A    between atoms: C_25  and  C_26
REMARK    7  A    between atoms: C_27  and  C_28
REMARK                            x       y       z     vdW  Elec       q    Type
REMARK                         _______ _______ _______ _____ _____    ______ ____
ROOT
ATOM      1  C   UNL     1       1.045  11.397  20.837  0.00  0.00    +0.000 C 
ATOM      2  C   UNL     1      -0.139  11.230  19.936  0.00  0.00    +0.000 A 
ATOM      3  C   UNL     1      -1.461  11.702  20.011  0.00  0.00    +0.000 A 
ATOM      4  C   UNL     1      -2.136  11.238  18.835  0.00  0.00    +0.000 A 
ATOM      5  C   UNL     1      -3.423  11.395  18.276  0.00  0.00    +0.000 A 
ATOM      6  C   UNL     1      -3.793  10.714  17.110  0.00  0.00    +0.000 A 
ATOM      7  C   UNL     1      -2.880   9.916  16.443  0.00  0.00    +0.000 A 
ATOM      8  C   UNL     1      -1.573   9.809  16.907  0.00  0.00    +0.000 A 
ATOM      9  C   UNL     1      -1.217  10.478  18.095  0.00  0.00    +0.000 A 
ATOM     10  N   UNL     1       0.009  10.588  18.721  0.00  0.00    +0.000 N 
ENDROOT
BRANCH   3  11
ATOM     11  P   UNL     1      -2.038  12.888  21.294  0.00  0.00    +0.000 P 
ATOM     12  S   UNL     1      -1.711  12.046  23.048  0.00  0.00    +0.000 S 
BRANCH  11  13
ATOM     13  C   UNL     1      -0.965  14.257  20.733  0.00  0.00    +0.000 A 
ATOM     14  C   UNL     1      -0.900  14.554  19.354  0.00  0.00    +0.000 A 
ATOM     15  C   UNL     1      -0.107  15.599  18.894  0.00  0.00    +0.000 A 
ATOM     16  C   UNL     1       0.595  16.383  19.804  0.00  0.00    +0.000 A 
ATOM     17  C   UNL     1       0.501  16.122  21.173  0.00  0.00    +0.000 A 
ATOM     18  C   UNL     1      -0.272  15.063  21.639  0.00  0.00    +0.000 A 
ENDBRANCH  11  13
BRANCH  11  19
ATOM     19  C   UNL     1      -3.703  13.556  21.120  0.00  0.00    +0.000 A 
ATOM     20  C   UNL     1      -4.873  12.811  21.292  0.00  0.00    +0.000 A 
ATOM     21  C   UNL     1      -6.133  13.414  21.163  0.00  0.00    +0.000 A 
ATOM     22  C   UNL     1      -6.247  14.787  20.937  0.00  0.00    +0.000 A 
ATOM     23  C   UNL     1      -5.100  15.566  20.877  0.00  0.00    +0.000 A 
ATOM     24  C   UNL     1      -3.851  14.957  20.979  0.00  0.00    +0.000 A 
ENDBRANCH  11  19
ENDBRANCH   3  11
BRANCH  10  25
ATOM     25  C   UNL     1       1.273  10.080  18.175  0.00  0.00    +0.000 C 
BRANCH  25  26
ATOM     26  C   UNL     1       1.718   8.714  18.637  0.00  0.00    +0.000 C 
ATOM     27  C   UNL     1       2.303   7.721  17.944  0.00  0.00    +0.000 C 
BRANCH  27  28
ATOM     28  C   UNL     1       2.568   6.429  18.590  0.00  0.00    +0.000 A 
ATOM     29  C   UNL     1       3.122   5.386  17.837  0.00  0.00    +0.000 A 
ATOM     30  C   UNL     1       3.311   4.122  18.404  0.00  0.00    +0.000 A 
ATOM     31  C   UNL     1       2.949   3.892  19.730  0.00  0.00    +0.000 A 
ATOM     32  C   UNL     1       2.409   4.929  20.492  0.00  0.00    +0.000 A 
ATOM     33  C   UNL     1       2.219   6.195  19.924  0.00  0.00    +0.000 A 
ENDBRANCH  27  28
ENDBRANCH  25  26
ENDBRANCH  10  25
TORSDOF 6
ENDMDL
MODEL 2
REMARK VINA RESULT:      -7.6      0.370      1.238
REMARK  Name = 
REMARK  7 active torsions:
REMARK  status: ('A' for Active; 'I' for Inactive)
REMARK    1  A    between atoms: C_1  and  C_2
REMARK    2  A    between atoms: C_3  and  P_4
REMARK    3  A    between atoms: P_4  and  C_6
REMARK    4  A    between atoms: P_4  and  C_12
REMARK    5  A    between atoms: N_24  and  C_25
REMARK    6  A    between atoms: C_25  and  C_26
REMARK    7  A    between atoms: C_27  and  C_28
REMARK                            x       y       z     vdW  Elec       q    Type
REMARK                         _______ _______ _______ _____ _____    ______ ____
ROOT
ATOM      1  C   UNL     1       0.991  10.918  20.602  0.00  0.00    +0.000 C 
ATOM      2  C   UNL     1      -0.236  10.925  19.744  0.00  0.00    +0.000 A 
ATOM      3  C   UNL     1      -1.501  11.517  19.905  0.00  0.00    +0.000 A 
ATOM      4  C   UNL     1      -2.262  11.198  18.732  0.00  0.00    +0.000 A 
ATOM      5  C   UNL     1      -3.547  11.515  18.240  0.00  0.00    +0.000 A 
ATOM      6  C   UNL     1      -4.025  10.951  17.051  0.00  0.00    +0.000 A 
ATOM      7  C   UNL     1      -3.221  10.113  16.298  0.00  0.00    +0.000 A 
ATOM      8  C   UNL     1      -1.915   9.851  16.698  0.00  0.00    +0.000 A 
ATOM      9  C   UNL     1      -1.451  10.403  17.909  0.00  0.00    +0.000 A 
ATOM     10  N   UNL     1      -0.198  10.353  18.487  0.00  0.00    +0.000 N 
ENDROOT
BRANCH   3  11
ATOM     11  P   UNL     1      -1.910  12.667  21.282  0.00  0.00    +0.000 P 
ATOM     12  S   UNL     1      -1.510  11.718  22.964  0.00  0.00    +0.000 S 
BRANCH  11  13
ATOM     13  C   UNL     1      -0.797  13.999  20.707  0.00  0.00    +0.000 A 
ATOM     14  C   UNL     1      -0.012  14.691  21.655  0.00  0.00    +0.000 A 
ATOM     15  C   UNL     1       0.856  15.698  21.251  0.00  0.00    +0.000 A 
ATOM     16  C   UNL     1       0.982  15.997  19.899  0.00  0.00    +0.000 A 
ATOM     17  C   UNL     1       0.241  15.287  18.951  0.00  0.00    +0.000 A 
ATOM     18  C   UNL     1      -0.648  14.294  19.350  0.00  0.00    +0.000 A 
ENDBRANCH  11  13
BRANCH  11  19
ATOM     19  C   UNL     1      -3.538  13.439  21.264  0.00  0.00    +0.000 A 
ATOM     20  C   UNL     1      -3.788  14.742  20.826  0.00  0.00    +0.000 A 
ATOM     21  C   UNL     1      -5.091  15.261  20.820  0.00  0.00    +0.000 A 
ATOM     22  C   UNL     1      -6.178  14.462  21.177  0.00  0.00    +0.000 A 
ATOM     23  C   UNL     1      -5.967  13.129  21.505  0.00  0.00    +0.000 A 
ATOM     24  C   UNL     1      -4.667  12.628  21.536  0.00  0.00    +0.000 A 
ENDBRANCH  11  19
ENDBRANCH   3  11
BRANCH  10  25
ATOM     25  C   UNL     1       0.989   9.761  17.856  0.00  0.00    +0.000 C 
BRANCH  25  26
ATOM     26  C   UNL     1       1.414   8.397  18.343  0.00  0.00    +0.000 C 
ATOM     27  C   UNL     1       2.585   7.756  18.185  0.00  0.00    +0.000 C 
BRANCH  27  28
ATOM     28  C   UNL     1       2.743   6.380  18.675  0.00  0.00    +0.000 A 
ATOM     29  C   UNL     1       3.289   5.408  17.827  0.00  0.00    +0.000 A 
ATOM     30  C   UNL     1       3.377   4.075  18.238  0.00  0.00    +0.000 A 
ATOM     31  C   UNL     1       2.922   3.704  19.502  0.00  0.00    +0.000 A 
ATOM     32  C   UNL     1       2.389   4.668  20.359  0.00  0.00    +0.000 A 
ATOM     33  C   UNL     1       2.299   6.003  19.947  0.00  0.00    +0.000 A 
ENDBRANCH  27  28
ENDBRANCH  25  26
ENDBRANCH  10  25
TORSDOF 6
ENDMDL
MODEL 3
REMARK VINA RESULT:      -7.4      0.880      1.455
REMARK  Name = 
REMARK  7 active torsions:
REMARK  status: ('A' for Active; 'I' for Inactive)
REMARK    1  A    between atoms: C_1  and  C_2
REMARK    2  A    between atoms: C_3  and  P_4
REMARK    3  A    between atoms: P_4  and  C_6
REMARK    4  A    between atoms: P_4  and  C_12
REMARK    5  A    between atoms: N_24  and  C_25
REMARK    6  A    between atoms: C_25  and  C_26
REMARK    7  A    between atoms: C_27  and  C_28
REMARK                            x       y       z     vdW  Elec       q    Type
REMARK                         _______ _______ _______ _____ _____    ______ ____
ROOT
ATOM      1  C   UNL     1       1.289  10.982  20.673  0.00  0.00    +0.000 C 
ATOM      2  C   UNL     1       0.053  10.886  19.833  0.00  0.00    +0.000 A 
ATOM      3  C   UNL     1      -1.274  11.296  20.050  0.00  0.00    +0.000 A 
ATOM      4  C   UNL     1      -2.012  10.959  18.867  0.00  0.00    +0.000 A 
ATOM      5  C   UNL     1      -3.337  11.138  18.414  0.00  0.00    +0.000 A 
ATOM      6  C   UNL     1      -3.763  10.597  17.196  0.00  0.00    +0.000 A 
ATOM      7  C   UNL     1      -2.874   9.923  16.377  0.00  0.00    +0.000 A 
ATOM      8  C   UNL     1      -1.536   9.808  16.741  0.00  0.00    +0.000 A 
ATOM      9  C   UNL     1      -1.122  10.334  17.981  0.00  0.00    +0.000 A 
ATOM     10  N   UNL     1       0.139  10.409  18.539  0.00  0.00    +0.000 N 
ENDROOT
BRANCH   3  11
ATOM     11  P   UNL     1      -1.799  12.288  21.507  0.00  0.00    +0.000 P 
ATOM     12  S   UNL     1      -1.354  11.234  23.114  0.00  0.00    +0.000 S 
BRANCH  11  13
ATOM     13  C   UNL     1      -0.787  13.748  21.074  0.00  0.00    +0.000 A 
ATOM     14  C   UNL     1      -0.072  14.412  22.094  0.00  0.00    +0.000 A 
ATOM     15  C   UNL     1       0.720  15.515  21.797  0.00  0.00    +0.000 A 
ATOM     16  C   UNL     1       0.840  15.942  20.480  0.00  0.00    +0.000 A 
ATOM     17  C   UNL     1       0.170  15.264  19.459  0.00  0.00    +0.000 A 
ATOM     18  C   UNL     1      -0.644  14.174  19.751  0.00  0.00    +0.000 A 
ENDBRANCH  11  13
BRANCH  11  19
ATOM     19  C   UNL     1      -3.484  12.928  21.514  0.00  0.00    +0.000 A 
ATOM     20  C   UNL     1      -4.435  12.634  22.495  0.00  0.00    +0.000 A 
ATOM     21  C   UNL     1      -5.719  13.195  22.440  0.00  0.00    +0.000 A 
ATOM     22  C   UNL     1      -6.052  14.120  21.450  0.00  0.00    +0.000 A 
ATOM     23  C   UNL     1      -5.088  14.514  20.533  0.00  0.00    +0.000 A 
ATOM     24  C   UNL     1      -3.822  13.933  20.576  0.00  0.00    +0.000 A 
ENDBRANCH  11  19
ENDBRANCH   3  11
BRANCH  10  25
ATOM     25  C   UNL     1       1.379  10.021  17.855  0.00  0.00    +0.000 C 
BRANCH  25  26
ATOM     26  C   UNL     1       1.677   8.544  17.766  0.00  0.00    +0.000 C 
ATOM     27  C   UNL     1       2.659   7.831  18.343  0.00  0.00    +0.000 C 
BRANCH  27  28
ATOM     28  C   UNL     1       2.809   6.401  18.038  0.00  0.00    +0.000 A 
ATOM     29  C   UNL     1       1.833   5.499  18.481  0.00  0.00    +0.000 A 
ATOM     30  C   UNL     1       1.989   4.125  18.275  0.00  0.00    +0.000 A 
ATOM     31  C   UNL     1       3.123   3.643  17.623  0.00  0.00    +0.000 A 
ATOM     32  C   UNL     1       4.094   4.535  17.167  0.00  0.00    +0.000 A 
ATOM     33  C   UNL     1       3.938   5.911  17.374  0.00  0.00    +0.000 A 
ENDBRANCH  27  28
ENDBRANCH  25  26
ENDBRANCH  10  25
TORSDOF 6
ENDMDL
MODEL 4
REMARK VINA RESULT:      -7.3      0.973      1.207
REMARK  Name = 
REMARK  7 active torsions:
REMARK  status: ('A' for Active; 'I' for Inactive)
REMARK    1  A    between atoms: C_1  and  C_2
REMARK    2  A    between atoms: C_3  and  P_4
REMARK    3  A    between atoms: P_4  and  C_6
REMARK    4  A    between atoms: P_4  and  C_12
REMARK    5  A    between atoms: N_24  and  C_25
REMARK    6  A    between atoms: C_25  and  C_26
REMARK    7  A    between atoms: C_27  and  C_28
REMARK                            x       y       z     vdW  Elec       q    Type
REMARK                         _______ _______ _______ _____ _____    ______ ____
ROOT
ATOM      1  C   UNL     1       0.875  11.064  20.849  0.00  0.00    +0.000 C 
ATOM      2  C   UNL     1      -0.272  10.990  19.889  0.00  0.00    +0.000 A 
ATOM      3  C   UNL     1      -1.574  11.518  19.928  0.00  0.00    +0.000 A 
ATOM      4  C   UNL     1      -2.215  11.136  18.703  0.00  0.00    +0.000 A 
ATOM      5  C   UNL     1      -3.466  11.376  18.096  0.00  0.00    +0.000 A 
ATOM      6  C   UNL     1      -3.812  10.764  16.885  0.00  0.00    +0.000 A 
ATOM      7  C   UNL     1      -2.905   9.954  16.224  0.00  0.00    +0.000 A 
ATOM      8  C   UNL     1      -1.626   9.768  16.740  0.00  0.00    +0.000 A 
ATOM      9  C   UNL     1      -1.296  10.368  17.971  0.00  0.00    +0.000 A 
ATOM     10  N   UNL     1      -0.097  10.395  18.655  0.00  0.00    +0.000 N 
ENDROOT
BRANCH   3  11
ATOM     11  P   UNL     1      -2.158  12.673  21.236  0.00  0.00    +0.000 P 
ATOM     12  S   UNL     1      -1.274  12.136  22.916  0.00  0.00    +0.000 S 
BRANCH  11  13
ATOM     13  C   UNL     1      -1.607  14.184  20.366  0.00  0.00    +0.000 A 
ATOM     14  C   UNL     1      -2.117  15.435  20.777  0.00  0.00    +0.000 A 
ATOM     15  C   UNL     1      -1.708  16.604  20.148  0.00  0.00    +0.000 A 
ATOM     16  C   UNL     1      -0.758  16.545  19.135  0.00  0.00    +0.000 A 
ATOM     17  C   UNL     1      -0.216  15.316  18.752  0.00  0.00    +0.000 A 
ATOM     18  C   UNL     1      -0.638  14.138  19.360  0.00  0.00    +0.000 A 
ENDBRANCH  11  13
BRANCH  11  19
ATOM     19  C   UNL     1      -3.936  12.907  21.405  0.00  0.00    +0.000 A 
ATOM     20  C   UNL     1      -4.623  12.879  22.621  0.00  0.00    +0.000 A 
ATOM     21  C   UNL     1      -6.008  13.097  22.670  0.00  0.00    +0.000 A 
ATOM     22  C   UNL     1      -6.719  13.424  21.514  0.00  0.00    +0.000 A 
ATOM     23  C   UNL     1      -6.039  13.570  20.313  0.00  0.00    +0.000 A 
ATOM     24  C   UNL     1      -4.668  13.326  20.267  0.00  0.00    +0.000 A 
ENDBRANCH  11  19
ENDBRANCH   3  11
BRANCH  10  25
ATOM     25  C   UNL     1       1.168   9.853  18.142  0.00  0.00    +0.000 C 
BRANCH  25  26
ATOM     26  C   UNL     1       1.414   8.379  18.350  0.00  0.00    +0.000 C 
ATOM     27  C   UNL     1       2.203   7.758  19.244  0.00  0.00    +0.000 C 
BRANCH  27  28
ATOM     28  C   UNL     1       2.357   6.298  19.202  0.00  0.00    +0.000 A 
ATOM     29  C   UNL     1       2.763   5.685  18.010  0.00  0.00    +0.000 A 
ATOM     30  C   UNL     1       2.841   4.292  17.917  0.00  0.00    +0.000 A 
ATOM     31  C   UNL     1       2.515   3.501  19.018  0.00  0.00    +0.000 A 
ATOM     32  C   UNL     1       2.122   4.103  20.214  0.00  0.00    +0.000 A 
ATOM     33  C   UNL     1       2.043   5.499  20.307  0.00  0.00    +0.000 A 
ENDBRANCH  27  28
ENDBRANCH  25  26
ENDBRANCH  10  25
TORSDOF 6
ENDMDL
MODEL 5
REMARK VINA RESULT:      -7.2      0.614      1.057
REMARK  Name = 
REMARK  7 active torsions:
REMARK  status: ('A' for Active; 'I' for Inactive)
REMARK    1  A    between atoms: C_1  and  C_2
REMARK    2  A    between atoms: C_3  and  P_4
REMARK    3  A    between atoms: P_4  and  C_6
REMARK    4  A    between atoms: P_4  and  C_12
REMARK    5  A    between atoms: N_24  and  C_25
REMARK    6  A    between atoms: C_25  and  C_26
REMARK    7  A    between atoms: C_27  and  C_28
REMARK                            x       y       z     vdW  Elec       q    Type
REMARK                         _______ _______ _______ _____ _____    ______ ____
ROOT
ATOM      1  C   UNL     1       1.274  12.139  20.856  0.00  0.00    +0.000 C 
ATOM      2  C   UNL     1       0.039  11.816  20.073  0.00  0.00    +0.000 A 
ATOM      3  C   UNL     1      -1.289  12.266  20.170  0.00  0.00    +0.000 A 
ATOM      4  C   UNL     1      -2.025  11.619  19.124  0.00  0.00    +0.000 A 
ATOM      5  C   UNL     1      -3.350  11.666  18.639  0.00  0.00    +0.000 A 
ATOM      6  C   UNL     1      -3.775  10.813  17.613  0.00  0.00    +0.000 A 
ATOM      7  C   UNL     1      -2.883   9.944  17.008  0.00  0.00    +0.000 A 
ATOM      8  C   UNL     1      -1.545   9.935  17.390  0.00  0.00    +0.000 A 
ATOM      9  C   UNL     1      -1.133  10.778  18.441  0.00  0.00    +0.000 A 
ATOM     10  N   UNL     1       0.127  11.005  18.958  0.00  0.00    +0.000 N 
ENDROOT
BRANCH   3  11
ATOM     11  P   UNL     1      -1.817  13.616  21.304  0.00  0.00    +0.000 P 
ATOM     12  S   UNL     1      -1.582  12.949  23.145  0.00  0.00    +0.000 S 
BRANCH  11  13
ATOM     13  C   UNL     1      -0.646  14.849  20.632  0.00  0.00    +0.000 A 
ATOM     14  C   UNL     1      -0.623  15.082  19.239  0.00  0.00    +0.000 A 
ATOM     15  C   UNL     1       0.243  16.024  18.696  0.00  0.00    +0.000 A 
ATOM     16  C   UNL     1       1.062  16.771  19.535  0.00  0.00    +0.000 A 
ATOM     17  C   UNL     1       1.014  16.576  20.917  0.00  0.00    +0.000 A 
ATOM     18  C   UNL     1       0.167  15.619  21.466  0.00  0.00    +0.000 A 
ENDBRANCH  11  13
BRANCH  11  19
ATOM     19  C   UNL     1      -3.431  14.362  21.012  0.00  0.00    +0.000 A 
ATOM     20  C   UNL     1      -4.643  13.672  21.087  0.00  0.00    +0.000 A 
ATOM     21  C   UNL     1      -5.861  14.333  20.871  0.00  0.00    +0.000 A 
ATOM     22  C   UNL     1      -5.895  15.711  20.653  0.00  0.00    +0.000 A 
ATOM     23  C   UNL     1      -4.713  16.437  20.689  0.00  0.00    +0.000 A 
ATOM     24  C   UNL     1      -3.503  15.770  20.877  0.00  0.00    +0.000 A 
ENDBRANCH  11  19
ENDBRANCH   3  11
BRANCH  10  25
ATOM     25  C   UNL     1       1.368  10.448  18.404  0.00  0.00    +0.000 C 
BRANCH  25  26
ATOM     26  C   UNL     1       1.708   9.027  18.783  0.00  0.00    +0.000 C 
ATOM     27  C   UNL     1       2.389   8.095  18.094  0.00  0.00    +0.000 C 
BRANCH  27  28
ATOM     28  C   UNL     1       2.522   6.734  18.630  0.00  0.00    +0.000 A 
ATOM     29  C   UNL     1       2.027   6.448  19.909  0.00  0.00    +0.000 A 
ATOM     30  C   UNL     1       2.211   5.183  20.476  0.00  0.00    +0.000 A 
ATOM     31  C   UNL     1       2.890   4.194  19.767  0.00  0.00    +0.000 A 
ATOM     32  C   UNL     1       3.374   4.465  18.487  0.00  0.00    +0.000 A 
ATOM     33  C   UNL     1       3.191   5.732  17.919  0.00  0.00    +0.000 A 
ENDBRANCH  27  28
ENDBRANCH  25  26
ENDBRANCH  10  25
TORSDOF 6
ENDMDL
MODEL 6
REMARK VINA RESULT:      -7.2      2.108      3.912
REMARK  Name = 
REMARK  7 active torsions:
REMARK  status: ('A' for Active; 'I' for Inactive)
REMARK    1  A    between atoms: C_1  and  C_2
REMARK    2  A    between atoms: C_3  and  P_4
REMARK    3  A    between atoms: P_4  and  C_6
REMARK    4  A    between atoms: P_4  and  C_12
REMARK    5  A    between atoms: N_24  and  C_25
REMARK    6  A    between atoms: C_25  and  C_26
REMARK    7  A    between atoms: C_27  and  C_28
REMARK                            x       y       z     vdW  Elec       q    Type
REMARK                         _______ _______ _______ _____ _____    ______ ____
ROOT
ATOM      1  C   UNL     1       0.455  12.927  18.094  0.00  0.00    +0.000 C 
ATOM      2  C   UNL     1       0.313  12.011  19.269  0.00  0.00    +0.000 A 
ATOM      3  C   UNL     1      -0.492  12.065  20.420  0.00  0.00    +0.000 A 
ATOM      4  C   UNL     1      -0.211  10.883  21.181  0.00  0.00    +0.000 A 
ATOM      5  C   UNL     1      -0.697  10.306  22.374  0.00  0.00    +0.000 A 
ATOM      6  C   UNL     1      -0.126   9.139  22.898  0.00  0.00    +0.000 A 
ATOM      7  C   UNL     1       0.892   8.491  22.222  0.00  0.00    +0.000 A 
ATOM      8  C   UNL     1       1.336   8.973  20.994  0.00  0.00    +0.000 A 
ATOM      9  C   UNL     1       0.772  10.161  20.487  0.00  0.00    +0.000 A 
ATOM     10  N   UNL     1       0.984  10.803  19.283  0.00  0.00    +0.000 N 
ENDROOT
BRANCH   3  11
ATOM     11  P   UNL     1      -1.802  13.331  20.678  0.00  0.00    +0.000 P 
ATOM     12  S   UNL     1      -1.071  15.053  20.052  0.00  0.00    +0.000 S 
BRANCH  11  13
ATOM     13  C   UNL     1      -3.057  12.462  19.672  0.00  0.00    +0.000 A 
ATOM     14  C   UNL     1      -4.420  12.789  19.847  0.00  0.00    +0.000 A 
ATOM     15  C   UNL     1      -5.399  12.160  19.088  0.00  0.00    +0.000 A 
ATOM     16  C   UNL     1      -5.030  11.231  18.121  0.00  0.00    +0.000 A 
ATOM     17  C   UNL     1      -3.682  10.934  17.912  0.00  0.00    +0.000 A 
ATOM     18  C   UNL     1      -2.697  11.543  18.684  0.00  0.00    +0.000 A 
ENDBRANCH  11  13
BRANCH  11  19
ATOM     19  C   UNL     1      -2.559  13.425  22.310  0.00  0.00    +0.000 A 
ATOM     20  C   UNL     1      -3.312  12.400  22.889  0.00  0.00    +0.000 A 
ATOM     21  C   UNL     1      -3.847  12.542  24.179  0.00  0.00    +0.000 A 
ATOM     22  C   UNL     1      -3.573  13.678  24.943  0.00  0.00    +0.000 A 
ATOM     23  C   UNL     1      -2.732  14.657  24.432  0.00  0.00    +0.000 A 
ATOM     24  C   UNL     1      -2.226  14.523  23.140  0.00  0.00    +0.000 A 
ENDBRANCH  11  19
ENDBRANCH   3  11
BRANCH  10  25
ATOM     25  C   UNL     1       1.814  10.277  18.192  0.00  0.00    +0.000 C 
BRANCH  25  26
ATOM     26  C   UNL     1       2.025   8.783  18.153  0.00  0.00    +0.000 C 
ATOM     27  C   UNL     1       3.133   8.081  17.859  0.00  0.00    +0.000 C 
BRANCH  27  28
ATOM     28  C   UNL     1       3.080   6.614  17.796  0.00  0.00    +0.000 A 
ATOM     29  C   UNL     1       4.158   5.911  17.242  0.00  0.00    +0.000 A 
ATOM     30  C   UNL     1       4.101   4.522  17.096  0.00  0.00    +0.000 A 
ATOM     31  C   UNL     1       2.966   3.824  17.505  0.00  0.00    +0.000 A 
ATOM     32  C   UNL     1       1.893   4.514  18.070  0.00  0.00    +0.000 A 
ATOM     33  C   UNL     1       1.949   5.906  18.216  0.00  0.00    +0.000 A 
ENDBRANCH  27  28
ENDBRANCH  25  26
ENDBRANCH  10  25
TORSDOF 6
ENDMDL
MODEL 7
REMARK VINA RESULT:      -7.1      4.301      6.974
REMARK  Name = 
REMARK  7 active torsions:
REMARK  status: ('A' for Active; 'I' for Inactive)
REMARK    1  A    between atoms: C_1  and  C_2
REMARK    2  A    between atoms: C_3  and  P_4
REMARK    3  A    between atoms: P_4  and  C_6
REMARK    4  A    between atoms: P_4  and  C_12
REMARK    5  A    between atoms: N_24  and  C_25
REMARK    6  A    between atoms: C_25  and  C_26
REMARK    7  A    between atoms: C_27  and  C_28
REMARK                            x       y       z     vdW  Elec       q    Type
REMARK                         _______ _______ _______ _____ _____    ______ ____
ROOT
ATOM      1  C   UNL     1      -7.403  12.301  21.005  0.00  0.00    +0.000 C 
ATOM      2  C   UNL     1      -6.979  13.693  20.650  0.00  0.00    +0.000 A 
ATOM      3  C   UNL     1      -6.447  14.745  21.415  0.00  0.00    +0.000 A 
ATOM      4  C   UNL     1      -6.211  15.836  20.515  0.00  0.00    +0.000 A 
ATOM      5  C   UNL     1      -5.655  17.130  20.615  0.00  0.00    +0.000 A 
ATOM      6  C   UNL     1      -5.648  18.000  19.518  0.00  0.00    +0.000 A 
ATOM      7  C   UNL     1      -6.134  17.586  18.290  0.00  0.00    +0.000 A 
ATOM      8  C   UNL     1      -6.602  16.286  18.124  0.00  0.00    +0.000 A 
ATOM      9  C   UNL     1      -6.629  15.426  19.240  0.00  0.00    +0.000 A 
ATOM     10  N   UNL     1      -6.976  14.093  19.327  0.00  0.00    +0.000 N 
ENDROOT
BRANCH   3  11
ATOM     11  P   UNL     1      -5.958  14.563  23.180  0.00  0.00    +0.000 P 
ATOM     12  S   UNL     1      -7.454  13.672  24.105  0.00  0.00    +0.000 S 
BRANCH  11  13
ATOM     13  C   UNL     1      -4.429  13.627  22.820  0.00  0.00    +0.000 A 
ATOM     14  C   UNL     1      -3.980  12.666  23.753  0.00  0.00    +0.000 A 
ATOM     15  C   UNL     1      -2.831  11.926  23.505  0.00  0.00    +0.000 A 
ATOM     16  C   UNL     1      -2.142  12.103  22.310  0.00  0.00    +0.000 A 
ATOM     17  C   UNL     1      -2.604  13.021  21.364  0.00  0.00    +0.000 A 
ATOM     18  C   UNL     1      -3.740  13.783  21.616  0.00  0.00    +0.000 A 
ENDBRANCH  11  13
BRANCH  11  19
ATOM     19  C   UNL     1      -5.362  16.035  24.033  0.00  0.00    +0.000 A 
ATOM     20  C   UNL     1      -4.069  16.182  24.541  0.00  0.00    +0.000 A 
ATOM     21  C   UNL     1      -3.676  17.372  25.171  0.00  0.00    +0.000 A 
ATOM     22  C   UNL     1      -4.542  18.465  25.235  0.00  0.00    +0.000 A 
ATOM     23  C   UNL     1      -5.791  18.381  24.635  0.00  0.00    +0.000 A 
ATOM     24  C   UNL     1      -6.186  17.187  24.035  0.00  0.00    +0.000 A 
ENDBRANCH  11  19
ENDBRANCH   3  11
BRANCH  10  25
ATOM     25  C   UNL     1      -7.308  13.240  18.179  0.00  0.00    +0.000 C 
BRANCH  25  26
ATOM     26  C   UNL     1      -6.184  12.429  17.582  0.00  0.00    +0.000 C 
ATOM     27  C   UNL     1      -5.102  11.896  18.175  0.00  0.00    +0.000 C 
BRANCH  27  28
ATOM     28  C   UNL     1      -4.081  11.213  17.368  0.00  0.00    +0.000 A 
ATOM     29  C   UNL     1      -4.262  11.101  15.984  0.00  0.00    +0.000 A 
ATOM     30  C   UNL     1      -3.348  10.387  15.203  0.00  0.00    +0.000 A 
ATOM     31  C   UNL     1      -2.244   9.782  15.801  0.00  0.00    +0.000 A 
ATOM     32  C   UNL     1      -2.049   9.899  17.178  0.00  0.00    +0.000 A 
ATOM     33  C   UNL     1      -2.965  10.613  17.960  0.00  0.00    +0.000 A 
ENDBRANCH  27  28
ENDBRANCH  25  26
ENDBRANCH  10  25
TORSDOF 6
ENDMDL
MODEL 8
REMARK VINA RESULT:      -7.0      2.064      4.287
REMARK  Name = 
REMARK  7 active torsions:
REMARK  status: ('A' for Active; 'I' for Inactive)
REMARK    1  A    between atoms: C_1  and  C_2
REMARK    2  A    between atoms: C_3  and  P_4
REMARK    3  A    between atoms: P_4  and  C_6
REMARK    4  A    between atoms: P_4  and  C_12
REMARK    5  A    between atoms: N_24  and  C_25
REMARK    6  A    between atoms: C_25  and  C_26
REMARK    7  A    between atoms: C_27  and  C_28
REMARK                            x       y       z     vdW  Elec       q    Type
REMARK                         _______ _______ _______ _____ _____    ______ ____
ROOT
ATOM      1  C   UNL     1       1.294  10.958  17.720  0.00  0.00    +0.000 C 
ATOM      2  C   UNL     1       0.814  10.753  19.123  0.00  0.00    +0.000 A 
ATOM      3  C   UNL     1      -0.186  11.383  19.884  0.00  0.00    +0.000 A 
ATOM      4  C   UNL     1      -0.206  10.735  21.163  0.00  0.00    +0.000 A 
ATOM      5  C   UNL     1      -0.982  10.835  22.338  0.00  0.00    +0.000 A 
ATOM      6  C   UNL     1      -0.672  10.080  23.476  0.00  0.00    +0.000 A 
ATOM      7  C   UNL     1       0.370   9.169  23.452  0.00  0.00    +0.000 A 
ATOM      8  C   UNL     1       1.099   8.970  22.283  0.00  0.00    +0.000 A 
ATOM      9  C   UNL     1       0.796   9.753  21.152  0.00  0.00    +0.000 A 
ATOM     10  N   UNL     1       1.315   9.706  19.873  0.00  0.00    +0.000 N 
ENDROOT
BRANCH   3  11
ATOM     11  P   UNL     1      -1.354  12.623  19.188  0.00  0.00    +0.000 P 
ATOM     12  S   UNL     1      -0.273  14.160  18.588  0.00  0.00    +0.000 S 
BRANCH  11  13
ATOM     13  C   UNL     1      -2.071  11.483  17.952  0.00  0.00    +0.000 A 
ATOM     14  C   UNL     1      -2.615  10.255  18.388  0.00  0.00    +0.000 A 
ATOM     15  C   UNL     1      -3.183   9.372  17.477  0.00  0.00    +0.000 A 
ATOM     16  C   UNL     1      -3.252   9.720  16.132  0.00  0.00    +0.000 A 
ATOM     17  C   UNL     1      -2.755  10.951  15.700  0.00  0.00    +0.000 A 
ATOM     18  C   UNL     1      -2.163  11.830  16.602  0.00  0.00    +0.000 A 
ENDBRANCH  11  13
BRANCH  11  19
ATOM     19  C   UNL     1      -2.768  13.092  20.201  0.00  0.00    +0.000 A 
ATOM     20  C   UNL     1      -2.719  14.028  21.238  0.00  0.00    +0.000 A 
ATOM     21  C   UNL     1      -3.874  14.357  21.964  0.00  0.00    +0.000 A 
ATOM     22  C   UNL     1      -5.113  13.817  21.616  0.00  0.00    +0.000 A 
ATOM     23  C   UNL     1      -5.205  12.974  20.517  0.00  0.00    +0.000 A 
ATOM     24  C   UNL     1      -4.050  12.629  19.817  0.00  0.00    +0.000 A 
ENDBRANCH  11  19
ENDBRANCH   3  11
BRANCH  10  25
ATOM     25  C   UNL     1       2.269   8.697  19.396  0.00  0.00    +0.000 C 
BRANCH  25  26
ATOM     26  C   UNL     1       1.865   7.250  19.544  0.00  0.00    +0.000 C 
ATOM     27  C   UNL     1       2.627   6.142  19.543  0.00  0.00    +0.000 C 
BRANCH  27  28
ATOM     28  C   UNL     1       1.998   4.816  19.613  0.00  0.00    +0.000 A 
ATOM     29  C   UNL     1       1.783   4.223  20.864  0.00  0.00    +0.000 A 
ATOM     30  C   UNL     1       1.260   2.930  20.957  0.00  0.00    +0.000 A 
ATOM     31  C   UNL     1       0.948   2.220  19.799  0.00  0.00    +0.000 A 
ATOM     32  C   UNL     1       1.147   2.806  18.549  0.00  0.00    +0.000 A 
ATOM     33  C   UNL     1       1.671   4.102  18.456  0.00  0.00    +0.000 A 
ENDBRANCH  27  28
ENDBRANCH  25  26
ENDBRANCH  10  25
TORSDOF 6
ENDMDL
MODEL 9
REMARK VINA RESULT:      -7.0      2.047      4.072
REMARK  Name = 
REMARK  7 active torsions:
REMARK  status: ('A' for Active; 'I' for Inactive)
REMARK    1  A    between atoms: C_1  and  C_2
REMARK    2  A    between atoms: C_3  and  P_4
REMARK    3  A    between atoms: P_4  and  C_6
REMARK    4  A    between atoms: P_4  and  C_12
REMARK    5  A    between atoms: N_24  and  C_25
REMARK    6  A    between atoms: C_25  and  C_26
REMARK    7  A    between atoms: C_27  and  C_28
REMARK                            x       y       z     vdW  Elec       q    Type
REMARK                         _______ _______ _______ _____ _____    ______ ____
ROOT
ATOM      1  C   UNL     1       1.368  11.143  17.806  0.00  0.00    +0.000 C 
ATOM      2  C   UNL     1       0.841  10.880  19.183  0.00  0.00    +0.000 A 
ATOM      3  C   UNL     1      -0.211  11.452  19.919  0.00  0.00    +0.000 A 
ATOM      4  C   UNL     1      -0.259  10.767  21.178  0.00  0.00    +0.000 A 
ATOM      5  C   UNL     1      -1.084  10.807  22.322  0.00  0.00    +0.000 A 
ATOM      6  C   UNL     1      -0.793  10.030  23.451  0.00  0.00    +0.000 A 
ATOM      7  C   UNL     1       0.281   9.158  23.444  0.00  0.00    +0.000 A 
ATOM      8  C   UNL     1       1.064   9.018  22.302  0.00  0.00    +0.000 A 
ATOM      9  C   UNL     1       0.778   9.822  21.180  0.00  0.00    +0.000 A 
ATOM     10  N   UNL     1       1.348   9.830  19.923  0.00  0.00    +0.000 N 
ENDROOT
BRANCH   3  11
ATOM     11  P   UNL     1      -1.395  12.670  19.210  0.00  0.00    +0.000 P 
ATOM     12  S   UNL     1      -0.332  14.206  18.576  0.00  0.00    +0.000 S 
BRANCH  11  13
ATOM     13  C   UNL     1      -2.111  11.503  17.999  0.00  0.00    +0.000 A 
ATOM     14  C   UNL     1      -2.155  11.872  16.637  0.00  0.00    +0.000 A 
ATOM     15  C   UNL     1      -2.679  11.003  15.687  0.00  0.00    +0.000 A 
ATOM     16  C   UNL     1      -3.124   9.745  16.076  0.00  0.00    +0.000 A 
ATOM     17  C   UNL     1      -3.043   9.355  17.415  0.00  0.00    +0.000 A 
ATOM     18  C   UNL     1      -2.543  10.229  18.375  0.00  0.00    +0.000 A 
ENDBRANCH  11  13
BRANCH  11  19
ATOM     19  C   UNL     1      -2.806  13.145  20.225  0.00  0.00    +0.000 A 
ATOM     20  C   UNL     1      -4.094  12.624  20.078  0.00  0.00    +0.000 A 
ATOM     21  C   UNL     1      -5.134  13.029  20.928  0.00  0.00    +0.000 A 
ATOM     22  C   UNL     1      -4.889  13.902  21.989  0.00  0.00    +0.000 A 
ATOM     23  C   UNL     1      -3.594  14.344  22.224  0.00  0.00    +0.000 A 
ATOM     24  C   UNL     1      -2.570  13.959  21.360  0.00  0.00    +0.000 A 
ENDBRANCH  11  19
ENDBRANCH   3  11
BRANCH  10  25
ATOM     25  C   UNL     1       2.357   8.869  19.459  0.00  0.00    +0.000 C 
BRANCH  25  26
ATOM     26  C   UNL     1       1.993   7.406  19.531  0.00  0.00    +0.000 C 
ATOM     27  C   UNL     1       2.777   6.320  19.422  0.00  0.00    +0.000 C 
BRANCH  27  28
ATOM     28  C   UNL     1       2.182   4.977  19.436  0.00  0.00    +0.000 A 
ATOM     29  C   UNL     1       2.009   4.291  18.227  0.00  0.00    +0.000 A 
ATOM     30  C   UNL     1       1.372   3.046  18.201  0.00  0.00    +0.000 A 
ATOM     31  C   UNL     1       0.907   2.478  19.386  0.00  0.00    +0.000 A 
ATOM     32  C   UNL     1       1.086   3.148  20.596  0.00  0.00    +0.000 A 
ATOM     33  C   UNL     1       1.723   4.395  20.622  0.00  0.00    +0.000 A 
ENDBRANCH  27  28
ENDBRANCH  25  26
ENDBRANCH  10  25
TORSDOF 6
ENDMDL
