MODEL 1
REMARK VINA RESULT:      -6.8      0.000      0.000
REMARK  Name = 
REMARK  8 active torsions:
REMARK  status: ('A' for Active; 'I' for Inactive)
REMARK    1  A    between atoms: O_1  and  C_2
REMARK    2  A    between atoms: C_3  and  O_4
REMARK    3  A    between atoms: C_5  and  C_6
REMARK    4  A    between atoms: C_6  and  C_7
REMARK    5  A    between atoms: C_7  and  S_8
REMARK    6  A    between atoms: S_8  and  C_9
REMARK    7  A    between atoms: C_9  and  C_10
REMARK    8  A    between atoms: C_18  and  O_19
REMARK                            x       y       z     vdW  Elec       q    Type
REMARK                         _______ _______ _______ _____ _____    ______ ____
ROOT
ATOM      1  C   UNL     1       3.066   3.127  18.303  0.00  0.00    +0.000 C 
ATOM      2  C   UNL     1       3.986   3.277  19.525  0.00  0.00    +0.000 C 
ATOM      3  C   UNL     1       4.381   4.756  19.720  0.00  0.00    +0.000 C 
ATOM      4  N   UNL     1       3.159   5.545  19.979  0.00  0.00    +0.000 NA
ATOM      5  C   UNL     1       2.178   5.457  18.891  0.00  0.00    +0.000 C 
ATOM      6  C   UNL     1       1.820   4.020  18.470  0.00  0.00    +0.000 C 
ATOM      7  H   UNL     1       3.396   6.526  20.142  0.00  0.00    +0.000 HD
ENDROOT
BRANCH   1   8
ATOM      8  O   UNL     1       2.677   1.756  18.134  0.00  0.00    +0.000 OA
ATOM      9  H   UNL     1       3.476   1.230  17.949  0.00  0.00    +0.000 HD
ENDBRANCH   1   8
BRANCH   2  10
ATOM     10  O   UNL     1       5.127   2.422  19.441  0.00  0.00    +0.000 OA
ATOM     11  H   UNL     1       5.796   2.827  18.866  0.00  0.00    +0.000 HD
ENDBRANCH   2  10
BRANCH   6  12
ATOM     12  O   UNL     1       1.060   4.078  17.253  0.00  0.00    +0.000 OA
ATOM     13  H   UNL     1       0.867   5.011  17.058  0.00  0.00    +0.000 HD
ENDBRANCH   6  12
BRANCH   3  14
ATOM     14  C   UNL     1       5.165   5.408  18.559  0.00  0.00    +0.000 C 
BRANCH  14  15
ATOM     15  C   UNL     1       6.684   5.368  18.670  0.00  0.00    +0.000 C 
BRANCH  15  16
ATOM     16  S   UNL     1       7.428   4.671  17.159  0.00  0.00    +0.000 S 
BRANCH  16  17
ATOM     17  C   UNL     1       5.953   4.571  16.093  0.00  0.00    +0.000 C 
BRANCH  17  18
ATOM     18  C   UNL     1       6.360   4.411  14.655  0.00  0.00    +0.000 A 
ATOM     19  C   UNL     1       7.430   5.158  14.138  0.00  0.00    +0.000 A 
ATOM     20  C   UNL     1       7.767   5.065  12.790  0.00  0.00    +0.000 A 
ATOM     21  C   UNL     1       7.038   4.225  11.953  0.00  0.00    +0.000 A 
ATOM     22  C   UNL     1       5.980   3.473  12.456  0.00  0.00    +0.000 A 
ATOM     23  C   UNL     1       5.639   3.566  13.806  0.00  0.00    +0.000 A 
ENDBRANCH  17  18
ENDBRANCH  16  17
ENDBRANCH  15  16
ENDBRANCH  14  15
ENDBRANCH   3  14
TORSDOF 8
ENDMDL
MODEL 2
REMARK VINA RESULT:      -6.8      2.493      3.932
REMARK  Name = 
REMARK  8 active torsions:
REMARK  status: ('A' for Active; 'I' for Inactive)
REMARK    1  A    between atoms: O_1  and  C_2
REMARK    2  A    between atoms: C_3  and  O_4
REMARK    3  A    between atoms: C_5  and  C_6
REMARK    4  A    between atoms: C_6  and  C_7
REMARK    5  A    between atoms: C_7  and  S_8
REMARK    6  A    between atoms: S_8  and  C_9
REMARK    7  A    between atoms: C_9  and  C_10
REMARK    8  A    between atoms: C_18  and  O_19
REMARK                            x       y       z     vdW  Elec       q    Type
REMARK                         _______ _______ _______ _____ _____    ______ ____
ROOT
ATOM      1  C   UNL     1       2.837   2.765  20.465  0.00  0.00    +0.000 C 
ATOM      2  C   UNL     1       1.425   2.480  19.930  0.00  0.00    +0.000 C 
ATOM      3  C   UNL     1       1.358   2.759  18.415  0.00  0.00    +0.000 C 
ATOM      4  N   UNL     1       2.292   1.848  17.721  0.00  0.00    +0.000 NA
ATOM      5  C   UNL     1       3.681   1.999  18.169  0.00  0.00    +0.000 C 
ATOM      6  C   UNL     1       3.871   1.917  19.696  0.00  0.00    +0.000 C 
ATOM      7  H   UNL     1       2.245   1.991  16.710  0.00  0.00    +0.000 HD
ENDROOT
BRANCH   1   8
ATOM      8  O   UNL     1       2.909   2.482  21.869  0.00  0.00    +0.000 OA
ATOM      9  H   UNL     1       2.241   1.804  22.081  0.00  0.00    +0.000 HD
ENDBRANCH   1   8
BRANCH   2  10
ATOM     10  O   UNL     1       0.426   3.201  20.654  0.00  0.00    +0.000 OA
ATOM     11  H   UNL     1      -0.110   3.724  20.037  0.00  0.00    +0.000 HD
ENDBRANCH   2  10
BRANCH   6  12
ATOM     12  O   UNL     1       5.210   2.326  20.009  0.00  0.00    +0.000 OA
ATOM     13  H   UNL     1       5.468   1.912  20.850  0.00  0.00    +0.000 HD
ENDBRANCH   6  12
BRANCH   3  14
ATOM     14  C   UNL     1       1.655   4.212  17.979  0.00  0.00    +0.000 C 
BRANCH  14  15
ATOM     15  C   UNL     1       1.816   5.229  19.101  0.00  0.00    +0.000 C 
BRANCH  15  16
ATOM     16  S   UNL     1       3.010   6.525  18.637  0.00  0.00    +0.000 S 
BRANCH  16  17
ATOM     17  C   UNL     1       4.573   5.677  19.034  0.00  0.00    +0.000 C 
BRANCH  17  18
ATOM     18  C   UNL     1       5.331   5.364  17.773  0.00  0.00    +0.000 A 
ATOM     19  C   UNL     1       6.567   4.703  17.840  0.00  0.00    +0.000 A 
ATOM     20  C   UNL     1       7.305   4.472  16.682  0.00  0.00    +0.000 A 
ATOM     21  C   UNL     1       6.811   4.899  15.452  0.00  0.00    +0.000 A 
ATOM     22  C   UNL     1       5.581   5.548  15.373  0.00  0.00    +0.000 A 
ATOM     23  C   UNL     1       4.841   5.782  16.533  0.00  0.00    +0.000 A 
ENDBRANCH  17  18
ENDBRANCH  16  17
ENDBRANCH  15  16
ENDBRANCH  14  15
ENDBRANCH   3  14
TORSDOF 8
ENDMDL
MODEL 3
REMARK VINA RESULT:      -6.7      3.268      6.309
REMARK  Name = 
REMARK  8 active torsions:
REMARK  status: ('A' for Active; 'I' for Inactive)
REMARK    1  A    between atoms: O_1  and  C_2
REMARK    2  A    between atoms: C_3  and  O_4
REMARK    3  A    between atoms: C_5  and  C_6
REMARK    4  A    between atoms: C_6  and  C_7
REMARK    5  A    between atoms: C_7  and  S_8
REMARK    6  A    between atoms: S_8  and  C_9
REMARK    7  A    between atoms: C_9  and  C_10
REMARK    8  A    between atoms: C_18  and  O_19
REMARK                            x       y       z     vdW  Elec       q    Type
REMARK                         _______ _______ _______ _____ _____    ______ ____
ROOT
ATOM      1  C   UNL     1       6.832   5.321  15.153  0.00  0.00    +0.000 C 
ATOM      2  C   UNL     1       7.014   5.823  16.593  0.00  0.00    +0.000 C 
ATOM      3  C   UNL     1       5.735   5.571  17.417  0.00  0.00    +0.000 C 
ATOM      4  N   UNL     1       5.488   4.115  17.478  0.00  0.00    +0.000 NA
ATOM      5  C   UNL     1       5.327   3.503  16.154  0.00  0.00    +0.000 C 
ATOM      6  C   UNL     1       6.461   3.823  15.162  0.00  0.00    +0.000 C 
ATOM      7  H   UNL     1       4.661   3.917  18.045  0.00  0.00    +0.000 HD
ENDROOT
BRANCH   1   8
ATOM      8  O   UNL     1       8.029   5.532  14.391  0.00  0.00    +0.000 OA
ATOM      9  H   UNL     1       8.374   4.663  14.115  0.00  0.00    +0.000 HD
ENDBRANCH   1   8
BRANCH   2  10
ATOM     10  O   UNL     1       7.416   7.194  16.632  0.00  0.00    +0.000 OA
ATOM     11  H   UNL     1       8.322   7.278  16.293  0.00  0.00    +0.000 HD
ENDBRANCH   2  10
BRANCH   6  12
ATOM     12  O   UNL     1       6.060   3.382  13.856  0.00  0.00    +0.000 OA
ATOM     13  H   UNL     1       6.532   2.557  13.653  0.00  0.00    +0.000 HD
ENDBRANCH   6  12
BRANCH   3  14
ATOM     14  C   UNL     1       4.455   6.277  16.916  0.00  0.00    +0.000 C 
BRANCH  14  15
ATOM     15  C   UNL     1       4.051   7.542  17.663  0.00  0.00    +0.000 C 
BRANCH  15  16
ATOM     16  S   UNL     1       2.334   7.424  18.261  0.00  0.00    +0.000 S 
BRANCH  16  17
ATOM     17  C   UNL     1       2.595   6.472  19.794  0.00  0.00    +0.000 C 
BRANCH  17  18
ATOM     18  C   UNL     1       2.048   5.080  19.641  0.00  0.00    +0.000 A 
ATOM     19  C   UNL     1       1.877   4.527  18.362  0.00  0.00    +0.000 A 
ATOM     20  C   UNL     1       1.307   3.265  18.212  0.00  0.00    +0.000 A 
ATOM     21  C   UNL     1       0.906   2.550  19.337  0.00  0.00    +0.000 A 
ATOM     22  C   UNL     1       1.078   3.086  20.611  0.00  0.00    +0.000 A 
ATOM     23  C   UNL     1       1.648   4.351  20.764  0.00  0.00    +0.000 A 
ENDBRANCH  17  18
ENDBRANCH  16  17
ENDBRANCH  15  16
ENDBRANCH  14  15
ENDBRANCH   3  14
TORSDOF 8
ENDMDL
MODEL 4
REMARK VINA RESULT:      -6.6      1.249      2.018
REMARK  Name = 
REMARK  8 active torsions:
REMARK  status: ('A' for Active; 'I' for Inactive)
REMARK    1  A    between atoms: O_1  and  C_2
REMARK    2  A    between atoms: C_3  and  O_4
REMARK    3  A    between atoms: C_5  and  C_6
REMARK    4  A    between atoms: C_6  and  C_7
REMARK    5  A    between atoms: C_7  and  S_8
REMARK    6  A    between atoms: S_8  and  C_9
REMARK    7  A    between atoms: C_9  and  C_10
REMARK    8  A    between atoms: C_18  and  O_19
REMARK                            x       y       z     vdW  Elec       q    Type
REMARK                         _______ _______ _______ _____ _____    ______ ____
ROOT
ATOM      1  C   UNL     1       4.267   3.005  19.154  0.00  0.00    +0.000 C 
ATOM      2  C   UNL     1       4.495   4.439  19.657  0.00  0.00    +0.000 C 
ATOM      3  C   UNL     1       3.689   5.440  18.805  0.00  0.00    +0.000 C 
ATOM      4  N   UNL     1       2.250   5.138  18.950  0.00  0.00    +0.000 NA
ATOM      5  C   UNL     1       1.904   3.775  18.531  0.00  0.00    +0.000 C 
ATOM      6  C   UNL     1       2.761   2.672  19.179  0.00  0.00    +0.000 C 
ATOM      7  H   UNL     1       1.689   5.808  18.419  0.00  0.00    +0.000 HD
ENDROOT
BRANCH   1   8
ATOM      8  O   UNL     1       4.996   2.068  19.960  0.00  0.00    +0.000 OA
ATOM      9  H   UNL     1       4.736   1.167  19.696  0.00  0.00    +0.000 HD
ENDBRANCH   1   8
BRANCH   2  10
ATOM     10  O   UNL     1       5.884   4.771  19.706  0.00  0.00    +0.000 OA
ATOM     11  H   UNL     1       5.989   5.694  19.986  0.00  0.00    +0.000 HD
ENDBRANCH   2  10
BRANCH   6  12
ATOM     12  O   UNL     1       2.494   1.433  18.505  0.00  0.00    +0.000 OA
ATOM     13  H   UNL     1       2.295   0.757  19.174  0.00  0.00    +0.000 HD
ENDBRANCH   6  12
BRANCH   3  14
ATOM     14  C   UNL     1       4.043   5.492  17.302  0.00  0.00    +0.000 C 
BRANCH  14  15
ATOM     15  C   UNL     1       4.902   6.669  16.855  0.00  0.00    +0.000 C 
BRANCH  15  16
ATOM     16  S   UNL     1       6.651   6.180  16.714  0.00  0.00    +0.000 S 
BRANCH  16  17
ATOM     17  C   UNL     1       6.458   4.473  16.105  0.00  0.00    +0.000 C 
BRANCH  17  18
ATOM     18  C   UNL     1       6.629   4.430  14.611  0.00  0.00    +0.000 A 
ATOM     19  C   UNL     1       5.877   3.530  13.842  0.00  0.00    +0.000 A 
ATOM     20  C   UNL     1       6.081   3.438  12.467  0.00  0.00    +0.000 A 
ATOM     21  C   UNL     1       7.037   4.244  11.855  0.00  0.00    +0.000 A 
ATOM     22  C   UNL     1       7.784   5.147  12.609  0.00  0.00    +0.000 A 
ATOM     23  C   UNL     1       7.582   5.240  13.986  0.00  0.00    +0.000 A 
ENDBRANCH  17  18
ENDBRANCH  16  17
ENDBRANCH  15  16
ENDBRANCH  14  15
ENDBRANCH   3  14
TORSDOF 8
ENDMDL
MODEL 5
REMARK VINA RESULT:      -6.6      0.211      1.129
REMARK  Name = 
REMARK  8 active torsions:
REMARK  status: ('A' for Active; 'I' for Inactive)
REMARK    1  A    between atoms: O_1  and  C_2
REMARK    2  A    between atoms: C_3  and  O_4
REMARK    3  A    between atoms: C_5  and  C_6
REMARK    4  A    between atoms: C_6  and  C_7
REMARK    5  A    between atoms: C_7  and  S_8
REMARK    6  A    between atoms: S_8  and  C_9
REMARK    7  A    between atoms: C_9  and  C_10
REMARK    8  A    between atoms: C_18  and  O_19
REMARK                            x       y       z     vdW  Elec       q    Type
REMARK                         _______ _______ _______ _____ _____    ______ ____
ROOT
ATOM      1  C   UNL     1       2.936   3.028  18.491  0.00  0.00    +0.000 C 
ATOM      2  C   UNL     1       3.866   3.245  19.694  0.00  0.00    +0.000 C 
ATOM      3  C   UNL     1       4.348   4.710  19.743  0.00  0.00    +0.000 C 
ATOM      4  N   UNL     1       3.174   5.591  19.919  0.00  0.00    +0.000 NA
ATOM      5  C   UNL     1       2.186   5.453  18.842  0.00  0.00    +0.000 C 
ATOM      6  C   UNL     1       1.744   4.004  18.564  0.00  0.00    +0.000 C 
ATOM      7  H   UNL     1       3.469   6.568  19.984  0.00  0.00    +0.000 HD
ENDROOT
BRANCH   1   8
ATOM      8  O   UNL     1       2.467   1.673  18.457  0.00  0.00    +0.000 OA
ATOM      9  H   UNL     1       2.323   1.420  17.526  0.00  0.00    +0.000 HD
ENDBRANCH   1   8
BRANCH   2  10
ATOM     10  O   UNL     1       4.956   2.321  19.698  0.00  0.00    +0.000 OA
ATOM     11  H   UNL     1       4.749   1.570  19.119  0.00  0.00    +0.000 HD
ENDBRANCH   2  10
BRANCH   6  12
ATOM     12  O   UNL     1       0.985   3.986  17.346  0.00  0.00    +0.000 OA
ATOM     13  H   UNL     1       1.361   4.648  16.741  0.00  0.00    +0.000 HD
ENDBRANCH   6  12
BRANCH   3  14
ATOM     14  C   UNL     1       5.165   5.197  18.525  0.00  0.00    +0.000 C 
BRANCH  14  15
ATOM     15  C   UNL     1       6.677   5.048  18.629  0.00  0.00    +0.000 C 
BRANCH  15  16
ATOM     16  S   UNL     1       7.425   4.833  16.981  0.00  0.00    +0.000 S 
BRANCH  16  17
ATOM     17  C   UNL     1       5.920   4.747  15.956  0.00  0.00    +0.000 C 
BRANCH  17  18
ATOM     18  C   UNL     1       6.285   4.555  14.510  0.00  0.00    +0.000 A 
ATOM     19  C   UNL     1       5.575   3.637  13.721  0.00  0.00    +0.000 A 
ATOM     20  C   UNL     1       5.953   3.406  12.401  0.00  0.00    +0.000 A 
ATOM     21  C   UNL     1       7.040   4.089  11.863  0.00  0.00    +0.000 A 
ATOM     22  C   UNL     1       7.747   5.008  12.635  0.00  0.00    +0.000 A 
ATOM     23  C   UNL     1       7.371   5.241  13.959  0.00  0.00    +0.000 A 
ENDBRANCH  17  18
ENDBRANCH  16  17
ENDBRANCH  15  16
ENDBRANCH  14  15
ENDBRANCH   3  14
TORSDOF 8
ENDMDL
MODEL 6
REMARK VINA RESULT:      -6.6      1.217      1.304
REMARK  Name = 
REMARK  8 active torsions:
REMARK  status: ('A' for Active; 'I' for Inactive)
REMARK    1  A    between atoms: O_1  and  C_2
REMARK    2  A    between atoms: C_3  and  O_4
REMARK    3  A    between atoms: C_5  and  C_6
REMARK    4  A    between atoms: C_6  and  C_7
REMARK    5  A    between atoms: C_7  and  S_8
REMARK    6  A    between atoms: S_8  and  C_9
REMARK    7  A    between atoms: C_9  and  C_10
REMARK    8  A    between atoms: C_18  and  O_19
REMARK                            x       y       z     vdW  Elec       q    Type
REMARK                         _______ _______ _______ _____ _____    ______ ____
ROOT
ATOM      1  C   UNL     1       2.818   2.455  18.746  0.00  0.00    +0.000 C 
ATOM      2  C   UNL     1       3.881   3.101  19.649  0.00  0.00    +0.000 C 
ATOM      3  C   UNL     1       3.575   4.599  19.851  0.00  0.00    +0.000 C 
ATOM      4  N   UNL     1       2.270   4.731  20.531  0.00  0.00    +0.000 NA
ATOM      5  C   UNL     1       1.166   4.121  19.780  0.00  0.00    +0.000 C 
ATOM      6  C   UNL     1       1.415   2.661  19.355  0.00  0.00    +0.000 C 
ATOM      7  H   UNL     1       2.056   5.716  20.705  0.00  0.00    +0.000 HD
ENDROOT
BRANCH   1   8
ATOM      8  O   UNL     1       3.085   1.056  18.576  0.00  0.00    +0.000 OA
ATOM      9  H   UNL     1       3.968   0.958  18.174  0.00  0.00    +0.000 HD
ENDBRANCH   1   8
BRANCH   2  10
ATOM     10  O   UNL     1       5.203   2.884  19.152  0.00  0.00    +0.000 OA
ATOM     11  H   UNL     1       5.168   2.301  18.377  0.00  0.00    +0.000 HD
ENDBRANCH   2  10
BRANCH   6  12
ATOM     12  O   UNL     1       0.388   2.276  18.429  0.00  0.00    +0.000 OA
ATOM     13  H   UNL     1      -0.264   2.995  18.379  0.00  0.00    +0.000 HD
ENDBRANCH   6  12
BRANCH   3  14
ATOM     14  C   UNL     1       3.568   5.469  18.573  0.00  0.00    +0.000 C 
BRANCH  14  15
ATOM     15  C   UNL     1       4.921   5.991  18.110  0.00  0.00    +0.000 C 
BRANCH  15  16
ATOM     16  S   UNL     1       4.974   6.141  16.295  0.00  0.00    +0.000 S 
BRANCH  16  17
ATOM     17  C   UNL     1       5.257   4.399  15.839  0.00  0.00    +0.000 C 
BRANCH  17  18
ATOM     18  C   UNL     1       5.965   4.316  14.515  0.00  0.00    +0.000 A 
ATOM     19  C   UNL     1       7.120   5.080  14.285  0.00  0.00    +0.000 A 
ATOM     20  C   UNL     1       7.740   5.059  13.039  0.00  0.00    +0.000 A 
ATOM     21  C   UNL     1       7.211   4.275  12.017  0.00  0.00    +0.000 A 
ATOM     22  C   UNL     1       6.070   3.508  12.236  0.00  0.00    +0.000 A 
ATOM     23  C   UNL     1       5.446   3.528  13.484  0.00  0.00    +0.000 A 
ENDBRANCH  17  18
ENDBRANCH  16  17
ENDBRANCH  15  16
ENDBRANCH  14  15
ENDBRANCH   3  14
TORSDOF 8
ENDMDL
MODEL 7
REMARK VINA RESULT:      -6.5      1.193      1.675
REMARK  Name = 
REMARK  8 active torsions:
REMARK  status: ('A' for Active; 'I' for Inactive)
REMARK    1  A    between atoms: O_1  and  C_2
REMARK    2  A    between atoms: C_3  and  O_4
REMARK    3  A    between atoms: C_5  and  C_6
REMARK    4  A    between atoms: C_6  and  C_7
REMARK    5  A    between atoms: C_7  and  S_8
REMARK    6  A    between atoms: S_8  and  C_9
REMARK    7  A    between atoms: C_9  and  C_10
REMARK    8  A    between atoms: C_18  and  O_19
REMARK                            x       y       z     vdW  Elec       q    Type
REMARK                         _______ _______ _______ _____ _____    ______ ____
ROOT
ATOM      1  C   UNL     1       3.319   2.316  18.594  0.00  0.00    +0.000 C 
ATOM      2  C   UNL     1       4.214   3.233  19.442  0.00  0.00    +0.000 C 
ATOM      3  C   UNL     1       3.690   4.684  19.399  0.00  0.00    +0.000 C 
ATOM      4  N   UNL     1       2.333   4.717  19.982  0.00  0.00    +0.000 NA
ATOM      5  C   UNL     1       1.383   3.850  19.276  0.00  0.00    +0.000 C 
ATOM      6  C   UNL     1       1.861   2.397  19.091  0.00  0.00    +0.000 C 
ATOM      7  H   UNL     1       1.973   5.674  19.994  0.00  0.00    +0.000 HD
ENDROOT
BRANCH   1   8
ATOM      8  O   UNL     1       3.789   0.962  18.652  0.00  0.00    +0.000 OA
ATOM      9  H   UNL     1       4.481   0.847  17.975  0.00  0.00    +0.000 HD
ENDBRANCH   1   8
BRANCH   2  10
ATOM     10  O   UNL     1       5.586   3.146  19.053  0.00  0.00    +0.000 OA
ATOM     11  H   UNL     1       5.894   4.013  18.745  0.00  0.00    +0.000 HD
ENDBRANCH   2  10
BRANCH   6  12
ATOM     12  O   UNL     1       0.968   1.737  18.183  0.00  0.00    +0.000 OA
ATOM     13  H   UNL     1       0.107   1.631  18.622  0.00  0.00    +0.000 HD
ENDBRANCH   6  12
BRANCH   3  14
ATOM     14  C   UNL     1       3.656   5.352  18.005  0.00  0.00    +0.000 C 
BRANCH  14  15
ATOM     15  C   UNL     1       4.791   6.318  17.697  0.00  0.00    +0.000 C 
BRANCH  15  16
ATOM     16  S   UNL     1       6.169   5.461  16.868  0.00  0.00    +0.000 S 
BRANCH  16  17
ATOM     17  C   UNL     1       5.238   4.420  15.696  0.00  0.00    +0.000 C 
BRANCH  17  18
ATOM     18  C   UNL     1       5.936   4.383  14.365  0.00  0.00    +0.000 A 
ATOM     19  C   UNL     1       5.524   3.473  13.379  0.00  0.00    +0.000 A 
ATOM     20  C   UNL     1       6.210   3.387  12.170  0.00  0.00    +0.000 A 
ATOM     21  C   UNL     1       7.310   4.210  11.940  0.00  0.00    +0.000 A 
ATOM     22  C   UNL     1       7.722   5.122  12.909  0.00  0.00    +0.000 A 
ATOM     23  C   UNL     1       7.037   5.208  14.121  0.00  0.00    +0.000 A 
ENDBRANCH  17  18
ENDBRANCH  16  17
ENDBRANCH  15  16
ENDBRANCH  14  15
ENDBRANCH   3  14
TORSDOF 8
ENDMDL
MODEL 8
REMARK VINA RESULT:      -6.5      1.736      2.602
REMARK  Name = 
REMARK  8 active torsions:
REMARK  status: ('A' for Active; 'I' for Inactive)
REMARK    1  A    between atoms: O_1  and  C_2
REMARK    2  A    between atoms: C_3  and  O_4
REMARK    3  A    between atoms: C_5  and  C_6
REMARK    4  A    between atoms: C_6  and  C_7
REMARK    5  A    between atoms: C_7  and  S_8
REMARK    6  A    between atoms: S_8  and  C_9
REMARK    7  A    between atoms: C_9  and  C_10
REMARK    8  A    between atoms: C_18  and  O_19
REMARK                            x       y       z     vdW  Elec       q    Type
REMARK                         _______ _______ _______ _____ _____    ______ ____
ROOT
ATOM      1  C   UNL     1       1.754   3.267  19.748  0.00  0.00    +0.000 C 
ATOM      2  C   UNL     1       1.994   3.026  18.250  0.00  0.00    +0.000 C 
ATOM      3  C   UNL     1       3.466   3.314  17.889  0.00  0.00    +0.000 C 
ATOM      4  N   UNL     1       4.331   2.378  18.638  0.00  0.00    +0.000 NA
ATOM      5  C   UNL     1       4.170   2.487  20.093  0.00  0.00    +0.000 C 
ATOM      6  C   UNL     1       2.713   2.393  20.582  0.00  0.00    +0.000 C 
ATOM      7  H   UNL     1       5.313   2.527  18.395  0.00  0.00    +0.000 HD
ENDROOT
BRANCH   1   8
ATOM      8  O   UNL     1       0.391   2.976  20.092  0.00  0.00    +0.000 OA
ATOM      9  H   UNL     1       0.232   3.282  21.003  0.00  0.00    +0.000 HD
ENDBRANCH   1   8
BRANCH   2  10
ATOM     10  O   UNL     1       1.086   3.773  17.438  0.00  0.00    +0.000 OA
ATOM     11  H   UNL     1       0.190   3.413  17.535  0.00  0.00    +0.000 HD
ENDBRANCH   2  10
BRANCH   6  12
ATOM     12  O   UNL     1       2.674   2.761  21.969  0.00  0.00    +0.000 OA
ATOM     13  H   UNL     1       1.773   2.612  22.300  0.00  0.00    +0.000 HD
ENDBRANCH   6  12
BRANCH   3  14
ATOM     14  C   UNL     1       3.955   4.759  18.136  0.00  0.00    +0.000 C 
BRANCH  14  15
ATOM     15  C   UNL     1       5.425   5.028  17.840  0.00  0.00    +0.000 C 
BRANCH  15  16
ATOM     16  S   UNL     1       5.607   6.161  16.425  0.00  0.00    +0.000 S 
BRANCH  16  17
ATOM     17  C   UNL     1       7.110   5.473  15.656  0.00  0.00    +0.000 C 
BRANCH  17  18
ATOM     18  C   UNL     1       6.765   4.779  14.368  0.00  0.00    +0.000 A 
ATOM     19  C   UNL     1       7.630   4.869  13.266  0.00  0.00    +0.000 A 
ATOM     20  C   UNL     1       7.282   4.286  12.050  0.00  0.00    +0.000 A 
ATOM     21  C   UNL     1       6.071   3.610  11.929  0.00  0.00    +0.000 A 
ATOM     22  C   UNL     1       5.209   3.508  13.019  0.00  0.00    +0.000 A 
ATOM     23  C   UNL     1       5.555   4.092  14.238  0.00  0.00    +0.000 A 
ENDBRANCH  17  18
ENDBRANCH  16  17
ENDBRANCH  15  16
ENDBRANCH  14  15
ENDBRANCH   3  14
TORSDOF 8
ENDMDL
MODEL 9
REMARK VINA RESULT:      -6.5      2.233      3.742
REMARK  Name = 
REMARK  8 active torsions:
REMARK  status: ('A' for Active; 'I' for Inactive)
REMARK    1  A    between atoms: O_1  and  C_2
REMARK    2  A    between atoms: C_3  and  O_4
REMARK    3  A    between atoms: C_5  and  C_6
REMARK    4  A    between atoms: C_6  and  C_7
REMARK    5  A    between atoms: C_7  and  S_8
REMARK    6  A    between atoms: S_8  and  C_9
REMARK    7  A    between atoms: C_9  and  C_10
REMARK    8  A    between atoms: C_18  and  O_19
REMARK                            x       y       z     vdW  Elec       q    Type
REMARK                         _______ _______ _______ _____ _____    ______ ____
ROOT
ATOM      1  C   UNL     1       2.863   2.814  20.468  0.00  0.00    +0.000 C 
ATOM      2  C   UNL     1       1.424   2.611  19.969  0.00  0.00    +0.000 C 
ATOM      3  C   UNL     1       1.362   2.759  18.435  0.00  0.00    +0.000 C 
ATOM      4  N   UNL     1       2.202   1.709  17.821  0.00  0.00    +0.000 NA
ATOM      5  C   UNL     1       3.605   1.774  18.246  0.00  0.00    +0.000 C 
ATOM      6  C   UNL     1       3.808   1.811  19.772  0.00  0.00    +0.000 C 
ATOM      7  H   UNL     1       2.155   1.766  16.801  0.00  0.00    +0.000 HD
ENDROOT
BRANCH   1   8
ATOM      8  O   UNL     1       2.929   2.651  21.892  0.00  0.00    +0.000 OA
ATOM      9  H   UNL     1       2.799   1.708  22.100  0.00  0.00    +0.000 HD
ENDBRANCH   1   8
BRANCH   2  10
ATOM     10  O   UNL     1       0.504   3.481  20.631  0.00  0.00    +0.000 OA
ATOM     11  H   UNL     1      -0.350   3.032  20.736  0.00  0.00    +0.000 HD
ENDBRANCH   2  10
BRANCH   6  12
ATOM     12  O   UNL     1       5.182   2.124  20.041  0.00  0.00    +0.000 OA
ATOM     13  H   UNL     1       5.740   1.543  19.497  0.00  0.00    +0.000 HD
ENDBRANCH   6  12
BRANCH   3  14
ATOM     14  C   UNL     1       1.782   4.135  17.868  0.00  0.00    +0.000 C 
BRANCH  14  15
ATOM     15  C   UNL     1       2.141   5.201  18.895  0.00  0.00    +0.000 C 
BRANCH  15  16
ATOM     16  S   UNL     1       3.435   6.312  18.254  0.00  0.00    +0.000 S 
BRANCH  16  17
ATOM     17  C   UNL     1       4.889   5.220  18.389  0.00  0.00    +0.000 C 
BRANCH  17  18
ATOM     18  C   UNL     1       5.526   5.032  17.040  0.00  0.00    +0.000 A 
ATOM     19  C   UNL     1       4.831   4.364  16.020  0.00  0.00    +0.000 A 
ATOM     20  C   UNL     1       5.443   4.126  14.791  0.00  0.00    +0.000 A 
ATOM     21  C   UNL     1       6.749   4.556  14.576  0.00  0.00    +0.000 A 
ATOM     22  C   UNL     1       7.445   5.227  15.578  0.00  0.00    +0.000 A 
ATOM     23  C   UNL     1       6.835   5.464  16.811  0.00  0.00    +0.000 A 
ENDBRANCH  17  18
ENDBRANCH  16  17
ENDBRANCH  15  16
ENDBRANCH  14  15
ENDBRANCH   3  14
TORSDOF 8
ENDMDL
