MODEL 1
REMARK VINA RESULT:      -6.2      0.000      0.000
REMARK  Name = 
REMARK  14 active torsions:
REMARK  status: ('A' for Active; 'I' for Inactive)
REMARK    1  A    between atoms: C_1  and  C_2
REMARK    2  A    between atoms: C_2  and  C_3
REMARK    3  A    between atoms: C_3  and  C_4
REMARK    4  A    between atoms: C_4  and  C_5
REMARK    5  A    between atoms: C_5  and  C_6
REMARK    6  A    between atoms: C_6  and  C_7
REMARK    7  A    between atoms: C_7  and  C_8
REMARK    8  A    between atoms: C_8  and  C_9
REMARK    9  A    between atoms: C_9  and  C_10
REMARK   10  A    between atoms: C_10  and  N_11
REMARK   11  A    between atoms: C_12  and  C_14
REMARK   12  A    between atoms: C_14  and  C_15
REMARK   13  A    between atoms: C_15  and  C_16
REMARK   14  A    between atoms: C_16  and  C_17
REMARK                            x       y       z     vdW  Elec       q    Type
REMARK                         _______ _______ _______ _____ _____    ______ ____
ROOT
ATOM      1  N   UNL     1       7.175   7.715  16.973  0.00  0.00    +0.000 N 
ATOM      2  C   UNL     1       8.017   8.127  17.986  0.00  0.00    +0.000 C 
ATOM      3  O   UNL     1       8.481   7.369  18.822  0.00  0.00    +0.000 OA
ATOM      4  H   UNL     1       6.847   8.367  16.270  0.00  0.00    +0.000 HD
ENDROOT
BRANCH   1   5
ATOM      5  C   UNL     1       6.809   6.322  16.887  0.00  0.00    +0.000 C 
BRANCH   5   6
ATOM      6  C   UNL     1       5.482   6.038  17.578  0.00  0.00    +0.000 C 
BRANCH   6   7
ATOM      7  C   UNL     1       4.844   4.780  16.991  0.00  0.00    +0.000 C 
BRANCH   7   8
ATOM      8  C   UNL     1       4.697   3.693  18.049  0.00  0.00    +0.000 C 
BRANCH   8   9
ATOM      9  C   UNL     1       3.505   2.790  17.744  0.00  0.00    +0.000 C 
BRANCH   9  10
ATOM     10  C   UNL     1       2.264   3.624  17.437  0.00  0.00    +0.000 C 
BRANCH  10  11
ATOM     11  C   UNL     1       1.152   3.341  18.443  0.00  0.00    +0.000 C 
BRANCH  11  12
ATOM     12  C   UNL     1       1.398   4.095  19.747  0.00  0.00    +0.000 C 
BRANCH  12  14
ATOM     13  C   UNL     1       2.455   2.747  21.581  0.00  0.00    +0.000 C 
ATOM     14  C   UNL     1       1.147   3.200  20.958  0.00  0.00    +0.000 C 
ENDBRANCH  12  14
ENDBRANCH  11  12
ENDBRANCH  10  11
ENDBRANCH   9  10
ENDBRANCH   8   9
ENDBRANCH   7   8
ENDBRANCH   6   7
ENDBRANCH   5   6
ENDBRANCH   1   5
BRANCH   2  15
ATOM     15  C   UNL     1       8.356   9.606  17.943  0.00  0.00    +0.000 C 
BRANCH  15  16
ATOM     16  C   UNL     1       9.091  10.057  19.204  0.00  0.00    +0.000 C 
BRANCH  16  17
ATOM     17  C   UNL     1      10.130  11.143  18.931  0.00  0.00    +0.000 C 
BRANCH  17  18
ATOM     18  C   UNL     1       9.549  12.515  18.940  0.00  0.00    +0.000 A 
ATOM     19  C   UNL     1       9.330  13.349  20.015  0.00  0.00    +0.000 A 
ATOM     20  N   UNL     1       8.796  14.489  19.475  0.00  0.00    +0.000 N 
ATOM     21  C   UNL     1       8.699  14.314  18.121  0.00  0.00    +0.000 A 
ATOM     22  N   UNL     1       8.204  15.294  17.350  0.00  0.00    +0.000 N 
ATOM     23  N   UNL     1       9.143  13.133  17.772  0.00  0.00    +0.000 NA
ATOM     24  H   UNL     1       8.519  15.319  19.972  0.00  0.00    +0.000 HD
ATOM     25  H   UNL     1       7.884  16.190  17.689  0.00  0.00    +0.000 HD
ATOM     26  H   UNL     1       8.158  15.168  16.345  0.00  0.00    +0.000 HD
ENDBRANCH  17  18
ENDBRANCH  16  17
ENDBRANCH  15  16
ENDBRANCH   2  15
TORSDOF 13
ENDMDL
MODEL 2
REMARK VINA RESULT:      -6.2      1.182      1.512
REMARK  Name = 
REMARK  14 active torsions:
REMARK  status: ('A' for Active; 'I' for Inactive)
REMARK    1  A    between atoms: C_1  and  C_2
REMARK    2  A    between atoms: C_2  and  C_3
REMARK    3  A    between atoms: C_3  and  C_4
REMARK    4  A    between atoms: C_4  and  C_5
REMARK    5  A    between atoms: C_5  and  C_6
REMARK    6  A    between atoms: C_6  and  C_7
REMARK    7  A    between atoms: C_7  and  C_8
REMARK    8  A    between atoms: C_8  and  C_9
REMARK    9  A    between atoms: C_9  and  C_10
REMARK   10  A    between atoms: C_10  and  N_11
REMARK   11  A    between atoms: C_12  and  C_14
REMARK   12  A    between atoms: C_14  and  C_15
REMARK   13  A    between atoms: C_15  and  C_16
REMARK   14  A    between atoms: C_16  and  C_17
REMARK                            x       y       z     vdW  Elec       q    Type
REMARK                         _______ _______ _______ _____ _____    ______ ____
ROOT
ATOM      1  N   UNL     1       7.131   7.338  16.817  0.00  0.00    +0.000 N 
ATOM      2  C   UNL     1       7.871   7.910  17.831  0.00  0.00    +0.000 C 
ATOM      3  O   UNL     1       8.357   7.271  18.750  0.00  0.00    +0.000 OA
ATOM      4  H   UNL     1       6.782   7.896  16.047  0.00  0.00    +0.000 HD
ENDROOT
BRANCH   1   5
ATOM      5  C   UNL     1       6.907   5.912  16.830  0.00  0.00    +0.000 C 
BRANCH   5   6
ATOM      6  C   UNL     1       5.719   5.514  15.965  0.00  0.00    +0.000 C 
BRANCH   6   7
ATOM      7  C   UNL     1       4.533   5.127  16.848  0.00  0.00    +0.000 C 
BRANCH   7   8
ATOM      8  C   UNL     1       3.939   6.350  17.536  0.00  0.00    +0.000 C 
BRANCH   8   9
ATOM      9  C   UNL     1       2.492   6.096  17.949  0.00  0.00    +0.000 C 
BRANCH   9  10
ATOM     10  C   UNL     1       2.395   4.853  18.830  0.00  0.00    +0.000 C 
BRANCH  10  11
ATOM     11  C   UNL     1       1.434   3.831  18.231  0.00  0.00    +0.000 C 
BRANCH  11  12
ATOM     12  C   UNL     1       0.929   2.870  19.304  0.00  0.00    +0.000 C 
BRANCH  12  14
ATOM     13  C   UNL     1       1.705   2.557  21.670  0.00  0.00    +0.000 C 
ATOM     14  C   UNL     1       1.022   3.497  20.693  0.00  0.00    +0.000 C 
ENDBRANCH  12  14
ENDBRANCH  11  12
ENDBRANCH  10  11
ENDBRANCH   9  10
ENDBRANCH   8   9
ENDBRANCH   7   8
ENDBRANCH   6   7
ENDBRANCH   5   6
ENDBRANCH   1   5
BRANCH   2  15
ATOM     15  C   UNL     1       8.067   9.408  17.681  0.00  0.00    +0.000 C 
BRANCH  15  16
ATOM     16  C   UNL     1       8.943   9.980  18.794  0.00  0.00    +0.000 C 
BRANCH  16  17
ATOM     17  C   UNL     1      10.056  10.885  18.269  0.00  0.00    +0.000 C 
BRANCH  17  18
ATOM     18  C   UNL     1       9.605  12.288  18.047  0.00  0.00    +0.000 A 
ATOM     19  C   UNL     1       8.386  12.737  17.587  0.00  0.00    +0.000 A 
ATOM     20  N   UNL     1       8.491  14.103  17.584  0.00  0.00    +0.000 N 
ATOM     21  C   UNL     1       9.744  14.435  18.022  0.00  0.00    +0.000 A 
ATOM     22  N   UNL     1      10.104  15.724  18.115  0.00  0.00    +0.000 N 
ATOM     23  N   UNL     1      10.437  13.361  18.306  0.00  0.00    +0.000 NA
ATOM     24  H   UNL     1       7.780  14.761  17.311  0.00  0.00    +0.000 HD
ATOM     25  H   UNL     1       9.510  16.508  17.884  0.00  0.00    +0.000 HD
ATOM     26  H   UNL     1      11.025  15.965  18.464  0.00  0.00    +0.000 HD
ENDBRANCH  17  18
ENDBRANCH  16  17
ENDBRANCH  15  16
ENDBRANCH   2  15
TORSDOF 13
ENDMDL
MODEL 3
REMARK VINA RESULT:      -6.2      5.485      7.753
REMARK  Name = 
REMARK  14 active torsions:
REMARK  status: ('A' for Active; 'I' for Inactive)
REMARK    1  A    between atoms: C_1  and  C_2
REMARK    2  A    between atoms: C_2  and  C_3
REMARK    3  A    between atoms: C_3  and  C_4
REMARK    4  A    between atoms: C_4  and  C_5
REMARK    5  A    between atoms: C_5  and  C_6
REMARK    6  A    between atoms: C_6  and  C_7
REMARK    7  A    between atoms: C_7  and  C_8
REMARK    8  A    between atoms: C_8  and  C_9
REMARK    9  A    between atoms: C_9  and  C_10
REMARK   10  A    between atoms: C_10  and  N_11
REMARK   11  A    between atoms: C_12  and  C_14
REMARK   12  A    between atoms: C_14  and  C_15
REMARK   13  A    between atoms: C_15  and  C_16
REMARK   14  A    between atoms: C_16  and  C_17
REMARK                            x       y       z     vdW  Elec       q    Type
REMARK                         _______ _______ _______ _____ _____    ______ ____
ROOT
ATOM      1  N   UNL     1       2.267   4.168  19.392  0.00  0.00    +0.000 N 
ATOM      2  C   UNL     1       1.859   3.620  18.193  0.00  0.00    +0.000 C 
ATOM      3  O   UNL     1       1.069   4.166  17.441  0.00  0.00    +0.000 OA
ATOM      4  H   UNL     1       2.959   3.705  19.968  0.00  0.00    +0.000 HD
ENDROOT
BRANCH   1   5
ATOM      5  C   UNL     1       1.736   5.447  19.796  0.00  0.00    +0.000 C 
BRANCH   5   6
ATOM      6  C   UNL     1       2.734   6.575  19.571  0.00  0.00    +0.000 C 
BRANCH   6   7
ATOM      7  C   UNL     1       2.708   7.017  18.109  0.00  0.00    +0.000 C 
BRANCH   7   8
ATOM      8  C   UNL     1       2.698   8.537  17.994  0.00  0.00    +0.000 C 
BRANCH   8   9
ATOM      9  C   UNL     1       1.288   9.055  17.722  0.00  0.00    +0.000 C 
BRANCH   9  10
ATOM     10  C   UNL     1       0.990  10.279  18.585  0.00  0.00    +0.000 C 
BRANCH  10  11
ATOM     11  C   UNL     1      -0.403  10.188  19.201  0.00  0.00    +0.000 C 
BRANCH  11  12
ATOM     12  C   UNL     1      -0.321  10.200  20.725  0.00  0.00    +0.000 C 
BRANCH  12  14
ATOM     13  C   UNL     1       1.340   9.021  22.193  0.00  0.00    +0.000 C 
ATOM     14  C   UNL     1       0.152   8.851  21.262  0.00  0.00    +0.000 C 
ENDBRANCH  12  14
ENDBRANCH  11  12
ENDBRANCH  10  11
ENDBRANCH   9  10
ENDBRANCH   8   9
ENDBRANCH   7   8
ENDBRANCH   6   7
ENDBRANCH   5   6
ENDBRANCH   1   5
BRANCH   2  15
ATOM     15  C   UNL     1       2.518   2.293  17.866  0.00  0.00    +0.000 C 
BRANCH  15  16
ATOM     16  C   UNL     1       4.022   2.446  17.642  0.00  0.00    +0.000 C 
BRANCH  16  17
ATOM     17  C   UNL     1       4.391   3.763  16.961  0.00  0.00    +0.000 C 
BRANCH  17  18
ATOM     18  C   UNL     1       5.712   4.293  17.402  0.00  0.00    +0.000 A 
ATOM     19  C   UNL     1       6.839   4.529  16.645  0.00  0.00    +0.000 A 
ATOM     20  N   UNL     1       7.761   5.025  17.530  0.00  0.00    +0.000 N 
ATOM     21  C   UNL     1       7.183   5.064  18.769  0.00  0.00    +0.000 A 
ATOM     22  N   UNL     1       7.881   5.517  19.822  0.00  0.00    +0.000 N 
ATOM     23  N   UNL     1       5.950   4.627  18.722  0.00  0.00    +0.000 NA
ATOM     24  H   UNL     1       8.701   5.315  17.320  0.00  0.00    +0.000 HD
ATOM     25  H   UNL     1       8.834   5.849  19.783  0.00  0.00    +0.000 HD
ATOM     26  H   UNL     1       7.439   5.568  20.734  0.00  0.00    +0.000 HD
ENDBRANCH  17  18
ENDBRANCH  16  17
ENDBRANCH  15  16
ENDBRANCH   2  15
TORSDOF 13
ENDMDL
MODEL 4
REMARK VINA RESULT:      -6.1      4.117      9.943
REMARK  Name = 
REMARK  14 active torsions:
REMARK  status: ('A' for Active; 'I' for Inactive)
REMARK    1  A    between atoms: C_1  and  C_2
REMARK    2  A    between atoms: C_2  and  C_3
REMARK    3  A    between atoms: C_3  and  C_4
REMARK    4  A    between atoms: C_4  and  C_5
REMARK    5  A    between atoms: C_5  and  C_6
REMARK    6  A    between atoms: C_6  and  C_7
REMARK    7  A    between atoms: C_7  and  C_8
REMARK    8  A    between atoms: C_8  and  C_9
REMARK    9  A    between atoms: C_9  and  C_10
REMARK   10  A    between atoms: C_10  and  N_11
REMARK   11  A    between atoms: C_12  and  C_14
REMARK   12  A    between atoms: C_14  and  C_15
REMARK   13  A    between atoms: C_15  and  C_16
REMARK   14  A    between atoms: C_16  and  C_17
REMARK                            x       y       z     vdW  Elec       q    Type
REMARK                         _______ _______ _______ _____ _____    ______ ____
ROOT
ATOM      1  N   UNL     1       4.912   5.137  17.548  0.00  0.00    +0.000 N 
ATOM      2  C   UNL     1       4.086   5.603  18.550  0.00  0.00    +0.000 C 
ATOM      3  O   UNL     1       4.455   5.767  19.701  0.00  0.00    +0.000 OA
ATOM      4  H   UNL     1       4.581   5.057  16.594  0.00  0.00    +0.000 HD
ENDROOT
BRANCH   1   5
ATOM      5  C   UNL     1       6.283   4.817  17.861  0.00  0.00    +0.000 C 
BRANCH   5   6
ATOM      6  C   UNL     1       7.258   5.806  17.235  0.00  0.00    +0.000 C 
BRANCH   6   7
ATOM      7  C   UNL     1       7.615   6.899  18.240  0.00  0.00    +0.000 C 
BRANCH   7   8
ATOM      8  C   UNL     1       7.677   8.265  17.567  0.00  0.00    +0.000 C 
BRANCH   8   9
ATOM      9  C   UNL     1       8.574   9.220  18.351  0.00  0.00    +0.000 C 
BRANCH   9  10
ATOM     10  C   UNL     1       8.531  10.619  17.741  0.00  0.00    +0.000 C 
BRANCH  10  11
ATOM     11  C   UNL     1       9.317  11.611  18.593  0.00  0.00    +0.000 C 
BRANCH  11  12
ATOM     12  C   UNL     1       9.617  11.023  19.969  0.00  0.00    +0.000 C 
BRANCH  12  14
ATOM     13  C   UNL     1      10.631  13.271  20.433  0.00  0.00    +0.000 C 
ATOM     14  C   UNL     1      10.756  11.774  20.654  0.00  0.00    +0.000 C 
ENDBRANCH  12  14
ENDBRANCH  11  12
ENDBRANCH  10  11
ENDBRANCH   9  10
ENDBRANCH   8   9
ENDBRANCH   7   8
ENDBRANCH   6   7
ENDBRANCH   5   6
ENDBRANCH   1   5
BRANCH   2  15
ATOM     15  C   UNL     1       2.681   5.940  18.084  0.00  0.00    +0.000 C 
BRANCH  15  16
ATOM     16  C   UNL     1       1.877   4.684  17.753  0.00  0.00    +0.000 C 
BRANCH  16  17
ATOM     17  C   UNL     1       1.717   3.747  18.949  0.00  0.00    +0.000 C 
BRANCH  17  18
ATOM     18  C   UNL     1       2.799   2.726  19.035  0.00  0.00    +0.000 A 
ATOM     19  C   UNL     1       3.184   1.800  18.089  0.00  0.00    +0.000 A 
ATOM     20  N   UNL     1       4.227   1.122  18.663  0.00  0.00    +0.000 N 
ATOM     21  C   UNL     1       4.433   1.637  19.914  0.00  0.00    +0.000 A 
ATOM     22  N   UNL     1       5.409   1.144  20.691  0.00  0.00    +0.000 N 
ATOM     23  N   UNL     1       3.585   2.603  20.164  0.00  0.00    +0.000 NA
ATOM     24  H   UNL     1       4.759   0.375  18.250  0.00  0.00    +0.000 HD
ATOM     25  H   UNL     1       6.036   0.397  20.428  0.00  0.00    +0.000 HD
ATOM     26  H   UNL     1       5.574   1.547  21.607  0.00  0.00    +0.000 HD
ENDBRANCH  17  18
ENDBRANCH  16  17
ENDBRANCH  15  16
ENDBRANCH   2  15
TORSDOF 13
ENDMDL
MODEL 5
REMARK VINA RESULT:      -6.1      1.994      2.652
REMARK  Name = 
REMARK  14 active torsions:
REMARK  status: ('A' for Active; 'I' for Inactive)
REMARK    1  A    between atoms: C_1  and  C_2
REMARK    2  A    between atoms: C_2  and  C_3
REMARK    3  A    between atoms: C_3  and  C_4
REMARK    4  A    between atoms: C_4  and  C_5
REMARK    5  A    between atoms: C_5  and  C_6
REMARK    6  A    between atoms: C_6  and  C_7
REMARK    7  A    between atoms: C_7  and  C_8
REMARK    8  A    between atoms: C_8  and  C_9
REMARK    9  A    between atoms: C_9  and  C_10
REMARK   10  A    between atoms: C_10  and  N_11
REMARK   11  A    between atoms: C_12  and  C_14
REMARK   12  A    between atoms: C_14  and  C_15
REMARK   13  A    between atoms: C_15  and  C_16
REMARK   14  A    between atoms: C_16  and  C_17
REMARK                            x       y       z     vdW  Elec       q    Type
REMARK                         _______ _______ _______ _____ _____    ______ ____
ROOT
ATOM      1  N   UNL     1       5.773   6.649  17.626  0.00  0.00    +0.000 N 
ATOM      2  C   UNL     1       7.103   6.714  17.263  0.00  0.00    +0.000 C 
ATOM      3  O   UNL     1       7.550   6.187  16.258  0.00  0.00    +0.000 OA
ATOM      4  H   UNL     1       5.431   7.137  18.445  0.00  0.00    +0.000 HD
ENDROOT
BRANCH   1   5
ATOM      5  C   UNL     1       4.852   5.919  16.788  0.00  0.00    +0.000 C 
BRANCH   5   6
ATOM      6  C   UNL     1       4.600   4.511  17.309  0.00  0.00    +0.000 C 
BRANCH   6   7
ATOM      7  C   UNL     1       3.113   4.174  17.212  0.00  0.00    +0.000 C 
BRANCH   7   8
ATOM      8  C   UNL     1       2.875   2.679  17.392  0.00  0.00    +0.000 C 
BRANCH   8   9
ATOM      9  C   UNL     1       2.138   2.396  18.699  0.00  0.00    +0.000 C 
BRANCH   9  10
ATOM     10  C   UNL     1       1.169   3.529  19.025  0.00  0.00    +0.000 C 
BRANCH  10  11
ATOM     11  C   UNL     1       1.058   3.737  20.532  0.00  0.00    +0.000 C 
BRANCH  11  12
ATOM     12  C   UNL     1       2.138   4.694  21.027  0.00  0.00    +0.000 C 
BRANCH  12  14
ATOM     13  C   UNL     1       1.506   7.104  20.722  0.00  0.00    +0.000 C 
ATOM     14  C   UNL     1       2.244   5.921  20.123  0.00  0.00    +0.000 C 
ENDBRANCH  12  14
ENDBRANCH  11  12
ENDBRANCH  10  11
ENDBRANCH   9  10
ENDBRANCH   8   9
ENDBRANCH   7   8
ENDBRANCH   6   7
ENDBRANCH   5   6
ENDBRANCH   1   5
BRANCH   2  15
ATOM     15  C   UNL     1       7.959   7.541  18.205  0.00  0.00    +0.000 C 
BRANCH  15  16
ATOM     16  C   UNL     1       8.249   8.929  17.636  0.00  0.00    +0.000 C 
BRANCH  16  17
ATOM     17  C   UNL     1       8.319  10.010  18.714  0.00  0.00    +0.000 C 
BRANCH  17  18
ATOM     18  C   UNL     1       9.610  10.754  18.705  0.00  0.00    +0.000 A 
ATOM     19  C   UNL     1      10.416  11.090  19.772  0.00  0.00    +0.000 A 
ATOM     20  N   UNL     1      11.479  11.752  19.216  0.00  0.00    +0.000 N 
ATOM     21  C   UNL     1      11.287  11.806  17.863  0.00  0.00    +0.000 A 
ATOM     22  N   UNL     1      12.196  12.405  17.078  0.00  0.00    +0.000 N 
ATOM     23  N   UNL     1      10.168  11.215  17.528  0.00  0.00    +0.000 NA
ATOM     24  H   UNL     1      12.271  12.135  19.704  0.00  0.00    +0.000 HD
ATOM     25  H   UNL     1      13.048  12.838  17.407  0.00  0.00    +0.000 HD
ATOM     26  H   UNL     1      12.061  12.420  16.073  0.00  0.00    +0.000 HD
ENDBRANCH  17  18
ENDBRANCH  16  17
ENDBRANCH  15  16
ENDBRANCH   2  15
TORSDOF 13
ENDMDL
MODEL 6
REMARK VINA RESULT:      -6.1      6.009      7.366
REMARK  Name = 
REMARK  14 active torsions:
REMARK  status: ('A' for Active; 'I' for Inactive)
REMARK    1  A    between atoms: C_1  and  C_2
REMARK    2  A    between atoms: C_2  and  C_3
REMARK    3  A    between atoms: C_3  and  C_4
REMARK    4  A    between atoms: C_4  and  C_5
REMARK    5  A    between atoms: C_5  and  C_6
REMARK    6  A    between atoms: C_6  and  C_7
REMARK    7  A    between atoms: C_7  and  C_8
REMARK    8  A    between atoms: C_8  and  C_9
REMARK    9  A    between atoms: C_9  and  C_10
REMARK   10  A    between atoms: C_10  and  N_11
REMARK   11  A    between atoms: C_12  and  C_14
REMARK   12  A    between atoms: C_14  and  C_15
REMARK   13  A    between atoms: C_15  and  C_16
REMARK   14  A    between atoms: C_16  and  C_17
REMARK                            x       y       z     vdW  Elec       q    Type
REMARK                         _______ _______ _______ _____ _____    ______ ____
ROOT
ATOM      1  N   UNL     1       5.614   3.521  18.568  0.00  0.00    +0.000 N 
ATOM      2  C   UNL     1       6.312   4.686  18.810  0.00  0.00    +0.000 C 
ATOM      3  O   UNL     1       6.126   5.389  19.788  0.00  0.00    +0.000 OA
ATOM      4  H   UNL     1       5.829   2.939  17.767  0.00  0.00    +0.000 HD
ENDROOT
BRANCH   1   5
ATOM      5  C   UNL     1       4.603   3.101  19.509  0.00  0.00    +0.000 C 
BRANCH   5   6
ATOM      6  C   UNL     1       3.729   1.987  18.948  0.00  0.00    +0.000 C 
BRANCH   6   7
ATOM      7  C   UNL     1       2.315   2.506  18.694  0.00  0.00    +0.000 C 
BRANCH   7   8
ATOM      8  C   UNL     1       2.297   3.517  17.554  0.00  0.00    +0.000 C 
BRANCH   8   9
ATOM      9  C   UNL     1       1.539   4.780  17.955  0.00  0.00    +0.000 C 
BRANCH   9  10
ATOM     10  C   UNL     1       2.504   5.945  18.155  0.00  0.00    +0.000 C 
BRANCH  10  11
ATOM     11  C   UNL     1       2.878   6.100  19.626  0.00  0.00    +0.000 C 
BRANCH  11  12
ATOM     12  C   UNL     1       1.674   6.561  20.443  0.00  0.00    +0.000 C 
BRANCH  12  14
ATOM     13  C   UNL     1       0.589   8.554  21.515  0.00  0.00    +0.000 C 
ATOM     14  C   UNL     1       1.563   8.084  20.450  0.00  0.00    +0.000 C 
ENDBRANCH  12  14
ENDBRANCH  11  12
ENDBRANCH  10  11
ENDBRANCH   9  10
ENDBRANCH   8   9
ENDBRANCH   7   8
ENDBRANCH   6   7
ENDBRANCH   5   6
ENDBRANCH   1   5
BRANCH   2  15
ATOM     15  C   UNL     1       7.372   4.995  17.768  0.00  0.00    +0.000 C 
BRANCH  15  16
ATOM     16  C   UNL     1       7.044   4.359  16.418  0.00  0.00    +0.000 C 
BRANCH  16  17
ATOM     17  C   UNL     1       7.010   5.373  15.276  0.00  0.00    +0.000 C 
BRANCH  17  18
ATOM     18  C   UNL     1       6.938   4.732  13.933  0.00  0.00    +0.000 A 
ATOM     19  C   UNL     1       7.609   5.076  12.780  0.00  0.00    +0.000 A 
ATOM     20  N   UNL     1       7.196   4.162  11.845  0.00  0.00    +0.000 N 
ATOM     21  C   UNL     1       6.300   3.318  12.442  0.00  0.00    +0.000 A 
ATOM     22  N   UNL     1       5.742   2.322  11.738  0.00  0.00    +0.000 N 
ATOM     23  N   UNL     1       6.124   3.640  13.700  0.00  0.00    +0.000 NA
ATOM     24  H   UNL     1       7.491   4.108  10.885  0.00  0.00    +0.000 HD
ATOM     25  H   UNL     1       5.931   2.126  10.765  0.00  0.00    +0.000 HD
ATOM     26  H   UNL     1       5.098   1.684  12.192  0.00  0.00    +0.000 HD
ENDBRANCH  17  18
ENDBRANCH  16  17
ENDBRANCH  15  16
ENDBRANCH   2  15
TORSDOF 13
ENDMDL
MODEL 7
REMARK VINA RESULT:      -6.1      5.186      6.794
REMARK  Name = 
REMARK  14 active torsions:
REMARK  status: ('A' for Active; 'I' for Inactive)
REMARK    1  A    between atoms: C_1  and  C_2
REMARK    2  A    between atoms: C_2  and  C_3
REMARK    3  A    between atoms: C_3  and  C_4
REMARK    4  A    between atoms: C_4  and  C_5
REMARK    5  A    between atoms: C_5  and  C_6
REMARK    6  A    between atoms: C_6  and  C_7
REMARK    7  A    between atoms: C_7  and  C_8
REMARK    8  A    between atoms: C_8  and  C_9
REMARK    9  A    between atoms: C_9  and  C_10
REMARK   10  A    between atoms: C_10  and  N_11
REMARK   11  A    between atoms: C_12  and  C_14
REMARK   12  A    between atoms: C_14  and  C_15
REMARK   13  A    between atoms: C_15  and  C_16
REMARK   14  A    between atoms: C_16  and  C_17
REMARK                            x       y       z     vdW  Elec       q    Type
REMARK                         _______ _______ _______ _____ _____    ______ ____
ROOT
ATOM      1  N   UNL     1       5.325   2.899  19.334  0.00  0.00    +0.000 N 
ATOM      2  C   UNL     1       5.516   4.234  19.044  0.00  0.00    +0.000 C 
ATOM      3  O   UNL     1       4.635   5.073  19.134  0.00  0.00    +0.000 OA
ATOM      4  H   UNL     1       6.093   2.240  19.290  0.00  0.00    +0.000 HD
ENDROOT
BRANCH   1   5
ATOM      5  C   UNL     1       4.020   2.454  19.760  0.00  0.00    +0.000 C 
BRANCH   5   6
ATOM      6  C   UNL     1       3.139   2.057  18.583  0.00  0.00    +0.000 C 
BRANCH   6   7
ATOM      7  C   UNL     1       1.668   2.287  18.926  0.00  0.00    +0.000 C 
BRANCH   7   8
ATOM      8  C   UNL     1       1.513   2.830  20.343  0.00  0.00    +0.000 C 
BRANCH   8   9
ATOM      9  C   UNL     1       0.914   4.234  20.328  0.00  0.00    +0.000 C 
BRANCH   9  10
ATOM     10  C   UNL     1       1.897   5.243  20.916  0.00  0.00    +0.000 C 
BRANCH  10  11
ATOM     11  C   UNL     1       1.886   6.544  20.120  0.00  0.00    +0.000 C 
BRANCH  11  12
ATOM     12  C   UNL     1       1.286   7.678  20.947  0.00  0.00    +0.000 C 
BRANCH  12  14
ATOM     13  C   UNL     1       1.751   8.771  18.736  0.00  0.00    +0.000 C 
ATOM     14  C   UNL     1       1.161   8.957  20.123  0.00  0.00    +0.000 C 
ENDBRANCH  12  14
ENDBRANCH  11  12
ENDBRANCH  10  11
ENDBRANCH   9  10
ENDBRANCH   8   9
ENDBRANCH   7   8
ENDBRANCH   6   7
ENDBRANCH   5   6
ENDBRANCH   1   5
BRANCH   2  15
ATOM     15  C   UNL     1       6.939   4.580  18.645  0.00  0.00    +0.000 C 
BRANCH  15  16
ATOM     16  C   UNL     1       7.142   6.088  18.514  0.00  0.00    +0.000 C 
BRANCH  16  17
ATOM     17  C   UNL     1       7.476   6.522  17.088  0.00  0.00    +0.000 C 
BRANCH  17  18
ATOM     18  C   UNL     1       6.709   5.766  16.058  0.00  0.00    +0.000 A 
ATOM     19  C   UNL     1       5.379   5.888  15.715  0.00  0.00    +0.000 A 
ATOM     20  N   UNL     1       5.190   4.976  14.709  0.00  0.00    +0.000 N 
ATOM     21  C   UNL     1       6.378   4.336  14.484  0.00  0.00    +0.000 A 
ATOM     22  N   UNL     1       6.463   3.389  13.538  0.00  0.00    +0.000 N 
ATOM     23  N   UNL     1       7.310   4.791  15.285  0.00  0.00    +0.000 NA
ATOM     24  H   UNL     1       4.333   4.798  14.212  0.00  0.00    +0.000 HD
ATOM     25  H   UNL     1       5.699   3.092  12.948  0.00  0.00    +0.000 HD
ATOM     26  H   UNL     1       7.353   2.936  13.359  0.00  0.00    +0.000 HD
ENDBRANCH  17  18
ENDBRANCH  16  17
ENDBRANCH  15  16
ENDBRANCH   2  15
TORSDOF 13
ENDMDL
MODEL 8
REMARK VINA RESULT:      -6.1      5.232      9.086
REMARK  Name = 
REMARK  14 active torsions:
REMARK  status: ('A' for Active; 'I' for Inactive)
REMARK    1  A    between atoms: C_1  and  C_2
REMARK    2  A    between atoms: C_2  and  C_3
REMARK    3  A    between atoms: C_3  and  C_4
REMARK    4  A    between atoms: C_4  and  C_5
REMARK    5  A    between atoms: C_5  and  C_6
REMARK    6  A    between atoms: C_6  and  C_7
REMARK    7  A    between atoms: C_7  and  C_8
REMARK    8  A    between atoms: C_8  and  C_9
REMARK    9  A    between atoms: C_9  and  C_10
REMARK   10  A    between atoms: C_10  and  N_11
REMARK   11  A    between atoms: C_12  and  C_14
REMARK   12  A    between atoms: C_14  and  C_15
REMARK   13  A    between atoms: C_15  and  C_16
REMARK   14  A    between atoms: C_16  and  C_17
REMARK                            x       y       z     vdW  Elec       q    Type
REMARK                         _______ _______ _______ _____ _____    ______ ____
ROOT
ATOM      1  N   UNL     1       4.366   6.142  17.597  0.00  0.00    +0.000 N 
ATOM      2  C   UNL     1       3.355   6.026  18.528  0.00  0.00    +0.000 C 
ATOM      3  O   UNL     1       3.533   6.136  19.730  0.00  0.00    +0.000 OA
ATOM      4  H   UNL     1       4.171   6.089  16.605  0.00  0.00    +0.000 HD
ENDROOT
BRANCH   1   5
ATOM      5  C   UNL     1       5.711   6.402  18.052  0.00  0.00    +0.000 C 
BRANCH   5   6
ATOM      6  C   UNL     1       6.568   5.143  18.048  0.00  0.00    +0.000 C 
BRANCH   6   7
ATOM      7  C   UNL     1       6.104   4.195  16.943  0.00  0.00    +0.000 C 
BRANCH   7   8
ATOM      8  C   UNL     1       7.044   4.246  15.744  0.00  0.00    +0.000 C 
BRANCH   8   9
ATOM      9  C   UNL     1       6.332   4.803  14.514  0.00  0.00    +0.000 C 
BRANCH   9  10
ATOM     10  C   UNL     1       6.050   3.691  13.508  0.00  0.00    +0.000 C 
BRANCH  10  11
ATOM     11  C   UNL     1       4.925   4.088  12.556  0.00  0.00    +0.000 C 
BRANCH  11  12
ATOM     12  C   UNL     1       4.777   3.061  11.437  0.00  0.00    +0.000 C 
BRANCH  12  14
ATOM     13  C   UNL     1       3.180   3.991   9.738  0.00  0.00    +0.000 C 
ATOM     14  C   UNL     1       3.348   3.030  10.901  0.00  0.00    +0.000 C 
ENDBRANCH  12  14
ENDBRANCH  11  12
ENDBRANCH  10  11
ENDBRANCH   9  10
ENDBRANCH   8   9
ENDBRANCH   7   8
ENDBRANCH   6   7
ENDBRANCH   5   6
ENDBRANCH   1   5
BRANCH   2  15
ATOM     15  C   UNL     1       1.983   5.792  17.922  0.00  0.00    +0.000 C 
BRANCH  15  16
ATOM     16  C   UNL     1       1.777   4.329  17.532  0.00  0.00    +0.000 C 
BRANCH  16  17
ATOM     17  C   UNL     1       1.159   3.497  18.654  0.00  0.00    +0.000 C 
BRANCH  17  18
ATOM     18  C   UNL     1       2.171   2.989  19.624  0.00  0.00    +0.000 A 
ATOM     19  C   UNL     1       2.097   2.946  20.999  0.00  0.00    +0.000 A 
ATOM     20  N   UNL     1       3.278   2.378  21.398  0.00  0.00    +0.000 N 
ATOM     21  C   UNL     1       4.021   2.110  20.281  0.00  0.00    +0.000 A 
ATOM     22  N   UNL     1       5.231   1.543  20.398  0.00  0.00    +0.000 N 
ATOM     23  N   UNL     1       3.378   2.470  19.198  0.00  0.00    +0.000 NA
ATOM     24  H   UNL     1       3.564   2.184  22.343  0.00  0.00    +0.000 HD
ATOM     25  H   UNL     1       5.665   1.282  21.272  0.00  0.00    +0.000 HD
ATOM     26  H   UNL     1       5.766   1.323  19.565  0.00  0.00    +0.000 HD
ENDBRANCH  17  18
ENDBRANCH  16  17
ENDBRANCH  15  16
ENDBRANCH   2  15
TORSDOF 13
ENDMDL
MODEL 9
REMARK VINA RESULT:      -6.1      1.405      2.090
REMARK  Name = 
REMARK  14 active torsions:
REMARK  status: ('A' for Active; 'I' for Inactive)
REMARK    1  A    between atoms: C_1  and  C_2
REMARK    2  A    between atoms: C_2  and  C_3
REMARK    3  A    between atoms: C_3  and  C_4
REMARK    4  A    between atoms: C_4  and  C_5
REMARK    5  A    between atoms: C_5  and  C_6
REMARK    6  A    between atoms: C_6  and  C_7
REMARK    7  A    between atoms: C_7  and  C_8
REMARK    8  A    between atoms: C_8  and  C_9
REMARK    9  A    between atoms: C_9  and  C_10
REMARK   10  A    between atoms: C_10  and  N_11
REMARK   11  A    between atoms: C_12  and  C_14
REMARK   12  A    between atoms: C_14  and  C_15
REMARK   13  A    between atoms: C_15  and  C_16
REMARK   14  A    between atoms: C_16  and  C_17
REMARK                            x       y       z     vdW  Elec       q    Type
REMARK                         _______ _______ _______ _____ _____    ______ ____
ROOT
ATOM      1  N   UNL     1       6.376   6.079  16.042  0.00  0.00    +0.000 N 
ATOM      2  C   UNL     1       7.161   6.354  17.143  0.00  0.00    +0.000 C 
ATOM      3  O   UNL     1       7.946   5.554  17.624  0.00  0.00    +0.000 OA
ATOM      4  H   UNL     1       5.768   6.786  15.645  0.00  0.00    +0.000 HD
ENDROOT
BRANCH   1   5
ATOM      5  C   UNL     1       6.471   4.781  15.420  0.00  0.00    +0.000 C 
BRANCH   5   6
ATOM      6  C   UNL     1       5.416   3.817  15.947  0.00  0.00    +0.000 C 
BRANCH   6   7
ATOM      7  C   UNL     1       4.404   4.567  16.811  0.00  0.00    +0.000 C 
BRANCH   7   8
ATOM      8  C   UNL     1       3.190   3.697  17.115  0.00  0.00    +0.000 C 
BRANCH   8   9
ATOM      9  C   UNL     1       2.046   4.533  17.683  0.00  0.00    +0.000 C 
BRANCH   9  10
ATOM     10  C   UNL     1       2.585   5.622  18.607  0.00  0.00    +0.000 C 
BRANCH  10  11
ATOM     11  C   UNL     1       2.586   5.156  20.060  0.00  0.00    +0.000 C 
BRANCH  11  12
ATOM     12  C   UNL     1       1.191   4.704  20.483  0.00  0.00    +0.000 C 
BRANCH  12  14
ATOM     13  C   UNL     1       2.420   2.798  21.559  0.00  0.00    +0.000 C 
ATOM     14  C   UNL     1       1.168   3.212  20.806  0.00  0.00    +0.000 C 
ENDBRANCH  12  14
ENDBRANCH  11  12
ENDBRANCH  10  11
ENDBRANCH   9  10
ENDBRANCH   8   9
ENDBRANCH   7   8
ENDBRANCH   6   7
ENDBRANCH   5   6
ENDBRANCH   1   5
BRANCH   2  15
ATOM     15  C   UNL     1       6.996   7.764  17.680  0.00  0.00    +0.000 C 
BRANCH  15  16
ATOM     16  C   UNL     1       8.265   8.595  17.493  0.00  0.00    +0.000 C 
BRANCH  16  17
ATOM     17  C   UNL     1       8.692   9.322  18.767  0.00  0.00    +0.000 C 
BRANCH  17  18
ATOM     18  C   UNL     1       9.323  10.644  18.495  0.00  0.00    +0.000 A 
ATOM     19  C   UNL     1      10.608  11.058  18.778  0.00  0.00    +0.000 A 
ATOM     20  N   UNL     1      10.674  12.345  18.311  0.00  0.00    +0.000 N 
ATOM     21  C   UNL     1       9.455  12.670  17.782  0.00  0.00    +0.000 A 
ATOM     22  N   UNL     1       9.255  13.886  17.251  0.00  0.00    +0.000 N 
ATOM     23  N   UNL     1       8.622  11.665  17.881  0.00  0.00    +0.000 NA
ATOM     24  H   UNL     1      11.473  12.956  18.344  0.00  0.00    +0.000 HD
ATOM     25  H   UNL     1       9.952  14.616  17.201  0.00  0.00    +0.000 HD
ATOM     26  H   UNL     1       8.358  14.112  16.837  0.00  0.00    +0.000 HD
ENDBRANCH  17  18
ENDBRANCH  16  17
ENDBRANCH  15  16
ENDBRANCH   2  15
TORSDOF 13
ENDMDL
