MODEL 1
REMARK VINA RESULT:      -6.9      0.000      0.000
REMARK  Name = 
REMARK  5 active torsions:
REMARK  status: ('A' for Active; 'I' for Inactive)
REMARK    1  A    between atoms: C_2  and  C_13
REMARK    2  A    between atoms: N_3  and  C_4
REMARK    3  A    between atoms: C_4  and  C_5
REMARK    4  A    between atoms: C_5  and  C_6
REMARK    5  A    between atoms: C_13  and  C_14
REMARK                            x       y       z     vdW  Elec       q    Type
REMARK                         _______ _______ _______ _____ _____    ______ ____
ROOT
ATOM      1  O   UNL     1       5.336   6.719  15.270  0.00  0.00    +0.000 OA
ATOM      2  C   UNL     1       5.089   6.071  16.284  0.00  0.00    +0.000 C 
ATOM      3  N   UNL     1       4.359   6.510  17.351  0.00  0.00    +0.000 N 
ATOM      4  H   UNL     1       4.108   5.830  18.058  0.00  0.00    +0.000 HD
ENDROOT
BRANCH   2   5
ATOM      5  C   UNL     1       5.575   4.639  16.432  0.00  0.00    +0.000 C 
ATOM      6  C   UNL     1       6.170   3.971  15.203  0.00  0.00    +0.000 C 
ATOM      7  C   UNL     1       7.085   4.407  16.301  0.00  0.00    +0.000 C 
BRANCH   5   8
ATOM      8  C   UNL     1       4.791   3.838  17.464  0.00  0.00    +0.000 A 
ATOM      9  C   UNL     1       5.088   3.954  18.834  0.00  0.00    +0.000 A 
ATOM     10  C   UNL     1       4.720   2.954  19.737  0.00  0.00    +0.000 A 
ATOM     11  C   UNL     1       4.008   1.844  19.293  0.00  0.00    +0.000 A 
ATOM     12  C   UNL     1       3.585   1.778  17.970  0.00  0.00    +0.000 A 
ATOM     13  C   UNL     1       3.954   2.780  17.072  0.00  0.00    +0.000 A 
ENDBRANCH   5   8
ENDBRANCH   2   5
BRANCH   3  14
ATOM     14  C   UNL     1       3.757   7.829  17.419  0.00  0.00    +0.000 C 
BRANCH  14  15
ATOM     15  C   UNL     1       2.299   7.702  17.852  0.00  0.00    +0.000 C 
BRANCH  15  16
ATOM     16  C   UNL     1       2.028   6.476  18.676  0.00  0.00    +0.000 A 
ATOM     17  C   UNL     1       2.283   6.478  20.053  0.00  0.00    +0.000 A 
ATOM     18  C   UNL     1       1.993   5.350  20.824  0.00  0.00    +0.000 A 
ATOM     19  C   UNL     1       1.456   4.217  20.217  0.00  0.00    +0.000 A 
ATOM     20 CL   UNL     1       1.073   2.838  21.171  0.00  0.00    +0.000 Cl
ATOM     21  C   UNL     1       1.220   4.195  18.845  0.00  0.00    +0.000 A 
ATOM     22  C   UNL     1       1.510   5.322  18.073  0.00  0.00    +0.000 A 
ENDBRANCH  15  16
ENDBRANCH  14  15
ENDBRANCH   3  14
TORSDOF 5
ENDMDL
MODEL 2
REMARK VINA RESULT:      -6.6      2.792      5.828
REMARK  Name = 
REMARK  5 active torsions:
REMARK  status: ('A' for Active; 'I' for Inactive)
REMARK    1  A    between atoms: C_2  and  C_13
REMARK    2  A    between atoms: N_3  and  C_4
REMARK    3  A    between atoms: C_4  and  C_5
REMARK    4  A    between atoms: C_5  and  C_6
REMARK    5  A    between atoms: C_13  and  C_14
REMARK                            x       y       z     vdW  Elec       q    Type
REMARK                         _______ _______ _______ _____ _____    ______ ____
ROOT
ATOM      1  O   UNL     1       4.430   3.560  19.881  0.00  0.00    +0.000 OA
ATOM      2  C   UNL     1       3.436   3.909  19.250  0.00  0.00    +0.000 C 
ATOM      3  N   UNL     1       3.225   3.698  17.917  0.00  0.00    +0.000 N 
ATOM      4  H   UNL     1       2.305   3.906  17.550  0.00  0.00    +0.000 HD
ENDROOT
BRANCH   2   5
ATOM      5  C   UNL     1       2.283   4.617  19.939  0.00  0.00    +0.000 C 
ATOM      6  C   UNL     1       0.963   3.870  20.041  0.00  0.00    +0.000 C 
ATOM      7  C   UNL     1       1.803   4.021  21.267  0.00  0.00    +0.000 C 
BRANCH   5   8
ATOM      8  C   UNL     1       2.322   6.132  19.780  0.00  0.00    +0.000 A 
ATOM      9  C   UNL     1       1.748   6.967  20.756  0.00  0.00    +0.000 A 
ATOM     10  C   UNL     1       1.378   8.280  20.453  0.00  0.00    +0.000 A 
ATOM     11  C   UNL     1       1.618   8.793  19.181  0.00  0.00    +0.000 A 
ATOM     12  C   UNL     1       2.308   8.030  18.247  0.00  0.00    +0.000 A 
ATOM     13  C   UNL     1       2.677   6.720  18.555  0.00  0.00    +0.000 A 
ENDBRANCH   5   8
ENDBRANCH   2   5
BRANCH   3  14
ATOM     14  C   UNL     1       4.169   3.005  17.059  0.00  0.00    +0.000 C 
BRANCH  14  15
ATOM     15  C   UNL     1       4.743   3.984  16.038  0.00  0.00    +0.000 C 
BRANCH  15  16
ATOM     16  C   UNL     1       5.683   4.988  16.640  0.00  0.00    +0.000 A 
ATOM     17  C   UNL     1       5.491   6.358  16.423  0.00  0.00    +0.000 A 
ATOM     18  C   UNL     1       6.343   7.291  17.016  0.00  0.00    +0.000 A 
ATOM     19  C   UNL     1       7.394   6.854  17.819  0.00  0.00    +0.000 A 
ATOM     20 CL   UNL     1       8.428   8.005  18.572  0.00  0.00    +0.000 Cl
ATOM     21  C   UNL     1       7.611   5.495  18.024  0.00  0.00    +0.000 A 
ATOM     22  C   UNL     1       6.758   4.560  17.431  0.00  0.00    +0.000 A 
ENDBRANCH  15  16
ENDBRANCH  14  15
ENDBRANCH   3  14
TORSDOF 5
ENDMDL
MODEL 3
REMARK VINA RESULT:      -6.5      5.066      6.465
REMARK  Name = 
REMARK  5 active torsions:
REMARK  status: ('A' for Active; 'I' for Inactive)
REMARK    1  A    between atoms: C_2  and  C_13
REMARK    2  A    between atoms: N_3  and  C_4
REMARK    3  A    between atoms: C_4  and  C_5
REMARK    4  A    between atoms: C_5  and  C_6
REMARK    5  A    between atoms: C_13  and  C_14
REMARK                            x       y       z     vdW  Elec       q    Type
REMARK                         _______ _______ _______ _____ _____    ______ ____
ROOT
ATOM      1  O   UNL     1       6.655   5.214  19.085  0.00  0.00    +0.000 OA
ATOM      2  C   UNL     1       6.432   5.672  17.968  0.00  0.00    +0.000 C 
ATOM      3  N   UNL     1       6.985   6.807  17.449  0.00  0.00    +0.000 N 
ATOM      4  H   UNL     1       6.830   6.997  16.466  0.00  0.00    +0.000 HD
ENDROOT
BRANCH   2   5
ATOM      5  C   UNL     1       5.496   4.961  17.007  0.00  0.00    +0.000 C 
ATOM      6  C   UNL     1       5.512   5.409  15.554  0.00  0.00    +0.000 C 
ATOM      7  C   UNL     1       6.148   4.106  15.915  0.00  0.00    +0.000 C 
BRANCH   5   8
ATOM      8  C   UNL     1       4.214   4.467  17.666  0.00  0.00    +0.000 A 
ATOM      9  C   UNL     1       4.048   3.104  17.971  0.00  0.00    +0.000 A 
ATOM     10  C   UNL     1       2.776   2.557  18.155  0.00  0.00    +0.000 A 
ATOM     11  C   UNL     1       1.651   3.374  18.081  0.00  0.00    +0.000 A 
ATOM     12  C   UNL     1       1.803   4.746  17.919  0.00  0.00    +0.000 A 
ATOM     13  C   UNL     1       3.076   5.288  17.737  0.00  0.00    +0.000 A 
ENDBRANCH   5   8
ENDBRANCH   2   5
BRANCH   3  14
ATOM     14  C   UNL     1       7.941   7.631  18.166  0.00  0.00    +0.000 C 
BRANCH  14  15
ATOM     15  C   UNL     1       8.110   8.963  17.441  0.00  0.00    +0.000 C 
BRANCH  15  16
ATOM     16  C   UNL     1       8.658  10.052  18.318  0.00  0.00    +0.000 A 
ATOM     17  C   UNL     1       9.079   9.767  19.623  0.00  0.00    +0.000 A 
ATOM     18  C   UNL     1       9.625  10.773  20.423  0.00  0.00    +0.000 A 
ATOM     19  C   UNL     1       9.741  12.067  19.921  0.00  0.00    +0.000 A 
ATOM     20 CL   UNL     1      10.438  13.301  20.896  0.00  0.00    +0.000 Cl
ATOM     21  C   UNL     1       9.305  12.369  18.634  0.00  0.00    +0.000 A 
ATOM     22  C   UNL     1       8.759  11.363  17.833  0.00  0.00    +0.000 A 
ENDBRANCH  15  16
ENDBRANCH  14  15
ENDBRANCH   3  14
TORSDOF 5
ENDMDL
MODEL 4
REMARK VINA RESULT:      -6.5      2.897      4.117
REMARK  Name = 
REMARK  5 active torsions:
REMARK  status: ('A' for Active; 'I' for Inactive)
REMARK    1  A    between atoms: C_2  and  C_13
REMARK    2  A    between atoms: N_3  and  C_4
REMARK    3  A    between atoms: C_4  and  C_5
REMARK    4  A    between atoms: C_5  and  C_6
REMARK    5  A    between atoms: C_13  and  C_14
REMARK                            x       y       z     vdW  Elec       q    Type
REMARK                         _______ _______ _______ _____ _____    ______ ____
ROOT
ATOM      1  O   UNL     1       3.648   3.922  17.115  0.00  0.00    +0.000 OA
ATOM      2  C   UNL     1       4.325   4.935  16.961  0.00  0.00    +0.000 C 
ATOM      3  N   UNL     1       4.004   6.183  17.412  0.00  0.00    +0.000 N 
ATOM      4  H   UNL     1       4.714   6.902  17.345  0.00  0.00    +0.000 HD
ENDROOT
BRANCH   2   5
ATOM      5  C   UNL     1       5.662   4.877  16.243  0.00  0.00    +0.000 C 
ATOM      6  C   UNL     1       5.939   3.660  15.374  0.00  0.00    +0.000 C 
ATOM      7  C   UNL     1       5.627   4.963  14.713  0.00  0.00    +0.000 C 
BRANCH   5   8
ATOM      8  C   UNL     1       6.784   5.580  16.997  0.00  0.00    +0.000 A 
ATOM      9  C   UNL     1       7.347   4.996  18.146  0.00  0.00    +0.000 A 
ATOM     10  C   UNL     1       8.033   5.771  19.085  0.00  0.00    +0.000 A 
ATOM     11  C   UNL     1       8.207   7.134  18.866  0.00  0.00    +0.000 A 
ATOM     12  C   UNL     1       7.779   7.703  17.672  0.00  0.00    +0.000 A 
ATOM     13  C   UNL     1       7.096   6.925  16.737  0.00  0.00    +0.000 A 
ENDBRANCH   5   8
ENDBRANCH   2   5
BRANCH   3  14
ATOM     14  C   UNL     1       2.795   6.476  18.161  0.00  0.00    +0.000 C 
BRANCH  14  15
ATOM     15  C   UNL     1       2.432   7.948  17.987  0.00  0.00    +0.000 C 
BRANCH  15  16
ATOM     16  C   UNL     1       1.701   8.523  19.166  0.00  0.00    +0.000 A 
ATOM     17  C   UNL     1       0.929   9.683  19.023  0.00  0.00    +0.000 A 
ATOM     18  C   UNL     1       0.218  10.194  20.111  0.00  0.00    +0.000 A 
ATOM     19  C   UNL     1       0.287   9.550  21.345  0.00  0.00    +0.000 A 
ATOM     20 CL   UNL     1      -0.610  10.164  22.678  0.00  0.00    +0.000 Cl
ATOM     21  C   UNL     1       1.070   8.410  21.505  0.00  0.00    +0.000 A 
ATOM     22  C   UNL     1       1.781   7.898  20.417  0.00  0.00    +0.000 A 
ENDBRANCH  15  16
ENDBRANCH  14  15
ENDBRANCH   3  14
TORSDOF 5
ENDMDL
MODEL 5
REMARK VINA RESULT:      -6.5      2.887      5.939
REMARK  Name = 
REMARK  5 active torsions:
REMARK  status: ('A' for Active; 'I' for Inactive)
REMARK    1  A    between atoms: C_2  and  C_13
REMARK    2  A    between atoms: N_3  and  C_4
REMARK    3  A    between atoms: C_4  and  C_5
REMARK    4  A    between atoms: C_5  and  C_6
REMARK    5  A    between atoms: C_13  and  C_14
REMARK                            x       y       z     vdW  Elec       q    Type
REMARK                         _______ _______ _______ _____ _____    ______ ____
ROOT
ATOM      1  O   UNL     1       1.337   4.157  17.451  0.00  0.00    +0.000 OA
ATOM      2  C   UNL     1       2.295   4.458  18.159  0.00  0.00    +0.000 C 
ATOM      3  N   UNL     1       3.609   4.270  17.841  0.00  0.00    +0.000 N 
ATOM      4  H   UNL     1       4.302   4.692  18.446  0.00  0.00    +0.000 HD
ENDROOT
BRANCH   2   5
ATOM      5  C   UNL     1       2.089   5.126  19.507  0.00  0.00    +0.000 C 
ATOM      6  C   UNL     1       1.201   4.413  20.514  0.00  0.00    +0.000 C 
ATOM      7  C   UNL     1       2.680   4.413  20.728  0.00  0.00    +0.000 C 
BRANCH   5   8
ATOM      8  C   UNL     1       2.144   6.648  19.442  0.00  0.00    +0.000 A 
ATOM      9  C   UNL     1       1.618   7.426  20.489  0.00  0.00    +0.000 A 
ATOM     10  C   UNL     1       1.256   8.759  20.283  0.00  0.00    +0.000 A 
ATOM     11  C   UNL     1       1.456   9.350  19.038  0.00  0.00    +0.000 A 
ATOM     12  C   UNL     1       2.101   8.639  18.033  0.00  0.00    +0.000 A 
ATOM     13  C   UNL     1       2.462   7.308  18.243  0.00  0.00    +0.000 A 
ENDBRANCH   5   8
ENDBRANCH   2   5
BRANCH   3  14
ATOM     14  C   UNL     1       4.053   3.687  16.588  0.00  0.00    +0.000 C 
BRANCH  14  15
ATOM     15  C   UNL     1       5.577   3.616  16.571  0.00  0.00    +0.000 C 
BRANCH  15  16
ATOM     16  C   UNL     1       6.237   4.883  17.032  0.00  0.00    +0.000 A 
ATOM     17  C   UNL     1       7.220   4.847  18.030  0.00  0.00    +0.000 A 
ATOM     18  C   UNL     1       7.860   6.022  18.430  0.00  0.00    +0.000 A 
ATOM     19  C   UNL     1       7.512   7.234  17.839  0.00  0.00    +0.000 A 
ATOM     20 CL   UNL     1       8.320   8.677  18.311  0.00  0.00    +0.000 Cl
ATOM     21  C   UNL     1       6.521   7.286  16.863  0.00  0.00    +0.000 A 
ATOM     22  C   UNL     1       5.880   6.112  16.462  0.00  0.00    +0.000 A 
ENDBRANCH  15  16
ENDBRANCH  14  15
ENDBRANCH   3  14
TORSDOF 5
ENDMDL
MODEL 6
REMARK VINA RESULT:      -6.4      1.555      3.696
REMARK  Name = 
REMARK  5 active torsions:
REMARK  status: ('A' for Active; 'I' for Inactive)
REMARK    1  A    between atoms: C_2  and  C_13
REMARK    2  A    between atoms: N_3  and  C_4
REMARK    3  A    between atoms: C_4  and  C_5
REMARK    4  A    between atoms: C_5  and  C_6
REMARK    5  A    between atoms: C_13  and  C_14
REMARK                            x       y       z     vdW  Elec       q    Type
REMARK                         _______ _______ _______ _____ _____    ______ ____
ROOT
ATOM      1  O   UNL     1       4.971   7.054  15.121  0.00  0.00    +0.000 OA
ATOM      2  C   UNL     1       5.191   6.212  15.988  0.00  0.00    +0.000 C 
ATOM      3  N   UNL     1       4.733   6.256  17.274  0.00  0.00    +0.000 N 
ATOM      4  H   UNL     1       4.865   5.430  17.846  0.00  0.00    +0.000 HD
ENDROOT
BRANCH   2   5
ATOM      5  C   UNL     1       6.011   4.972  15.680  0.00  0.00    +0.000 C 
ATOM      6  C   UNL     1       7.101   4.589  16.668  0.00  0.00    +0.000 C 
ATOM      7  C   UNL     1       5.844   3.781  16.631  0.00  0.00    +0.000 C 
BRANCH   5   8
ATOM      8  C   UNL     1       6.171   4.708  14.187  0.00  0.00    +0.000 A 
ATOM      9  C   UNL     1       5.292   3.836  13.518  0.00  0.00    +0.000 A 
ATOM     10  C   UNL     1       5.653   3.241  12.307  0.00  0.00    +0.000 A 
ATOM     11  C   UNL     1       6.879   3.544  11.722  0.00  0.00    +0.000 A 
ATOM     12  C   UNL     1       7.700   4.507  12.297  0.00  0.00    +0.000 A 
ATOM     13  C   UNL     1       7.335   5.100  13.506  0.00  0.00    +0.000 A 
ENDBRANCH   5   8
ENDBRANCH   2   5
BRANCH   3  14
ATOM     14  C   UNL     1       3.896   7.324  17.788  0.00  0.00    +0.000 C 
BRANCH  14  15
ATOM     15  C   UNL     1       2.436   6.878  17.776  0.00  0.00    +0.000 C 
BRANCH  15  16
ATOM     16  C   UNL     1       2.144   5.772  18.749  0.00  0.00    +0.000 A 
ATOM     17  C   UNL     1       1.778   4.501  18.288  0.00  0.00    +0.000 A 
ATOM     18  C   UNL     1       1.546   3.463  19.194  0.00  0.00    +0.000 A 
ATOM     19  C   UNL     1       1.670   3.699  20.561  0.00  0.00    +0.000 A 
ATOM     20 CL   UNL     1       1.410   2.415  21.676  0.00  0.00    +0.000 Cl
ATOM     21  C   UNL     1       2.010   4.964  21.033  0.00  0.00    +0.000 A 
ATOM     22  C   UNL     1       2.243   6.002  20.128  0.00  0.00    +0.000 A 
ENDBRANCH  15  16
ENDBRANCH  14  15
ENDBRANCH   3  14
TORSDOF 5
ENDMDL
MODEL 7
REMARK VINA RESULT:      -6.4      2.924      6.052
REMARK  Name = 
REMARK  5 active torsions:
REMARK  status: ('A' for Active; 'I' for Inactive)
REMARK    1  A    between atoms: C_2  and  C_13
REMARK    2  A    between atoms: N_3  and  C_4
REMARK    3  A    between atoms: C_4  and  C_5
REMARK    4  A    between atoms: C_5  and  C_6
REMARK    5  A    between atoms: C_13  and  C_14
REMARK                            x       y       z     vdW  Elec       q    Type
REMARK                         _______ _______ _______ _____ _____    ______ ____
ROOT
ATOM      1  O   UNL     1       3.827   3.600  18.725  0.00  0.00    +0.000 OA
ATOM      2  C   UNL     1       3.813   4.695  19.281  0.00  0.00    +0.000 C 
ATOM      3  N   UNL     1       4.892   5.515  19.452  0.00  0.00    +0.000 N 
ATOM      4  H   UNL     1       4.719   6.451  19.797  0.00  0.00    +0.000 HD
ENDROOT
BRANCH   2   5
ATOM      5  C   UNL     1       2.521   5.274  19.831  0.00  0.00    +0.000 C 
ATOM      6  C   UNL     1       1.317   4.349  19.909  0.00  0.00    +0.000 C 
ATOM      7  C   UNL     1       2.030   4.714  21.170  0.00  0.00    +0.000 C 
BRANCH   5   8
ATOM      8  C   UNL     1       2.357   6.762  19.547  0.00  0.00    +0.000 A 
ATOM      9  C   UNL     1       1.792   7.614  20.513  0.00  0.00    +0.000 A 
ATOM     10  C   UNL     1       1.233   8.842  20.150  0.00  0.00    +0.000 A 
ATOM     11  C   UNL     1       1.272   9.258  18.822  0.00  0.00    +0.000 A 
ATOM     12  C   UNL     1       1.948   8.494  17.879  0.00  0.00    +0.000 A 
ATOM     13  C   UNL     1       2.505   7.269  18.245  0.00  0.00    +0.000 A 
ENDBRANCH   5   8
ENDBRANCH   2   5
BRANCH   3  14
ATOM     14  C   UNL     1       6.224   5.193  18.973  0.00  0.00    +0.000 C 
BRANCH  14  15
ATOM     15  C   UNL     1       6.583   6.113  17.809  0.00  0.00    +0.000 C 
BRANCH  15  16
ATOM     16  C   UNL     1       6.382   5.476  16.464  0.00  0.00    +0.000 A 
ATOM     17  C   UNL     1       7.484   5.079  15.696  0.00  0.00    +0.000 A 
ATOM     18  C   UNL     1       7.294   4.452  14.463  0.00  0.00    +0.000 A 
ATOM     19  C   UNL     1       6.002   4.228  13.993  0.00  0.00    +0.000 A 
ATOM     20 CL   UNL     1       5.767   3.431  12.488  0.00  0.00    +0.000 Cl
ATOM     21  C   UNL     1       4.898   4.639  14.736  0.00  0.00    +0.000 A 
ATOM     22  C   UNL     1       5.087   5.267  15.970  0.00  0.00    +0.000 A 
ENDBRANCH  15  16
ENDBRANCH  14  15
ENDBRANCH   3  14
TORSDOF 5
ENDMDL
MODEL 8
REMARK VINA RESULT:      -6.4      5.705      7.259
REMARK  Name = 
REMARK  5 active torsions:
REMARK  status: ('A' for Active; 'I' for Inactive)
REMARK    1  A    between atoms: C_2  and  C_13
REMARK    2  A    between atoms: N_3  and  C_4
REMARK    3  A    between atoms: C_4  and  C_5
REMARK    4  A    between atoms: C_5  and  C_6
REMARK    5  A    between atoms: C_13  and  C_14
REMARK                            x       y       z     vdW  Elec       q    Type
REMARK                         _______ _______ _______ _____ _____    ______ ____
ROOT
ATOM      1  O   UNL     1       7.269   5.998  18.987  0.00  0.00    +0.000 OA
ATOM      2  C   UNL     1       7.093   6.423  17.848  0.00  0.00    +0.000 C 
ATOM      3  N   UNL     1       7.578   7.600  17.355  0.00  0.00    +0.000 N 
ATOM      4  H   UNL     1       7.483   7.765  16.360  0.00  0.00    +0.000 HD
ENDROOT
BRANCH   2   5
ATOM      5  C   UNL     1       6.305   5.619  16.829  0.00  0.00    +0.000 C 
ATOM      6  C   UNL     1       6.892   5.491  15.433  0.00  0.00    +0.000 C 
ATOM      7  C   UNL     1       6.937   4.309  16.346  0.00  0.00    +0.000 C 
BRANCH   5   8
ATOM      8  C   UNL     1       4.798   5.676  17.050  0.00  0.00    +0.000 A 
ATOM      9  C   UNL     1       4.172   6.886  17.398  0.00  0.00    +0.000 A 
ATOM     10  C   UNL     1       2.922   6.897  18.021  0.00  0.00    +0.000 A 
ATOM     11  C   UNL     1       2.256   5.699  18.264  0.00  0.00    +0.000 A 
ATOM     12  C   UNL     1       2.795   4.504  17.803  0.00  0.00    +0.000 A 
ATOM     13  C   UNL     1       4.043   4.498  17.180  0.00  0.00    +0.000 A 
ENDBRANCH   5   8
ENDBRANCH   2   5
BRANCH   3  14
ATOM     14  C   UNL     1       8.394   8.517  18.131  0.00  0.00    +0.000 C 
BRANCH  14  15
ATOM     15  C   UNL     1       7.986   9.953  17.816  0.00  0.00    +0.000 C 
BRANCH  15  16
ATOM     16  C   UNL     1       8.979  10.972  18.295  0.00  0.00    +0.000 A 
ATOM     17  C   UNL     1       9.031  12.242  17.707  0.00  0.00    +0.000 A 
ATOM     18  C   UNL     1       9.929  13.202  18.181  0.00  0.00    +0.000 A 
ATOM     19  C   UNL     1      10.781  12.888  19.237  0.00  0.00    +0.000 A 
ATOM     20 CL   UNL     1      11.868  14.078  19.839  0.00  0.00    +0.000 Cl
ATOM     21  C   UNL     1      10.755  11.622  19.815  0.00  0.00    +0.000 A 
ATOM     22  C   UNL     1       9.857  10.662  19.342  0.00  0.00    +0.000 A 
ENDBRANCH  15  16
ENDBRANCH  14  15
ENDBRANCH   3  14
TORSDOF 5
ENDMDL
MODEL 9
REMARK VINA RESULT:      -6.4      2.738      5.324
REMARK  Name = 
REMARK  5 active torsions:
REMARK  status: ('A' for Active; 'I' for Inactive)
REMARK    1  A    between atoms: C_2  and  C_13
REMARK    2  A    between atoms: N_3  and  C_4
REMARK    3  A    between atoms: C_4  and  C_5
REMARK    4  A    between atoms: C_5  and  C_6
REMARK    5  A    between atoms: C_13  and  C_14
REMARK                            x       y       z     vdW  Elec       q    Type
REMARK                         _______ _______ _______ _____ _____    ______ ____
ROOT
ATOM      1  O   UNL     1       4.476   7.033  16.780  0.00  0.00    +0.000 OA
ATOM      2  C   UNL     1       4.303   6.538  17.890  0.00  0.00    +0.000 C 
ATOM      3  N   UNL     1       5.286   6.071  18.715  0.00  0.00    +0.000 N 
ATOM      4  H   UNL     1       5.023   5.821  19.661  0.00  0.00    +0.000 HD
ENDROOT
BRANCH   2   5
ATOM      5  C   UNL     1       2.910   6.424  18.484  0.00  0.00    +0.000 C 
ATOM      6  C   UNL     1       2.410   7.587  19.327  0.00  0.00    +0.000 C 
ATOM      7  C   UNL     1       1.852   7.399  17.954  0.00  0.00    +0.000 C 
BRANCH   5   8
ATOM      8  C   UNL     1       2.502   4.990  18.798  0.00  0.00    +0.000 A 
ATOM      9  C   UNL     1       2.425   4.030  17.774  0.00  0.00    +0.000 A 
ATOM     10  C   UNL     1       1.659   2.872  17.929  0.00  0.00    +0.000 A 
ATOM     11  C   UNL     1       0.996   2.633  19.130  0.00  0.00    +0.000 A 
ATOM     12  C   UNL     1       1.173   3.501  20.201  0.00  0.00    +0.000 A 
ATOM     13  C   UNL     1       1.939   4.655  20.041  0.00  0.00    +0.000 A 
ENDBRANCH   5   8
ENDBRANCH   2   5
BRANCH   3  14
ATOM     14  C   UNL     1       6.697   6.113  18.381  0.00  0.00    +0.000 C 
BRANCH  14  15
ATOM     15  C   UNL     1       7.147   4.737  17.895  0.00  0.00    +0.000 C 
BRANCH  15  16
ATOM     16  C   UNL     1       6.736   4.443  16.481  0.00  0.00    +0.000 A 
ATOM     17  C   UNL     1       5.606   3.658  16.220  0.00  0.00    +0.000 A 
ATOM     18  C   UNL     1       5.204   3.419  14.904  0.00  0.00    +0.000 A 
ATOM     19  C   UNL     1       5.937   3.956  13.849  0.00  0.00    +0.000 A 
ATOM     20 CL   UNL     1       5.427   3.684  12.229  0.00  0.00    +0.000 Cl
ATOM     21  C   UNL     1       7.076   4.718  14.094  0.00  0.00    +0.000 A 
ATOM     22  C   UNL     1       7.479   4.959  15.410  0.00  0.00    +0.000 A 
ENDBRANCH  15  16
ENDBRANCH  14  15
ENDBRANCH   3  14
TORSDOF 5
ENDMDL
