MODEL 1
REMARK VINA RESULT:      -8.5      0.000      0.000
REMARK  Name = 
REMARK  7 active torsions:
REMARK  status: ('A' for Active; 'I' for Inactive)
REMARK    1  A    between atoms: C_2  and  O_3
REMARK    2  A    between atoms: C_2  and  C_4
REMARK    3  A    between atoms: C_4  and  C_5
REMARK    4  A    between atoms: C_5  and  C_6
REMARK    5  A    between atoms: C_6  and  C_7
REMARK    6  A    between atoms: N_16  and  S_17
REMARK    7  A    between atoms: S_17  and  C_20
REMARK                            x       y       z     vdW  Elec       q    Type
REMARK                         _______ _______ _______ _____ _____    ______ ____
ROOT
ATOM      1  C   UNL     1       2.593   4.776  20.557  0.00  0.00    +0.000 A 
ATOM      2  C   UNL     1       1.843   5.933  20.652  0.00  0.00    +0.000 A 
ATOM      3  C   UNL     1       2.233   6.820  19.626  0.00  0.00    +0.000 A 
ATOM      4  C   UNL     1       1.768   8.099  19.262  0.00  0.00    +0.000 A 
ATOM      5  C   UNL     1       2.346   8.754  18.179  0.00  0.00    +0.000 A 
ATOM      6 CL   UNL     1       1.762  10.307  17.720  0.00  0.00    +0.000 Cl
ATOM      7  C   UNL     1       3.376   8.159  17.465  0.00  0.00    +0.000 A 
ATOM      8  C   UNL     1       3.860   6.888  17.817  0.00  0.00    +0.000 A 
ATOM      9  C   UNL     1       3.273   6.213  18.911  0.00  0.00    +0.000 A 
ATOM     10  N   UNL     1       3.487   4.970  19.509  0.00  0.00    +0.000 N 
ENDROOT
BRANCH  10  11
ATOM     11  S   UNL     1       4.850   3.956  19.211  0.00  0.00    +0.000 S 
ATOM     12  O   UNL     1       5.815   4.217  20.256  0.00  0.00    +0.000 OA
ATOM     13  O   UNL     1       4.349   2.609  18.987  0.00  0.00    +0.000 OA
BRANCH  11  14
ATOM     14  C   UNL     1       5.500   4.545  17.669  0.00  0.00    +0.000 A 
ATOM     15  C   UNL     1       6.587   5.441  17.627  0.00  0.00    +0.000 A 
ATOM     16  C   UNL     1       7.171   5.779  16.394  0.00  0.00    +0.000 A 
ATOM     17  C   UNL     1       6.659   5.181  15.264  0.00  0.00    +0.000 A 
ATOM     18  C   UNL     1       5.575   4.331  15.319  0.00  0.00    +0.000 A 
ATOM     19  C   UNL     1       4.969   3.995  16.501  0.00  0.00    +0.000 A 
ATOM     20  O   UNL     1       5.248   3.822  14.103  0.00  0.00    +0.000 OA
ATOM     21  C   UNL     1       6.425   4.194  13.366  0.00  0.00    +0.000 C 
ATOM     22  O   UNL     1       7.153   5.276  13.997  0.00  0.00    +0.000 OA
ENDBRANCH  11  14
ENDBRANCH  10  11
BRANCH   1  23
ATOM     23  C   UNL     1       2.497   3.554  21.421  0.00  0.00    +0.000 C 
BRANCH  23  24
ATOM     24  C   UNL     1       1.228   2.743  21.121  0.00  0.00    +0.000 C 
BRANCH  24  25
ATOM     25  C   UNL     1       0.537   3.182  19.834  0.00  0.00    +0.000 C 
BRANCH  25  27
ATOM     26  O   UNL     1       1.347   3.187  17.551  0.00  0.00    +0.000 OA
ATOM     27  C   UNL     1       1.195   2.596  18.609  0.00  0.00    +0.000 C 
BRANCH  27  28
ATOM     28  O   UNL     1       1.630   1.330  18.799  0.00  0.00    +0.000 OA
ATOM     29  H   UNL     1       1.842   1.113  19.726  0.00  0.00    +0.000 HD
ENDBRANCH  27  28
ENDBRANCH  25  27
ENDBRANCH  24  25
ENDBRANCH  23  24
ENDBRANCH   1  23
TORSDOF 7
ENDMDL
MODEL 2
REMARK VINA RESULT:      -8.2      1.503      2.298
REMARK  Name = 
REMARK  7 active torsions:
REMARK  status: ('A' for Active; 'I' for Inactive)
REMARK    1  A    between atoms: C_2  and  O_3
REMARK    2  A    between atoms: C_2  and  C_4
REMARK    3  A    between atoms: C_4  and  C_5
REMARK    4  A    between atoms: C_5  and  C_6
REMARK    5  A    between atoms: C_6  and  C_7
REMARK    6  A    between atoms: N_16  and  S_17
REMARK    7  A    between atoms: S_17  and  C_20
REMARK                            x       y       z     vdW  Elec       q    Type
REMARK                         _______ _______ _______ _____ _____    ______ ____
ROOT
ATOM      1  C   UNL     1       2.549   4.756  20.658  0.00  0.00    +0.000 A 
ATOM      2  C   UNL     1       2.074   5.968  21.124  0.00  0.00    +0.000 A 
ATOM      3  C   UNL     1       2.073   6.900  20.065  0.00  0.00    +0.000 A 
ATOM      4  C   UNL     1       1.662   8.246  19.998  0.00  0.00    +0.000 A 
ATOM      5  C   UNL     1       1.771   8.935  18.794  0.00  0.00    +0.000 A 
ATOM      6 CL   UNL     1       1.246  10.572  18.706  0.00  0.00    +0.000 Cl
ATOM      7  C   UNL     1       2.287   8.308  17.669  0.00  0.00    +0.000 A 
ATOM      8  C   UNL     1       2.711   6.969  17.717  0.00  0.00    +0.000 A 
ATOM      9  C   UNL     1       2.596   6.261  18.934  0.00  0.00    +0.000 A 
ATOM     10  N   UNL     1       2.895   4.955  19.326  0.00  0.00    +0.000 N 
ENDROOT
BRANCH  10  11
ATOM     11  S   UNL     1       3.839   3.843  18.404  0.00  0.00    +0.000 S 
ATOM     12  O   UNL     1       4.373   2.868  19.327  0.00  0.00    +0.000 OA
ATOM     13  O   UNL     1       3.030   3.422  17.271  0.00  0.00    +0.000 OA
BRANCH  11  14
ATOM     14  C   UNL     1       5.172   4.827  17.771  0.00  0.00    +0.000 A 
ATOM     15  C   UNL     1       5.233   5.187  16.409  0.00  0.00    +0.000 A 
ATOM     16  C   UNL     1       6.221   6.083  15.964  0.00  0.00    +0.000 A 
ATOM     17  C   UNL     1       7.081   6.598  16.907  0.00  0.00    +0.000 A 
ATOM     18  C   UNL     1       7.028   6.211  18.229  0.00  0.00    +0.000 A 
ATOM     19  C   UNL     1       6.092   5.325  18.694  0.00  0.00    +0.000 A 
ATOM     20  O   UNL     1       7.939   6.859  19.000  0.00  0.00    +0.000 OA
ATOM     21  C   UNL     1       8.328   7.897  18.085  0.00  0.00    +0.000 C 
ATOM     22  O   UNL     1       8.023   7.564  16.709  0.00  0.00    +0.000 OA
ENDBRANCH  11  14
ENDBRANCH  10  11
BRANCH   1  23
ATOM     23  C   UNL     1       2.695   3.477  21.427  0.00  0.00    +0.000 C 
BRANCH  23  24
ATOM     24  C   UNL     1       1.405   2.645  21.399  0.00  0.00    +0.000 C 
BRANCH  24  25
ATOM     25  C   UNL     1       0.503   2.994  20.220  0.00  0.00    +0.000 C 
BRANCH  25  27
ATOM     26  O   UNL     1       0.032   2.043  18.043  0.00  0.00    +0.000 OA
ATOM     27  C   UNL     1       0.735   2.081  19.041  0.00  0.00    +0.000 C 
BRANCH  27  28
ATOM     28  O   UNL     1       1.831   1.304  19.182  0.00  0.00    +0.000 OA
ATOM     29  H   UNL     1       2.005   1.017  20.098  0.00  0.00    +0.000 HD
ENDBRANCH  27  28
ENDBRANCH  25  27
ENDBRANCH  24  25
ENDBRANCH  23  24
ENDBRANCH   1  23
TORSDOF 7
ENDMDL
MODEL 3
REMARK VINA RESULT:      -8.1      0.790      1.321
REMARK  Name = 
REMARK  7 active torsions:
REMARK  status: ('A' for Active; 'I' for Inactive)
REMARK    1  A    between atoms: C_2  and  O_3
REMARK    2  A    between atoms: C_2  and  C_4
REMARK    3  A    between atoms: C_4  and  C_5
REMARK    4  A    between atoms: C_5  and  C_6
REMARK    5  A    between atoms: C_6  and  C_7
REMARK    6  A    between atoms: N_16  and  S_17
REMARK    7  A    between atoms: S_17  and  C_20
REMARK                            x       y       z     vdW  Elec       q    Type
REMARK                         _______ _______ _______ _____ _____    ______ ____
ROOT
ATOM      1  C   UNL     1       2.708   4.842  20.408  0.00  0.00    +0.000 A 
ATOM      2  C   UNL     1       1.855   5.929  20.448  0.00  0.00    +0.000 A 
ATOM      3  C   UNL     1       2.268   6.875  19.486  0.00  0.00    +0.000 A 
ATOM      4  C   UNL     1       1.734   8.121  19.103  0.00  0.00    +0.000 A 
ATOM      5  C   UNL     1       2.359   8.853  18.098  0.00  0.00    +0.000 A 
ATOM      6 CL   UNL     1       1.693  10.364  17.613  0.00  0.00    +0.000 Cl
ATOM      7  C   UNL     1       3.503   8.367  17.482  0.00  0.00    +0.000 A 
ATOM      8  C   UNL     1       4.057   7.131  17.856  0.00  0.00    +0.000 A 
ATOM      9  C   UNL     1       3.424   6.379  18.870  0.00  0.00    +0.000 A 
ATOM     10  N   UNL     1       3.682   5.141  19.462  0.00  0.00    +0.000 N 
ENDROOT
BRANCH  10  11
ATOM     11  S   UNL     1       5.151   4.254  19.284  0.00  0.00    +0.000 S 
ATOM     12  O   UNL     1       6.212   5.069  19.832  0.00  0.00    +0.000 OA
ATOM     13  O   UNL     1       4.912   2.912  19.793  0.00  0.00    +0.000 OA
BRANCH  11  14
ATOM     14  C   UNL     1       5.372   4.126  17.530  0.00  0.00    +0.000 A 
ATOM     15  C   UNL     1       4.292   3.816  16.677  0.00  0.00    +0.000 A 
ATOM     16  C   UNL     1       4.464   3.861  15.282  0.00  0.00    +0.000 A 
ATOM     17  C   UNL     1       5.699   4.243  14.808  0.00  0.00    +0.000 A 
ATOM     18  C   UNL     1       6.753   4.513  15.655  0.00  0.00    +0.000 A 
ATOM     19  C   UNL     1       6.626   4.459  17.018  0.00  0.00    +0.000 A 
ATOM     20  O   UNL     1       7.871   4.903  14.990  0.00  0.00    +0.000 OA
ATOM     21  C   UNL     1       7.302   5.149  13.693  0.00  0.00    +0.000 C 
ATOM     22  O   UNL     1       6.038   4.466  13.506  0.00  0.00    +0.000 OA
ENDBRANCH  11  14
ENDBRANCH  10  11
BRANCH   1  23
ATOM     23  C   UNL     1       2.631   3.592  21.232  0.00  0.00    +0.000 C 
BRANCH  23  24
ATOM     24  C   UNL     1       1.277   2.885  21.070  0.00  0.00    +0.000 C 
BRANCH  24  25
ATOM     25  C   UNL     1       1.332   1.725  20.082  0.00  0.00    +0.000 C 
BRANCH  25  27
ATOM     26  O   UNL     1       1.004   3.063  18.090  0.00  0.00    +0.000 OA
ATOM     27  C   UNL     1       1.624   2.190  18.677  0.00  0.00    +0.000 C 
BRANCH  27  28
ATOM     28  O   UNL     1       2.676   1.552  18.118  0.00  0.00    +0.000 OA
ATOM     29  H   UNL     1       3.461   1.489  18.694  0.00  0.00    +0.000 HD
ENDBRANCH  27  28
ENDBRANCH  25  27
ENDBRANCH  24  25
ENDBRANCH  23  24
ENDBRANCH   1  23
TORSDOF 7
ENDMDL
MODEL 4
REMARK VINA RESULT:      -8.0      5.479      7.506
REMARK  Name = 
REMARK  7 active torsions:
REMARK  status: ('A' for Active; 'I' for Inactive)
REMARK    1  A    between atoms: C_2  and  O_3
REMARK    2  A    between atoms: C_2  and  C_4
REMARK    3  A    between atoms: C_4  and  C_5
REMARK    4  A    between atoms: C_5  and  C_6
REMARK    5  A    between atoms: C_6  and  C_7
REMARK    6  A    between atoms: N_16  and  S_17
REMARK    7  A    between atoms: S_17  and  C_20
REMARK                            x       y       z     vdW  Elec       q    Type
REMARK                         _______ _______ _______ _____ _____    ______ ____
ROOT
ATOM      1  C   UNL     1      -0.844  11.756  18.849  0.00  0.00    +0.000 A 
ATOM      2  C   UNL     1      -0.802  13.059  18.392  0.00  0.00    +0.000 A 
ATOM      3  C   UNL     1       0.367  13.682  18.879  0.00  0.00    +0.000 A 
ATOM      4  C   UNL     1       0.895  14.973  18.686  0.00  0.00    +0.000 A 
ATOM      5  C   UNL     1       2.096  15.319  19.298  0.00  0.00    +0.000 A 
ATOM      6 CL   UNL     1       2.754  16.889  19.042  0.00  0.00    +0.000 Cl
ATOM      7  C   UNL     1       2.766  14.405  20.098  0.00  0.00    +0.000 A 
ATOM      8  C   UNL     1       2.252  13.116  20.311  0.00  0.00    +0.000 A 
ATOM      9  C   UNL     1       1.037  12.754  19.687  0.00  0.00    +0.000 A 
ATOM     10  N   UNL     1       0.269  11.589  19.666  0.00  0.00    +0.000 N 
ENDROOT
BRANCH  10  11
ATOM     11  S   UNL     1       0.484  10.250  20.733  0.00  0.00    +0.000 S 
ATOM     12  O   UNL     1       1.383  10.677  21.780  0.00  0.00    +0.000 OA
ATOM     13  O   UNL     1      -0.838   9.737  21.058  0.00  0.00    +0.000 OA
BRANCH  11  14
ATOM     14  C   UNL     1       1.298   9.029  19.737  0.00  0.00    +0.000 A 
ATOM     15  C   UNL     1       1.709   9.315  18.419  0.00  0.00    +0.000 A 
ATOM     16  C   UNL     1       2.476   8.378  17.704  0.00  0.00    +0.000 A 
ATOM     17  C   UNL     1       2.822   7.214  18.354  0.00  0.00    +0.000 A 
ATOM     18  C   UNL     1       2.385   6.937  19.632  0.00  0.00    +0.000 A 
ATOM     19  C   UNL     1       1.619   7.817  20.350  0.00  0.00    +0.000 A 
ATOM     20  O   UNL     1       2.862   5.755  20.102  0.00  0.00    +0.000 OA
ATOM     21  C   UNL     1       3.877   5.500  19.115  0.00  0.00    +0.000 C 
ATOM     22  O   UNL     1       3.654   6.238  17.890  0.00  0.00    +0.000 OA
ENDBRANCH  11  14
ENDBRANCH  10  11
BRANCH   1  23
ATOM     23  C   UNL     1      -1.888  10.720  18.556  0.00  0.00    +0.000 C 
BRANCH  23  24
ATOM     24  C   UNL     1      -1.577   9.946  17.267  0.00  0.00    +0.000 C 
BRANCH  24  25
ATOM     25  C   UNL     1      -2.826   9.626  16.454  0.00  0.00    +0.000 C 
BRANCH  25  27
ATOM     26  O   UNL     1      -2.685  10.021  14.069  0.00  0.00    +0.000 OA
ATOM     27  C   UNL     1      -2.907  10.448  15.191  0.00  0.00    +0.000 C 
BRANCH  27  28
ATOM     28  O   UNL     1      -3.276  11.728  15.417  0.00  0.00    +0.000 OA
ATOM     29  H   UNL     1      -4.151  11.825  15.838  0.00  0.00    +0.000 HD
ENDBRANCH  27  28
ENDBRANCH  25  27
ENDBRANCH  24  25
ENDBRANCH  23  24
ENDBRANCH   1  23
TORSDOF 7
ENDMDL
MODEL 5
REMARK VINA RESULT:      -7.7      1.640      2.274
REMARK  Name = 
REMARK  7 active torsions:
REMARK  status: ('A' for Active; 'I' for Inactive)
REMARK    1  A    between atoms: C_2  and  O_3
REMARK    2  A    between atoms: C_2  and  C_4
REMARK    3  A    between atoms: C_4  and  C_5
REMARK    4  A    between atoms: C_5  and  C_6
REMARK    5  A    between atoms: C_6  and  C_7
REMARK    6  A    between atoms: N_16  and  S_17
REMARK    7  A    between atoms: S_17  and  C_20
REMARK                            x       y       z     vdW  Elec       q    Type
REMARK                         _______ _______ _______ _____ _____    ______ ____
ROOT
ATOM      1  C   UNL     1       4.265   4.745  19.281  0.00  0.00    +0.000 A 
ATOM      2  C   UNL     1       3.033   5.232  19.673  0.00  0.00    +0.000 A 
ATOM      3  C   UNL     1       2.793   6.461  19.022  0.00  0.00    +0.000 A 
ATOM      4  C   UNL     1       1.692   7.339  19.046  0.00  0.00    +0.000 A 
ATOM      5  C   UNL     1       1.728   8.501  18.282  0.00  0.00    +0.000 A 
ATOM      6 CL   UNL     1       0.373   9.562  18.293  0.00  0.00    +0.000 Cl
ATOM      7  C   UNL     1       2.840   8.800  17.509  0.00  0.00    +0.000 A 
ATOM      8  C   UNL     1       3.952   7.943  17.477  0.00  0.00    +0.000 A 
ATOM      9  C   UNL     1       3.920   6.757  18.245  0.00  0.00    +0.000 A 
ATOM     10  N   UNL     1       4.813   5.701  18.431  0.00  0.00    +0.000 N 
ENDROOT
BRANCH  10  11
ATOM     11  S   UNL     1       6.469   5.715  17.945  0.00  0.00    +0.000 S 
ATOM     12  O   UNL     1       6.854   7.098  17.778  0.00  0.00    +0.000 OA
ATOM     13  O   UNL     1       7.197   4.850  18.861  0.00  0.00    +0.000 OA
BRANCH  11  14
ATOM     14  C   UNL     1       6.461   4.923  16.358  0.00  0.00    +0.000 A 
ATOM     15  C   UNL     1       5.512   3.931  16.039  0.00  0.00    +0.000 A 
ATOM     16  C   UNL     1       5.439   3.424  14.730  0.00  0.00    +0.000 A 
ATOM     17  C   UNL     1       6.300   3.955  13.796  0.00  0.00    +0.000 A 
ATOM     18  C   UNL     1       7.244   4.902  14.131  0.00  0.00    +0.000 A 
ATOM     19  C   UNL     1       7.356   5.404  15.401  0.00  0.00    +0.000 A 
ATOM     20  O   UNL     1       7.969   5.319  13.061  0.00  0.00    +0.000 OA
ATOM     21  C   UNL     1       7.165   4.772  12.003  0.00  0.00    +0.000 C 
ATOM     22  O   UNL     1       6.312   3.693  12.457  0.00  0.00    +0.000 OA
ENDBRANCH  11  14
ENDBRANCH  10  11
BRANCH   1  23
ATOM     23  C   UNL     1       4.912   3.459  19.698  0.00  0.00    +0.000 C 
BRANCH  23  24
ATOM     24  C   UNL     1       3.881   2.336  19.883  0.00  0.00    +0.000 C 
BRANCH  24  25
ATOM     25  C   UNL     1       3.547   1.621  18.578  0.00  0.00    +0.000 C 
BRANCH  25  27
ATOM     26  O   UNL     1       2.231   2.933  17.025  0.00  0.00    +0.000 OA
ATOM     27  C   UNL     1       2.275   2.143  17.955  0.00  0.00    +0.000 C 
BRANCH  27  28
ATOM     28  O   UNL     1       1.161   1.629  18.521  0.00  0.00    +0.000 OA
ATOM     29  H   UNL     1       1.331   1.024  19.267  0.00  0.00    +0.000 HD
ENDBRANCH  27  28
ENDBRANCH  25  27
ENDBRANCH  24  25
ENDBRANCH  23  24
ENDBRANCH   1  23
TORSDOF 7
ENDMDL
MODEL 6
REMARK VINA RESULT:      -7.6      7.718     10.452
REMARK  Name = 
REMARK  7 active torsions:
REMARK  status: ('A' for Active; 'I' for Inactive)
REMARK    1  A    between atoms: C_2  and  O_3
REMARK    2  A    between atoms: C_2  and  C_4
REMARK    3  A    between atoms: C_4  and  C_5
REMARK    4  A    between atoms: C_5  and  C_6
REMARK    5  A    between atoms: C_6  and  C_7
REMARK    6  A    between atoms: N_16  and  S_17
REMARK    7  A    between atoms: S_17  and  C_20
REMARK                            x       y       z     vdW  Elec       q    Type
REMARK                         _______ _______ _______ _____ _____    ______ ____
ROOT
ATOM      1  C   UNL     1      -0.469  11.304  22.016  0.00  0.00    +0.000 A 
ATOM      2  C   UNL     1      -0.072  10.022  22.346  0.00  0.00    +0.000 A 
ATOM      3  C   UNL     1       0.581   9.443  21.237  0.00  0.00    +0.000 A 
ATOM      4  C   UNL     1       1.195   8.188  21.058  0.00  0.00    +0.000 A 
ATOM      5  C   UNL     1       1.778   7.880  19.833  0.00  0.00    +0.000 A 
ATOM      6 CL   UNL     1       2.550   6.356  19.622  0.00  0.00    +0.000 Cl
ATOM      7  C   UNL     1       1.749   8.796  18.791  0.00  0.00    +0.000 A 
ATOM      8  C   UNL     1       1.134  10.049  18.946  0.00  0.00    +0.000 A 
ATOM      9  C   UNL     1       0.546  10.371  20.190  0.00  0.00    +0.000 A 
ATOM     10  N   UNL     1      -0.115  11.496  20.685  0.00  0.00    +0.000 N 
ENDROOT
BRANCH  10  11
ATOM     11  S   UNL     1      -0.691  12.804  19.718  0.00  0.00    +0.000 S 
ATOM     12  O   UNL     1      -0.909  13.927  20.603  0.00  0.00    +0.000 OA
ATOM     13  O   UNL     1       0.201  12.925  18.576  0.00  0.00    +0.000 OA
BRANCH  11  14
ATOM     14  C   UNL     1      -2.259  12.237  19.112  0.00  0.00    +0.000 A 
ATOM     15  C   UNL     1      -2.343  11.329  18.036  0.00  0.00    +0.000 A 
ATOM     16  C   UNL     1      -3.587  10.789  17.670  0.00  0.00    +0.000 A 
ATOM     17  C   UNL     1      -4.684  11.159  18.416  0.00  0.00    +0.000 A 
ATOM     18  C   UNL     1      -4.590  12.072  19.444  0.00  0.00    +0.000 A 
ATOM     19  C   UNL     1      -3.396  12.634  19.816  0.00  0.00    +0.000 A 
ATOM     20  O   UNL     1      -5.776  12.274  20.074  0.00  0.00    +0.000 OA
ATOM     21  C   UNL     1      -6.521  11.168  19.537  0.00  0.00    +0.000 C 
ATOM     22  O   UNL     1      -5.949  10.662  18.306  0.00  0.00    +0.000 OA
ENDBRANCH  11  14
ENDBRANCH  10  11
BRANCH   1  23
ATOM     23  C   UNL     1      -1.171  12.296  22.896  0.00  0.00    +0.000 C 
BRANCH  23  24
ATOM     24  C   UNL     1      -2.573  11.813  23.293  0.00  0.00    +0.000 C 
BRANCH  24  25
ATOM     25  C   UNL     1      -3.527  12.962  23.603  0.00  0.00    +0.000 C 
BRANCH  25  27
ATOM     26  O   UNL     1      -5.756  12.129  24.056  0.00  0.00    +0.000 OA
ATOM     27  C   UNL     1      -4.678  12.523  24.474  0.00  0.00    +0.000 C 
BRANCH  27  28
ATOM     28  O   UNL     1      -4.395  12.587  25.795  0.00  0.00    +0.000 OA
ATOM     29  H   UNL     1      -5.080  13.028  26.331  0.00  0.00    +0.000 HD
ENDBRANCH  27  28
ENDBRANCH  25  27
ENDBRANCH  24  25
ENDBRANCH  23  24
ENDBRANCH   1  23
TORSDOF 7
ENDMDL
MODEL 7
REMARK VINA RESULT:      -7.6      1.944      3.154
REMARK  Name = 
REMARK  7 active torsions:
REMARK  status: ('A' for Active; 'I' for Inactive)
REMARK    1  A    between atoms: C_2  and  O_3
REMARK    2  A    between atoms: C_2  and  C_4
REMARK    3  A    between atoms: C_4  and  C_5
REMARK    4  A    between atoms: C_5  and  C_6
REMARK    5  A    between atoms: C_6  and  C_7
REMARK    6  A    between atoms: N_16  and  S_17
REMARK    7  A    between atoms: S_17  and  C_20
REMARK                            x       y       z     vdW  Elec       q    Type
REMARK                         _______ _______ _______ _____ _____    ______ ____
ROOT
ATOM      1  C   UNL     1       2.116   3.947  20.093  0.00  0.00    +0.000 A 
ATOM      2  C   UNL     1       1.877   5.028  20.922  0.00  0.00    +0.000 A 
ATOM      3  C   UNL     1       1.877   6.209  20.149  0.00  0.00    +0.000 A 
ATOM      4  C   UNL     1       1.653   7.557  20.493  0.00  0.00    +0.000 A 
ATOM      5  C   UNL     1       1.709   8.533  19.504  0.00  0.00    +0.000 A 
ATOM      6 CL   UNL     1       1.412  10.177  19.919  0.00  0.00    +0.000 Cl
ATOM      7  C   UNL     1       1.990   8.187  18.190  0.00  0.00    +0.000 A 
ATOM      8  C   UNL     1       2.225   6.850  17.828  0.00  0.00    +0.000 A 
ATOM      9  C   UNL     1       2.162   5.852  18.826  0.00  0.00    +0.000 A 
ATOM     10  N   UNL     1       2.321   4.466  18.819  0.00  0.00    +0.000 N 
ENDROOT
BRANCH  10  11
ATOM     11  S   UNL     1       2.979   3.557  17.509  0.00  0.00    +0.000 S 
ATOM     12  O   UNL     1       3.275   2.234  18.011  0.00  0.00    +0.000 OA
ATOM     13  O   UNL     1       2.092   3.733  16.369  0.00  0.00    +0.000 OA
BRANCH  11  14
ATOM     14  C   UNL     1       4.502   4.383  17.130  0.00  0.00    +0.000 A 
ATOM     15  C   UNL     1       4.827   4.750  15.807  0.00  0.00    +0.000 A 
ATOM     16  C   UNL     1       5.971   5.527  15.555  0.00  0.00    +0.000 A 
ATOM     17  C   UNL     1       6.718   5.926  16.641  0.00  0.00    +0.000 A 
ATOM     18  C   UNL     1       6.405   5.533  17.924  0.00  0.00    +0.000 A 
ATOM     19  C   UNL     1       5.309   4.759  18.204  0.00  0.00    +0.000 A 
ATOM     20  O   UNL     1       7.245   6.059  18.852  0.00  0.00    +0.000 OA
ATOM     21  C   UNL     1       7.896   7.055  18.045  0.00  0.00    +0.000 C 
ATOM     22  O   UNL     1       7.785   6.776  16.628  0.00  0.00    +0.000 OA
ENDBRANCH  11  14
ENDBRANCH  10  11
BRANCH   1  23
ATOM     23  C   UNL     1       2.175   2.499  20.478  0.00  0.00    +0.000 C 
BRANCH  23  24
ATOM     24  C   UNL     1       3.399   2.192  21.354  0.00  0.00    +0.000 C 
BRANCH  24  25
ATOM     25  C   UNL     1       4.671   1.985  20.539  0.00  0.00    +0.000 C 
BRANCH  25  27
ATOM     26  O   UNL     1       6.004   0.889  22.238  0.00  0.00    +0.000 OA
ATOM     27  C   UNL     1       5.537   0.889  21.110  0.00  0.00    +0.000 C 
BRANCH  27  28
ATOM     28  O   UNL     1       5.739  -0.129  20.244  0.00  0.00    +0.000 OA
ATOM     29  H   UNL     1       5.260  -0.038  19.399  0.00  0.00    +0.000 HD
ENDBRANCH  27  28
ENDBRANCH  25  27
ENDBRANCH  24  25
ENDBRANCH  23  24
ENDBRANCH   1  23
TORSDOF 7
ENDMDL
MODEL 8
REMARK VINA RESULT:      -7.5      3.507      7.190
REMARK  Name = 
REMARK  7 active torsions:
REMARK  status: ('A' for Active; 'I' for Inactive)
REMARK    1  A    between atoms: C_2  and  O_3
REMARK    2  A    between atoms: C_2  and  C_4
REMARK    3  A    between atoms: C_4  and  C_5
REMARK    4  A    between atoms: C_5  and  C_6
REMARK    5  A    between atoms: C_6  and  C_7
REMARK    6  A    between atoms: N_16  and  S_17
REMARK    7  A    between atoms: S_17  and  C_20
REMARK                            x       y       z     vdW  Elec       q    Type
REMARK                         _______ _______ _______ _____ _____    ______ ____
ROOT
ATOM      1  C   UNL     1       6.761   5.644  17.281  0.00  0.00    +0.000 A 
ATOM      2  C   UNL     1       7.636   5.552  16.214  0.00  0.00    +0.000 A 
ATOM      3  C   UNL     1       6.980   4.921  15.135  0.00  0.00    +0.000 A 
ATOM      4  C   UNL     1       7.404   4.617  13.826  0.00  0.00    +0.000 A 
ATOM      5  C   UNL     1       6.525   3.983  12.954  0.00  0.00    +0.000 A 
ATOM      6 CL   UNL     1       7.035   3.633  11.347  0.00  0.00    +0.000 Cl
ATOM      7  C   UNL     1       5.245   3.644  13.367  0.00  0.00    +0.000 A 
ATOM      8  C   UNL     1       4.806   3.931  14.670  0.00  0.00    +0.000 A 
ATOM      9  C   UNL     1       5.690   4.581  15.560  0.00  0.00    +0.000 A 
ATOM     10  N   UNL     1       5.585   5.019  16.881  0.00  0.00    +0.000 N 
ENDROOT
BRANCH  10  11
ATOM     11  S   UNL     1       4.316   4.581  17.965  0.00  0.00    +0.000 S 
ATOM     12  O   UNL     1       3.373   3.779  17.218  0.00  0.00    +0.000 OA
ATOM     13  O   UNL     1       4.937   4.057  19.172  0.00  0.00    +0.000 OA
BRANCH  11  14
ATOM     14  C   UNL     1       3.552   6.124  18.386  0.00  0.00    +0.000 A 
ATOM     15  C   UNL     1       3.484   7.185  17.458  0.00  0.00    +0.000 A 
ATOM     16  C   UNL     1       2.750   8.342  17.768  0.00  0.00    +0.000 A 
ATOM     17  C   UNL     1       2.093   8.372  18.979  0.00  0.00    +0.000 A 
ATOM     18  C   UNL     1       2.196   7.340  19.887  0.00  0.00    +0.000 A 
ATOM     19  C   UNL     1       2.919   6.206  19.627  0.00  0.00    +0.000 A 
ATOM     20  O   UNL     1       1.448   7.549  21.001  0.00  0.00    +0.000 OA
ATOM     21  C   UNL     1       0.642   8.648  20.543  0.00  0.00    +0.000 C 
ATOM     22  O   UNL     1       1.237   9.338  19.418  0.00  0.00    +0.000 OA
ENDBRANCH  11  14
ENDBRANCH  10  11
BRANCH   1  23
ATOM     23  C   UNL     1       7.020   6.266  18.621  0.00  0.00    +0.000 C 
BRANCH  23  24
ATOM     24  C   UNL     1       8.189   7.262  18.570  0.00  0.00    +0.000 C 
BRANCH  24  25
ATOM     25  C   UNL     1       7.835   8.548  17.832  0.00  0.00    +0.000 C 
BRANCH  25  27
ATOM     26  O   UNL     1       8.624  10.839  17.840  0.00  0.00    +0.000 OA
ATOM     27  C   UNL     1       8.605   9.734  18.361  0.00  0.00    +0.000 C 
BRANCH  27  28
ATOM     28  O   UNL     1       9.272   9.463  19.504  0.00  0.00    +0.000 OA
ATOM     29  H   UNL     1       8.778   9.676  20.318  0.00  0.00    +0.000 HD
ENDBRANCH  27  28
ENDBRANCH  25  27
ENDBRANCH  24  25
ENDBRANCH  23  24
ENDBRANCH   1  23
TORSDOF 7
ENDMDL
MODEL 9
REMARK VINA RESULT:      -7.4      2.916      5.500
REMARK  Name = 
REMARK  7 active torsions:
REMARK  status: ('A' for Active; 'I' for Inactive)
REMARK    1  A    between atoms: C_2  and  O_3
REMARK    2  A    between atoms: C_2  and  C_4
REMARK    3  A    between atoms: C_4  and  C_5
REMARK    4  A    between atoms: C_5  and  C_6
REMARK    5  A    between atoms: C_6  and  C_7
REMARK    6  A    between atoms: N_16  and  S_17
REMARK    7  A    between atoms: S_17  and  C_20
REMARK                            x       y       z     vdW  Elec       q    Type
REMARK                         _______ _______ _______ _____ _____    ______ ____
ROOT
ATOM      1  C   UNL     1       3.721   3.759  16.940  0.00  0.00    +0.000 A 
ATOM      2  C   UNL     1       3.754   3.500  15.582  0.00  0.00    +0.000 A 
ATOM      3  C   UNL     1       4.982   3.954  15.056  0.00  0.00    +0.000 A 
ATOM      4  C   UNL     1       5.524   3.903  13.757  0.00  0.00    +0.000 A 
ATOM      5  C   UNL     1       6.789   4.435  13.523  0.00  0.00    +0.000 A 
ATOM      6 CL   UNL     1       7.461   4.351  11.941  0.00  0.00    +0.000 Cl
ATOM      7  C   UNL     1       7.509   5.018  14.555  0.00  0.00    +0.000 A 
ATOM      8  C   UNL     1       6.983   5.086  15.856  0.00  0.00    +0.000 A 
ATOM      9  C   UNL     1       5.702   4.542  16.103  0.00  0.00    +0.000 A 
ATOM     10  N   UNL     1       4.904   4.425  17.242  0.00  0.00    +0.000 N 
ENDROOT
BRANCH  10  11
ATOM     11  S   UNL     1       5.186   5.252  18.730  0.00  0.00    +0.000 S 
ATOM     12  O   UNL     1       5.181   4.258  19.780  0.00  0.00    +0.000 OA
ATOM     13  O   UNL     1       6.340   6.115  18.535  0.00  0.00    +0.000 OA
BRANCH  11  14
ATOM     14  C   UNL     1       3.766   6.297  18.921  0.00  0.00    +0.000 A 
ATOM     15  C   UNL     1       2.962   6.235  20.079  0.00  0.00    +0.000 A 
ATOM     16  C   UNL     1       1.930   7.171  20.267  0.00  0.00    +0.000 A 
ATOM     17  C   UNL     1       1.770   8.142  19.303  0.00  0.00    +0.000 A 
ATOM     18  C   UNL     1       2.544   8.169  18.162  0.00  0.00    +0.000 A 
ATOM     19  C   UNL     1       3.545   7.261  17.937  0.00  0.00    +0.000 A 
ATOM     20  O   UNL     1       2.251   9.222  17.357  0.00  0.00    +0.000 OA
ATOM     21  C   UNL     1       1.453  10.000  18.266  0.00  0.00    +0.000 C 
ATOM     22  O   UNL     1       0.917   9.205  19.351  0.00  0.00    +0.000 OA
ENDBRANCH  11  14
ENDBRANCH  10  11
BRANCH   1  23
ATOM     23  C   UNL     1       2.625   3.422  17.906  0.00  0.00    +0.000 C 
BRANCH  23  24
ATOM     24  C   UNL     1       2.911   2.113  18.657  0.00  0.00    +0.000 C 
BRANCH  24  25
ATOM     25  C   UNL     1       1.798   1.736  19.629  0.00  0.00    +0.000 C 
BRANCH  25  27
ATOM     26  O   UNL     1       2.521   2.693  21.733  0.00  0.00    +0.000 OA
ATOM     27  C   UNL     1       1.728   2.680  20.804  0.00  0.00    +0.000 C 
BRANCH  27  28
ATOM     28  O   UNL     1       0.694   3.547  20.724  0.00  0.00    +0.000 OA
ATOM     29  H   UNL     1       0.958   4.485  20.702  0.00  0.00    +0.000 HD
ENDBRANCH  27  28
ENDBRANCH  25  27
ENDBRANCH  24  25
ENDBRANCH  23  24
ENDBRANCH   1  23
TORSDOF 7
ENDMDL
