MODEL 1
REMARK VINA RESULT:      -8.4      0.000      0.000
REMARK  Name = 
REMARK  9 active torsions:
REMARK  status: ('A' for Active; 'I' for Inactive)
REMARK    1  A    between atoms: N_1  and  C_2
REMARK    2  A    between atoms: N_5  and  C_6
REMARK    3  A    between atoms: C_6  and  C_7
REMARK    4  A    between atoms: C_7  and  C_8
REMARK    5  A    between atoms: C_8  and  O_9
REMARK    6  A    between atoms: O_9  and  C_10
REMARK    7  A    between atoms: C_13  and  C_14
REMARK    8  A    between atoms: C_19  and  O_20
REMARK    9  A    between atoms: O_20  and  C_21
REMARK                            x       y       z     vdW  Elec       q    Type
REMARK                         _______ _______ _______ _____ _____    ______ ____
ROOT
ATOM      1  C   UNL     1       3.662   4.559  17.757  0.00  0.00    +0.000 A 
ATOM      2  C   UNL     1       2.763   4.401  18.809  0.00  0.00    +0.000 A 
ATOM      3  C   UNL     1       2.175   5.516  19.407  0.00  0.00    +0.000 A 
ATOM      4  C   UNL     1       2.462   6.821  18.974  0.00  0.00    +0.000 A 
ATOM      5  C   UNL     1       3.392   6.980  17.940  0.00  0.00    +0.000 A 
ATOM      6  C   UNL     1       3.984   5.854  17.337  0.00  0.00    +0.000 A 
ENDROOT
BRANCH   4   7
ATOM      7  C   UNL     1       1.729   7.917  19.608  0.00  0.00    +0.000 A 
ATOM      8  N   UNL     1       1.396   9.064  19.047  0.00  0.00    +0.000 NA
ATOM      9  C   UNL     1       0.809   9.770  20.055  0.00  0.00    +0.000 A 
ATOM     10  C   UNL     1       0.275  11.062  20.053  0.00  0.00    +0.000 A 
ATOM     11  C   UNL     1      -0.283  11.538  21.241  0.00  0.00    +0.000 A 
ATOM     12  C   UNL     1      -0.310  10.750  22.401  0.00  0.00    +0.000 A 
ATOM     13  C   UNL     1       0.212   9.444  22.416  0.00  0.00    +0.000 A 
ATOM     14  C   UNL     1       0.769   9.012  21.212  0.00  0.00    +0.000 A 
ATOM     15  O   UNL     1       1.372   7.805  20.933  0.00  0.00    +0.000 OA
BRANCH  12  16
ATOM     16  O   UNL     1      -0.998  11.324  23.449  0.00  0.00    +0.000 OA
BRANCH  16  17
ATOM     17  C   UNL     1      -1.735  12.468  23.278  0.00  0.00    +0.000 A 
ATOM     18  C   UNL     1      -1.225  13.765  23.346  0.00  0.00    +0.000 A 
ATOM     19  C   UNL     1      -2.069  14.856  23.114  0.00  0.00    +0.000 A 
ATOM     20  C   UNL     1      -3.408  14.645  22.784  0.00  0.00    +0.000 A 
ATOM     21 CL   UNL     1      -4.444  15.989  22.505  0.00  0.00    +0.000 Cl
ATOM     22  C   UNL     1      -3.910  13.351  22.668  0.00  0.00    +0.000 A 
ATOM     23  C   UNL     1      -3.069  12.264  22.910  0.00  0.00    +0.000 A 
ENDBRANCH  16  17
ENDBRANCH  12  16
ENDBRANCH   4   7
BRANCH   1  24
ATOM     24  O   UNL     1       4.266   3.525  17.082  0.00  0.00    +0.000 OA
BRANCH  24  25
ATOM     25  C   UNL     1       4.668   3.828  15.738  0.00  0.00    +0.000 C 
BRANCH  25  26
ATOM     26  C   UNL     1       6.180   3.693  15.590  0.00  0.00    +0.000 C 
BRANCH  26  27
ATOM     27  C   UNL     1       6.852   5.049  15.330  0.00  0.00    +0.000 C 
BRANCH  27  31
ATOM     28  C   UNL     1       7.781   5.495  18.866  0.00  0.00    +0.000 C 
ATOM     29  C   UNL     1       7.850   6.920  18.331  0.00  0.00    +0.000 C 
ATOM     30  C   UNL     1       7.181   6.832  16.973  0.00  0.00    +0.000 C 
ATOM     31  N   UNL     1       7.662   5.546  16.452  0.00  0.00    +0.000 NA
ATOM     32  C   UNL     1       7.629   4.622  17.602  0.00  0.00    +0.000 C 
BRANCH  28  33
ATOM     33  N   UNL     1       6.646   5.332  19.782  0.00  0.00    +0.000 NA
ATOM     34  H   UNL     1       6.895   4.676  20.522  0.00  0.00    +0.000 HD
ATOM     35  H   UNL     1       5.860   4.919  19.283  0.00  0.00    +0.000 HD
ENDBRANCH  28  33
ENDBRANCH  27  31
ENDBRANCH  26  27
ENDBRANCH  25  26
ENDBRANCH  24  25
ENDBRANCH   1  24
TORSDOF 9
ENDMDL
MODEL 2
REMARK VINA RESULT:      -8.4      2.337      2.904
REMARK  Name = 
REMARK  9 active torsions:
REMARK  status: ('A' for Active; 'I' for Inactive)
REMARK    1  A    between atoms: N_1  and  C_2
REMARK    2  A    between atoms: N_5  and  C_6
REMARK    3  A    between atoms: C_6  and  C_7
REMARK    4  A    between atoms: C_7  and  C_8
REMARK    5  A    between atoms: C_8  and  O_9
REMARK    6  A    between atoms: O_9  and  C_10
REMARK    7  A    between atoms: C_13  and  C_14
REMARK    8  A    between atoms: C_19  and  O_20
REMARK    9  A    between atoms: O_20  and  C_21
REMARK                            x       y       z     vdW  Elec       q    Type
REMARK                         _______ _______ _______ _____ _____    ______ ____
ROOT
ATOM      1  C   UNL     1       3.546   4.984  18.513  0.00  0.00    +0.000 A 
ATOM      2  C   UNL     1       3.454   6.264  17.971  0.00  0.00    +0.000 A 
ATOM      3  C   UNL     1       2.736   7.260  18.635  0.00  0.00    +0.000 A 
ATOM      4  C   UNL     1       2.091   7.013  19.857  0.00  0.00    +0.000 A 
ATOM      5  C   UNL     1       2.154   5.718  20.383  0.00  0.00    +0.000 A 
ATOM      6  C   UNL     1       2.879   4.714  19.714  0.00  0.00    +0.000 A 
ENDROOT
BRANCH   4   7
ATOM      7  C   UNL     1       1.438   8.146  20.514  0.00  0.00    +0.000 A 
ATOM      8  N   UNL     1       0.853   8.134  21.697  0.00  0.00    +0.000 NA
ATOM      9  C   UNL     1       0.332   9.387  21.824  0.00  0.00    +0.000 A 
ATOM     10  C   UNL     1      -0.412   9.948  22.866  0.00  0.00    +0.000 A 
ATOM     11  C   UNL     1      -0.814  11.279  22.736  0.00  0.00    +0.000 A 
ATOM     12  C   UNL     1      -0.486  12.032  21.599  0.00  0.00    +0.000 A 
ATOM     13  C   UNL     1       0.272  11.485  20.548  0.00  0.00    +0.000 A 
ATOM     14  C   UNL     1       0.644  10.151  20.713  0.00  0.00    +0.000 A 
ATOM     15  O   UNL     1       1.359   9.349  19.852  0.00  0.00    +0.000 OA
BRANCH  12  16
ATOM     16  O   UNL     1      -0.859  13.357  21.681  0.00  0.00    +0.000 OA
BRANCH  16  17
ATOM     17  C   UNL     1      -0.314  14.304  20.851  0.00  0.00    +0.000 A 
ATOM     18  C   UNL     1      -0.720  14.545  19.538  0.00  0.00    +0.000 A 
ATOM     19  C   UNL     1      -0.114  15.567  18.800  0.00  0.00    +0.000 A 
ATOM     20  C   UNL     1       0.870  16.362  19.387  0.00  0.00    +0.000 A 
ATOM     21 CL   UNL     1       1.617  17.614  18.475  0.00  0.00    +0.000 Cl
ATOM     22  C   UNL     1       1.245  16.156  20.712  0.00  0.00    +0.000 A 
ATOM     23  C   UNL     1       0.647  15.129  21.444  0.00  0.00    +0.000 A 
ENDBRANCH  16  17
ENDBRANCH  12  16
ENDBRANCH   4   7
BRANCH   1  24
ATOM     24  O   UNL     1       4.255   3.947  17.956  0.00  0.00    +0.000 OA
BRANCH  24  25
ATOM     25  C   UNL     1       4.270   3.921  16.521  0.00  0.00    +0.000 C 
BRANCH  25  26
ATOM     26  C   UNL     1       5.697   3.779  16.005  0.00  0.00    +0.000 C 
BRANCH  26  27
ATOM     27  C   UNL     1       6.294   5.133  15.595  0.00  0.00    +0.000 C 
BRANCH  27  31
ATOM     28  C   UNL     1       7.980   5.564  18.842  0.00  0.00    +0.000 C 
ATOM     29  C   UNL     1       7.881   6.998  18.335  0.00  0.00    +0.000 C 
ATOM     30  C   UNL     1       6.927   6.904  17.160  0.00  0.00    +0.000 C 
ATOM     31  N   UNL     1       7.320   5.644  16.517  0.00  0.00    +0.000 NA
ATOM     32  C   UNL     1       7.575   4.704  17.625  0.00  0.00    +0.000 C 
BRANCH  28  33
ATOM     33  N   UNL     1       7.086   5.349  19.985  0.00  0.00    +0.000 NA
ATOM     34  H   UNL     1       6.513   4.522  19.820  0.00  0.00    +0.000 HD
ATOM     35  H   UNL     1       6.443   6.135  20.068  0.00  0.00    +0.000 HD
ENDBRANCH  28  33
ENDBRANCH  27  31
ENDBRANCH  26  27
ENDBRANCH  25  26
ENDBRANCH  24  25
ENDBRANCH   1  24
TORSDOF 9
ENDMDL
MODEL 3
REMARK VINA RESULT:      -8.2      6.190     10.442
REMARK  Name = 
REMARK  9 active torsions:
REMARK  status: ('A' for Active; 'I' for Inactive)
REMARK    1  A    between atoms: N_1  and  C_2
REMARK    2  A    between atoms: N_5  and  C_6
REMARK    3  A    between atoms: C_6  and  C_7
REMARK    4  A    between atoms: C_7  and  C_8
REMARK    5  A    between atoms: C_8  and  O_9
REMARK    6  A    between atoms: O_9  and  C_10
REMARK    7  A    between atoms: C_13  and  C_14
REMARK    8  A    between atoms: C_19  and  O_20
REMARK    9  A    between atoms: O_20  and  C_21
REMARK                            x       y       z     vdW  Elec       q    Type
REMARK                         _______ _______ _______ _____ _____    ______ ____
ROOT
ATOM      1  C   UNL     1       9.942  12.908  18.470  0.00  0.00    +0.000 A 
ATOM      2  C   UNL     1      10.387  11.836  19.241  0.00  0.00    +0.000 A 
ATOM      3  C   UNL     1       9.774  10.588  19.132  0.00  0.00    +0.000 A 
ATOM      4  C   UNL     1       8.703  10.367  18.252  0.00  0.00    +0.000 A 
ATOM      5  C   UNL     1       8.234  11.452  17.503  0.00  0.00    +0.000 A 
ATOM      6  C   UNL     1       8.854  12.712  17.613  0.00  0.00    +0.000 A 
ENDROOT
BRANCH   4   7
ATOM      7  C   UNL     1       8.187   9.002  18.149  0.00  0.00    +0.000 A 
ATOM      8  N   UNL     1       8.604   7.953  18.833  0.00  0.00    +0.000 NA
ATOM      9  C   UNL     1       7.880   6.915  18.326  0.00  0.00    +0.000 A 
ATOM     10  C   UNL     1       7.909   5.557  18.655  0.00  0.00    +0.000 A 
ATOM     11  C   UNL     1       7.037   4.704  17.975  0.00  0.00    +0.000 A 
ATOM     12  C   UNL     1       6.161   5.188  16.993  0.00  0.00    +0.000 A 
ATOM     13  C   UNL     1       6.112   6.554  16.660  0.00  0.00    +0.000 A 
ATOM     14  C   UNL     1       7.005   7.369  17.355  0.00  0.00    +0.000 A 
ATOM     15  O   UNL     1       7.202   8.726  17.228  0.00  0.00    +0.000 OA
BRANCH  12  16
ATOM     16  O   UNL     1       5.291   4.237  16.503  0.00  0.00    +0.000 OA
BRANCH  16  17
ATOM     17  C   UNL     1       4.134   3.920  17.168  0.00  0.00    +0.000 A 
ATOM     18  C   UNL     1       3.130   4.828  17.505  0.00  0.00    +0.000 A 
ATOM     19  C   UNL     1       1.974   4.378  18.150  0.00  0.00    +0.000 A 
ATOM     20  C   UNL     1       1.812   3.020  18.425  0.00  0.00    +0.000 A 
ATOM     21 CL   UNL     1       0.391   2.471  19.224  0.00  0.00    +0.000 Cl
ATOM     22  C   UNL     1       2.789   2.103  18.048  0.00  0.00    +0.000 A 
ATOM     23  C   UNL     1       3.948   2.555  17.413  0.00  0.00    +0.000 A 
ENDBRANCH  16  17
ENDBRANCH  12  16
ENDBRANCH   4   7
BRANCH   1  24
ATOM     24  O   UNL     1      10.500  14.164  18.480  0.00  0.00    +0.000 OA
BRANCH  24  25
ATOM     25  C   UNL     1      10.683  14.740  19.782  0.00  0.00    +0.000 C 
BRANCH  25  26
ATOM     26  C   UNL     1       9.334  15.018  20.437  0.00  0.00    +0.000 C 
BRANCH  26  27
ATOM     27  C   UNL     1       9.457  15.160  21.961  0.00  0.00    +0.000 C 
BRANCH  27  31
ATOM     28  C   UNL     1       7.437  12.716  23.835  0.00  0.00    +0.000 C 
ATOM     29  C   UNL     1       6.432  13.264  22.829  0.00  0.00    +0.000 C 
ATOM     30  C   UNL     1       7.287  14.037  21.844  0.00  0.00    +0.000 C 
ATOM     31  N   UNL     1       8.285  14.679  22.708  0.00  0.00    +0.000 NA
ATOM     32  C   UNL     1       8.655  13.657  23.705  0.00  0.00    +0.000 C 
BRANCH  28  33
ATOM     33  N   UNL     1       7.785  11.325  23.524  0.00  0.00    +0.000 NA
ATOM     34  H   UNL     1       7.485  11.102  22.575  0.00  0.00    +0.000 HD
ATOM     35  H   UNL     1       7.273  10.698  24.143  0.00  0.00    +0.000 HD
ENDBRANCH  28  33
ENDBRANCH  27  31
ENDBRANCH  26  27
ENDBRANCH  25  26
ENDBRANCH  24  25
ENDBRANCH   1  24
TORSDOF 9
ENDMDL
MODEL 4
REMARK VINA RESULT:      -8.0      2.328      3.800
REMARK  Name = 
REMARK  9 active torsions:
REMARK  status: ('A' for Active; 'I' for Inactive)
REMARK    1  A    between atoms: N_1  and  C_2
REMARK    2  A    between atoms: N_5  and  C_6
REMARK    3  A    between atoms: C_6  and  C_7
REMARK    4  A    between atoms: C_7  and  C_8
REMARK    5  A    between atoms: C_8  and  O_9
REMARK    6  A    between atoms: O_9  and  C_10
REMARK    7  A    between atoms: C_13  and  C_14
REMARK    8  A    between atoms: C_19  and  O_20
REMARK    9  A    between atoms: O_20  and  C_21
REMARK                            x       y       z     vdW  Elec       q    Type
REMARK                         _______ _______ _______ _____ _____    ______ ____
ROOT
ATOM      1  C   UNL     1       2.704   7.067  18.330  0.00  0.00    +0.000 A 
ATOM      2  C   UNL     1       2.469   8.292  17.710  0.00  0.00    +0.000 A 
ATOM      3  C   UNL     1       1.832   9.321  18.402  0.00  0.00    +0.000 A 
ATOM      4  C   UNL     1       1.410   9.164  19.732  0.00  0.00    +0.000 A 
ATOM      5  C   UNL     1       1.615   7.922  20.343  0.00  0.00    +0.000 A 
ATOM      6  C   UNL     1       2.259   6.884  19.644  0.00  0.00    +0.000 A 
ENDROOT
BRANCH   4   7
ATOM      7  C   UNL     1       0.830  10.331  20.397  0.00  0.00    +0.000 A 
ATOM      8  N   UNL     1       1.074  11.597  20.112  0.00  0.00    +0.000 NA
ATOM      9  C   UNL     1       0.368  12.291  21.050  0.00  0.00    +0.000 A 
ATOM     10  C   UNL     1       0.262  13.670  21.253  0.00  0.00    +0.000 A 
ATOM     11  C   UNL     1      -0.551  14.114  22.297  0.00  0.00    +0.000 A 
ATOM     12  C   UNL     1      -1.241  13.210  23.120  0.00  0.00    +0.000 A 
ATOM     13  C   UNL     1      -1.153  11.820  22.920  0.00  0.00    +0.000 A 
ATOM     14  C   UNL     1      -0.323  11.420  21.873  0.00  0.00    +0.000 A 
ATOM     15  O   UNL     1      -0.024  10.141  21.460  0.00  0.00    +0.000 OA
BRANCH  12  16
ATOM     16  O   UNL     1      -2.087  13.813  24.025  0.00  0.00    +0.000 OA
BRANCH  16  17
ATOM     17  C   UNL     1      -3.450  13.754  23.877  0.00  0.00    +0.000 A 
ATOM     18  C   UNL     1      -4.193  14.540  22.997  0.00  0.00    +0.000 A 
ATOM     19  C   UNL     1      -5.577  14.361  22.905  0.00  0.00    +0.000 A 
ATOM     20  C   UNL     1      -6.206  13.378  23.669  0.00  0.00    +0.000 A 
ATOM     21 CL   UNL     1      -7.909  13.165  23.558  0.00  0.00    +0.000 Cl
ATOM     22  C   UNL     1      -5.462  12.558  24.513  0.00  0.00    +0.000 A 
ATOM     23  C   UNL     1      -4.082  12.745  24.612  0.00  0.00    +0.000 A 
ENDBRANCH  16  17
ENDBRANCH  12  16
ENDBRANCH   4   7
BRANCH   1  24
ATOM     24  O   UNL     1       3.353   6.006  17.746  0.00  0.00    +0.000 OA
BRANCH  24  25
ATOM     25  C   UNL     1       4.781   6.011  17.888  0.00  0.00    +0.000 C 
BRANCH  25  26
ATOM     26  C   UNL     1       5.199   5.203  19.112  0.00  0.00    +0.000 C 
BRANCH  26  27
ATOM     27  C   UNL     1       5.433   3.725  18.767  0.00  0.00    +0.000 C 
BRANCH  27  31
ATOM     28  C   UNL     1       1.985   2.538  18.247  0.00  0.00    +0.000 C 
ATOM     29  C   UNL     1       2.076   2.616  19.767  0.00  0.00    +0.000 C 
ATOM     30  C   UNL     1       3.357   3.387  20.016  0.00  0.00    +0.000 C 
ATOM     31  N   UNL     1       4.263   2.861  18.989  0.00  0.00    +0.000 NA
ATOM     32  C   UNL     1       3.441   2.733  17.771  0.00  0.00    +0.000 C 
BRANCH  28  33
ATOM     33  N   UNL     1       1.094   3.579  17.721  0.00  0.00    +0.000 NA
ATOM     34  H   UNL     1       0.956   4.300  18.429  0.00  0.00    +0.000 HD
ATOM     35  H   UNL     1       0.175   3.179  17.534  0.00  0.00    +0.000 HD
ENDBRANCH  28  33
ENDBRANCH  27  31
ENDBRANCH  26  27
ENDBRANCH  25  26
ENDBRANCH  24  25
ENDBRANCH   1  24
TORSDOF 9
ENDMDL
MODEL 5
REMARK VINA RESULT:      -8.0      6.446      8.749
REMARK  Name = 
REMARK  9 active torsions:
REMARK  status: ('A' for Active; 'I' for Inactive)
REMARK    1  A    between atoms: N_1  and  C_2
REMARK    2  A    between atoms: N_5  and  C_6
REMARK    3  A    between atoms: C_6  and  C_7
REMARK    4  A    between atoms: C_7  and  C_8
REMARK    5  A    between atoms: C_8  and  O_9
REMARK    6  A    between atoms: O_9  and  C_10
REMARK    7  A    between atoms: C_13  and  C_14
REMARK    8  A    between atoms: C_19  and  O_20
REMARK    9  A    between atoms: O_20  and  C_21
REMARK                            x       y       z     vdW  Elec       q    Type
REMARK                         _______ _______ _______ _____ _____    ______ ____
ROOT
ATOM      1  C   UNL     1       7.122   5.431  17.822  0.00  0.00    +0.000 A 
ATOM      2  C   UNL     1       7.914   5.811  18.903  0.00  0.00    +0.000 A 
ATOM      3  C   UNL     1       8.365   7.126  19.016  0.00  0.00    +0.000 A 
ATOM      4  C   UNL     1       8.040   8.102  18.061  0.00  0.00    +0.000 A 
ATOM      5  C   UNL     1       7.274   7.711  16.957  0.00  0.00    +0.000 A 
ATOM      6  C   UNL     1       6.818   6.384  16.844  0.00  0.00    +0.000 A 
ENDROOT
BRANCH   4   7
ATOM      7  C   UNL     1       8.490   9.471  18.316  0.00  0.00    +0.000 A 
ATOM      8  N   UNL     1       8.252  10.527  17.561  0.00  0.00    +0.000 NA
ATOM      9  C   UNL     1       8.943  11.534  18.170  0.00  0.00    +0.000 A 
ATOM     10  C   UNL     1       9.074  12.877  17.807  0.00  0.00    +0.000 A 
ATOM     11  C   UNL     1       9.843  13.701  18.631  0.00  0.00    +0.000 A 
ATOM     12  C   UNL     1      10.468  13.202  19.784  0.00  0.00    +0.000 A 
ATOM     13  C   UNL     1      10.334  11.856  20.168  0.00  0.00    +0.000 A 
ATOM     14  C   UNL     1       9.566  11.065  19.313  0.00  0.00    +0.000 A 
ATOM     15  O   UNL     1       9.283   9.721  19.413  0.00  0.00    +0.000 OA
BRANCH  12  16
ATOM     16  O   UNL     1      11.091  14.169  20.544  0.00  0.00    +0.000 OA
BRANCH  16  17
ATOM     17  C   UNL     1      10.418  14.844  21.531  0.00  0.00    +0.000 A 
ATOM     18  C   UNL     1       9.361  14.323  22.278  0.00  0.00    +0.000 A 
ATOM     19  C   UNL     1       8.777  15.095  23.288  0.00  0.00    +0.000 A 
ATOM     20  C   UNL     1       9.273  16.368  23.568  0.00  0.00    +0.000 A 
ATOM     21 CL   UNL     1       8.549  17.316  24.807  0.00  0.00    +0.000 Cl
ATOM     22  C   UNL     1      10.358  16.874  22.857  0.00  0.00    +0.000 A 
ATOM     23  C   UNL     1      10.933  16.106  21.842  0.00  0.00    +0.000 A 
ENDBRANCH  16  17
ENDBRANCH  12  16
ENDBRANCH   4   7
BRANCH   1  24
ATOM     24  O   UNL     1       6.601   4.172  17.638  0.00  0.00    +0.000 OA
BRANCH  24  25
ATOM     25  C   UNL     1       5.343   4.128  16.949  0.00  0.00    +0.000 C 
BRANCH  25  26
ATOM     26  C   UNL     1       4.220   3.755  17.911  0.00  0.00    +0.000 C 
BRANCH  26  27
ATOM     27  C   UNL     1       3.200   4.892  18.068  0.00  0.00    +0.000 C 
BRANCH  27  31
ATOM     28  C   UNL     1       1.814   3.686  21.260  0.00  0.00    +0.000 C 
ATOM     29  C   UNL     1       0.858   3.077  20.240  0.00  0.00    +0.000 C 
ATOM     30  C   UNL     1       1.560   3.285  18.913  0.00  0.00    +0.000 C 
ATOM     31  N   UNL     1       2.145   4.624  19.057  0.00  0.00    +0.000 NA
ATOM     32  C   UNL     1       2.663   4.678  20.437  0.00  0.00    +0.000 C 
BRANCH  28  33
ATOM     33  N   UNL     1       2.640   2.649  21.889  0.00  0.00    +0.000 NA
ATOM     34  H   UNL     1       2.706   2.825  22.891  0.00  0.00    +0.000 HD
ATOM     35  H   UNL     1       3.590   2.701  21.524  0.00  0.00    +0.000 HD
ENDBRANCH  28  33
ENDBRANCH  27  31
ENDBRANCH  26  27
ENDBRANCH  25  26
ENDBRANCH  24  25
ENDBRANCH   1  24
TORSDOF 9
ENDMDL
MODEL 6
REMARK VINA RESULT:      -7.8      6.539      8.957
REMARK  Name = 
REMARK  9 active torsions:
REMARK  status: ('A' for Active; 'I' for Inactive)
REMARK    1  A    between atoms: N_1  and  C_2
REMARK    2  A    between atoms: N_5  and  C_6
REMARK    3  A    between atoms: C_6  and  C_7
REMARK    4  A    between atoms: C_7  and  C_8
REMARK    5  A    between atoms: C_8  and  O_9
REMARK    6  A    between atoms: O_9  and  C_10
REMARK    7  A    between atoms: C_13  and  C_14
REMARK    8  A    between atoms: C_19  and  O_20
REMARK    9  A    between atoms: O_20  and  C_21
REMARK                            x       y       z     vdW  Elec       q    Type
REMARK                         _______ _______ _______ _____ _____    ______ ____
ROOT
ATOM      1  C   UNL     1       6.656   5.390  17.581  0.00  0.00    +0.000 A 
ATOM      2  C   UNL     1       6.252   6.523  16.879  0.00  0.00    +0.000 A 
ATOM      3  C   UNL     1       6.823   7.765  17.158  0.00  0.00    +0.000 A 
ATOM      4  C   UNL     1       7.814   7.916  18.141  0.00  0.00    +0.000 A 
ATOM      5  C   UNL     1       8.194   6.783  18.870  0.00  0.00    +0.000 A 
ATOM      6  C   UNL     1       7.618   5.530  18.587  0.00  0.00    +0.000 A 
ENDROOT
BRANCH   4   7
ATOM      7  C   UNL     1       8.411   9.242  18.297  0.00  0.00    +0.000 A 
ATOM      8  N   UNL     1       8.210  10.288  17.517  0.00  0.00    +0.000 NA
ATOM      9  C   UNL     1       9.041  11.245  18.022  0.00  0.00    +0.000 A 
ATOM     10  C   UNL     1       9.267  12.555  17.590  0.00  0.00    +0.000 A 
ATOM     11  C   UNL     1      10.177  13.330  18.312  0.00  0.00    +0.000 A 
ATOM     12  C   UNL     1      10.846  12.816  19.432  0.00  0.00    +0.000 A 
ATOM     13  C   UNL     1      10.619  11.504  19.886  0.00  0.00    +0.000 A 
ATOM     14  C   UNL     1       9.711  10.761  19.131  0.00  0.00    +0.000 A 
ATOM     15  O   UNL     1       9.313   9.456  19.315  0.00  0.00    +0.000 OA
BRANCH  12  16
ATOM     16  O   UNL     1      11.619  13.745  20.096  0.00  0.00    +0.000 OA
BRANCH  16  17
ATOM     17  C   UNL     1      11.071  14.896  20.604  0.00  0.00    +0.000 A 
ATOM     18  C   UNL     1      11.348  16.184  20.146  0.00  0.00    +0.000 A 
ATOM     19  C   UNL     1      10.697  17.280  20.719  0.00  0.00    +0.000 A 
ATOM     20  C   UNL     1       9.750  17.082  21.724  0.00  0.00    +0.000 A 
ATOM     21 CL   UNL     1       8.955  18.434  22.430  0.00  0.00    +0.000 Cl
ATOM     22  C   UNL     1       9.434  15.796  22.152  0.00  0.00    +0.000 A 
ATOM     23  C   UNL     1      10.093  14.703  21.586  0.00  0.00    +0.000 A 
ENDBRANCH  16  17
ENDBRANCH  12  16
ENDBRANCH   4   7
BRANCH   1  24
ATOM     24  O   UNL     1       6.180   4.120  17.357  0.00  0.00    +0.000 OA
BRANCH  24  25
ATOM     25  C   UNL     1       5.089   4.032  16.428  0.00  0.00    +0.000 C 
BRANCH  25  26
ATOM     26  C   UNL     1       3.767   3.875  17.171  0.00  0.00    +0.000 C 
BRANCH  26  27
ATOM     27  C   UNL     1       3.763   2.632  18.074  0.00  0.00    +0.000 C 
BRANCH  27  31
ATOM     28  C   UNL     1       1.264   4.116  20.336  0.00  0.00    +0.000 C 
ATOM     29  C   UNL     1       1.978   3.124  21.247  0.00  0.00    +0.000 C 
ATOM     30  C   UNL     1       3.205   2.720  20.454  0.00  0.00    +0.000 C 
ATOM     31  N   UNL     1       2.692   2.623  19.082  0.00  0.00    +0.000 NA
ATOM     32  C   UNL     1       1.782   3.773  18.923  0.00  0.00    +0.000 C 
BRANCH  28  33
ATOM     33  N   UNL     1       1.581   5.498  20.714  0.00  0.00    +0.000 NA
ATOM     34  H   UNL     1       1.412   6.116  19.921  0.00  0.00    +0.000 HD
ATOM     35  H   UNL     1       2.574   5.574  20.932  0.00  0.00    +0.000 HD
ENDBRANCH  28  33
ENDBRANCH  27  31
ENDBRANCH  26  27
ENDBRANCH  25  26
ENDBRANCH  24  25
ENDBRANCH   1  24
TORSDOF 9
ENDMDL
MODEL 7
REMARK VINA RESULT:      -7.8      6.509      9.993
REMARK  Name = 
REMARK  9 active torsions:
REMARK  status: ('A' for Active; 'I' for Inactive)
REMARK    1  A    between atoms: N_1  and  C_2
REMARK    2  A    between atoms: N_5  and  C_6
REMARK    3  A    between atoms: C_6  and  C_7
REMARK    4  A    between atoms: C_7  and  C_8
REMARK    5  A    between atoms: C_8  and  O_9
REMARK    6  A    between atoms: O_9  and  C_10
REMARK    7  A    between atoms: C_13  and  C_14
REMARK    8  A    between atoms: C_19  and  O_20
REMARK    9  A    between atoms: O_20  and  C_21
REMARK                            x       y       z     vdW  Elec       q    Type
REMARK                         _______ _______ _______ _____ _____    ______ ____
ROOT
ATOM      1  C   UNL     1       9.602  11.879  18.742  0.00  0.00    +0.000 A 
ATOM      2  C   UNL     1       9.847  10.663  19.376  0.00  0.00    +0.000 A 
ATOM      3  C   UNL     1       9.140   9.520  19.002  0.00  0.00    +0.000 A 
ATOM      4  C   UNL     1       8.172   9.551  17.986  0.00  0.00    +0.000 A 
ATOM      5  C   UNL     1       7.902  10.780  17.374  0.00  0.00    +0.000 A 
ATOM      6  C   UNL     1       8.616  11.934  17.751  0.00  0.00    +0.000 A 
ENDROOT
BRANCH   4   7
ATOM      7  C   UNL     1       7.550   8.282  17.610  0.00  0.00    +0.000 A 
ATOM      8  N   UNL     1       8.115   7.304  16.927  0.00  0.00    +0.000 NA
ATOM      9  C   UNL     1       7.116   6.389  16.765  0.00  0.00    +0.000 A 
ATOM     10  C   UNL     1       7.127   5.158  16.104  0.00  0.00    +0.000 A 
ATOM     11  C   UNL     1       5.948   4.410  16.103  0.00  0.00    +0.000 A 
ATOM     12  C   UNL     1       4.789   4.874  16.742  0.00  0.00    +0.000 A 
ATOM     13  C   UNL     1       4.767   6.105  17.422  0.00  0.00    +0.000 A 
ATOM     14  C   UNL     1       5.961   6.825  17.389  0.00  0.00    +0.000 A 
ATOM     15  O   UNL     1       6.231   8.059  17.937  0.00  0.00    +0.000 OA
BRANCH  12  16
ATOM     16  O   UNL     1       3.752   3.965  16.746  0.00  0.00    +0.000 OA
BRANCH  16  17
ATOM     17  C   UNL     1       3.078   3.658  17.901  0.00  0.00    +0.000 A 
ATOM     18  C   UNL     1       1.703   3.801  18.087  0.00  0.00    +0.000 A 
ATOM     19  C   UNL     1       1.122   3.416  19.299  0.00  0.00    +0.000 A 
ATOM     20  C   UNL     1       1.911   2.861  20.306  0.00  0.00    +0.000 A 
ATOM     21 CL   UNL     1       1.193   2.394  21.798  0.00  0.00    +0.000 Cl
ATOM     22  C   UNL     1       3.276   2.672  20.109  0.00  0.00    +0.000 A 
ATOM     23  C   UNL     1       3.857   3.066  18.902  0.00  0.00    +0.000 A 
ENDBRANCH  16  17
ENDBRANCH  12  16
ENDBRANCH   4   7
BRANCH   1  24
ATOM     24  O   UNL     1      10.267  13.051  19.013  0.00  0.00    +0.000 OA
BRANCH  24  25
ATOM     25  C   UNL     1       9.430  14.209  19.149  0.00  0.00    +0.000 C 
BRANCH  25  26
ATOM     26  C   UNL     1       9.678  14.891  20.490  0.00  0.00    +0.000 C 
BRANCH  26  27
ATOM     27  C   UNL     1       9.892  13.872  21.619  0.00  0.00    +0.000 C 
BRANCH  27  31
ATOM     28  C   UNL     1       7.785  12.940  24.492  0.00  0.00    +0.000 C 
ATOM     29  C   UNL     1       7.485  11.827  23.495  0.00  0.00    +0.000 C 
ATOM     30  C   UNL     1       8.551  11.994  22.431  0.00  0.00    +0.000 C 
ATOM     31  N   UNL     1       8.657  13.452  22.296  0.00  0.00    +0.000 NA
ATOM     32  C   UNL     1       8.583  13.978  23.673  0.00  0.00    +0.000 C 
BRANCH  28  33
ATOM     33  N   UNL     1       8.559  12.431  25.630  0.00  0.00    +0.000 NA
ATOM     34  H   UNL     1       8.152  11.554  25.955  0.00  0.00    +0.000 HD
ATOM     35  H   UNL     1       8.494  13.085  26.409  0.00  0.00    +0.000 HD
ENDBRANCH  28  33
ENDBRANCH  27  31
ENDBRANCH  26  27
ENDBRANCH  25  26
ENDBRANCH  24  25
ENDBRANCH   1  24
TORSDOF 9
ENDMDL
MODEL 8
REMARK VINA RESULT:      -7.8      2.643      3.842
REMARK  Name = 
REMARK  9 active torsions:
REMARK  status: ('A' for Active; 'I' for Inactive)
REMARK    1  A    between atoms: N_1  and  C_2
REMARK    2  A    between atoms: N_5  and  C_6
REMARK    3  A    between atoms: C_6  and  C_7
REMARK    4  A    between atoms: C_7  and  C_8
REMARK    5  A    between atoms: C_8  and  O_9
REMARK    6  A    between atoms: O_9  and  C_10
REMARK    7  A    between atoms: C_13  and  C_14
REMARK    8  A    between atoms: C_19  and  O_20
REMARK    9  A    between atoms: O_20  and  C_21
REMARK                            x       y       z     vdW  Elec       q    Type
REMARK                         _______ _______ _______ _____ _____    ______ ____
ROOT
ATOM      1  C   UNL     1       4.250   5.899  18.209  0.00  0.00    +0.000 A 
ATOM      2  C   UNL     1       3.360   5.959  19.279  0.00  0.00    +0.000 A 
ATOM      3  C   UNL     1       2.443   7.005  19.375  0.00  0.00    +0.000 A 
ATOM      4  C   UNL     1       2.382   8.022  18.408  0.00  0.00    +0.000 A 
ATOM      5  C   UNL     1       3.299   7.981  17.353  0.00  0.00    +0.000 A 
ATOM      6  C   UNL     1       4.224   6.924  17.256  0.00  0.00    +0.000 A 
ENDROOT
BRANCH   4   7
ATOM      7  C   UNL     1       1.328   9.026  18.554  0.00  0.00    +0.000 A 
ATOM      8  N   UNL     1       0.276   9.178  17.770  0.00  0.00    +0.000 NA
ATOM      9  C   UNL     1      -0.351  10.283  18.265  0.00  0.00    +0.000 A 
ATOM     10  C   UNL     1      -1.511  10.927  17.825  0.00  0.00    +0.000 A 
ATOM     11  C   UNL     1      -1.942  12.049  18.536  0.00  0.00    +0.000 A 
ATOM     12  C   UNL     1      -1.237  12.519  19.654  0.00  0.00    +0.000 A 
ATOM     13  C   UNL     1      -0.076  11.874  20.115  0.00  0.00    +0.000 A 
ATOM     14  C   UNL     1       0.325  10.764  19.371  0.00  0.00    +0.000 A 
ATOM     15  O   UNL     1       1.424   9.956  19.564  0.00  0.00    +0.000 OA
BRANCH  12  16
ATOM     16  O   UNL     1      -1.858  13.562  20.307  0.00  0.00    +0.000 OA
BRANCH  16  17
ATOM     17  C   UNL     1      -2.875  13.339  21.202  0.00  0.00    +0.000 A 
ATOM     18  C   UNL     1      -4.213  13.143  20.859  0.00  0.00    +0.000 A 
ATOM     19  C   UNL     1      -5.155  12.885  21.860  0.00  0.00    +0.000 A 
ATOM     20  C   UNL     1      -4.752  12.792  23.191  0.00  0.00    +0.000 A 
ATOM     21 CL   UNL     1      -5.915  12.480  24.419  0.00  0.00    +0.000 Cl
ATOM     22  C   UNL     1      -3.410  12.940  23.534  0.00  0.00    +0.000 A 
ATOM     23  C   UNL     1      -2.472  13.208  22.535  0.00  0.00    +0.000 A 
ENDBRANCH  16  17
ENDBRANCH  12  16
ENDBRANCH   4   7
BRANCH   1  24
ATOM     24  O   UNL     1       5.166   4.895  18.007  0.00  0.00    +0.000 OA
BRANCH  24  25
ATOM     25  C   UNL     1       4.768   3.887  17.066  0.00  0.00    +0.000 C 
BRANCH  25  26
ATOM     26  C   UNL     1       3.333   3.444  17.332  0.00  0.00    +0.000 C 
BRANCH  26  27
ATOM     27  C   UNL     1       3.266   1.993  17.832  0.00  0.00    +0.000 C 
BRANCH  27  31
ATOM     28  C   UNL     1       1.047   2.833  20.648  0.00  0.00    +0.000 C 
ATOM     29  C   UNL     1       2.401   2.687  21.334  0.00  0.00    +0.000 C 
ATOM     30  C   UNL     1       3.389   2.650  20.185  0.00  0.00    +0.000 C 
ATOM     31  N   UNL     1       2.690   1.844  19.176  0.00  0.00    +0.000 NA
ATOM     32  C   UNL     1       1.286   2.295  19.221  0.00  0.00    +0.000 C 
BRANCH  28  33
ATOM     33  N   UNL     1       0.613   4.235  20.638  0.00  0.00    +0.000 NA
ATOM     34  H   UNL     1       0.135   4.438  19.761  0.00  0.00    +0.000 HD
ATOM     35  H   UNL     1       1.428   4.845  20.671  0.00  0.00    +0.000 HD
ENDBRANCH  28  33
ENDBRANCH  27  31
ENDBRANCH  26  27
ENDBRANCH  25  26
ENDBRANCH  24  25
ENDBRANCH   1  24
TORSDOF 9
ENDMDL
MODEL 9
REMARK VINA RESULT:      -7.8      6.254      8.618
REMARK  Name = 
REMARK  9 active torsions:
REMARK  status: ('A' for Active; 'I' for Inactive)
REMARK    1  A    between atoms: N_1  and  C_2
REMARK    2  A    between atoms: N_5  and  C_6
REMARK    3  A    between atoms: C_6  and  C_7
REMARK    4  A    between atoms: C_7  and  C_8
REMARK    5  A    between atoms: C_8  and  O_9
REMARK    6  A    between atoms: O_9  and  C_10
REMARK    7  A    between atoms: C_13  and  C_14
REMARK    8  A    between atoms: C_19  and  O_20
REMARK    9  A    between atoms: O_20  and  C_21
REMARK                            x       y       z     vdW  Elec       q    Type
REMARK                         _______ _______ _______ _____ _____    ______ ____
ROOT
ATOM      1  C   UNL     1       6.372   4.934  17.356  0.00  0.00    +0.000 A 
ATOM      2  C   UNL     1       7.445   5.130  18.222  0.00  0.00    +0.000 A 
ATOM      3  C   UNL     1       7.979   6.406  18.404  0.00  0.00    +0.000 A 
ATOM      4  C   UNL     1       7.460   7.525  17.732  0.00  0.00    +0.000 A 
ATOM      5  C   UNL     1       6.405   7.322  16.836  0.00  0.00    +0.000 A 
ATOM      6  C   UNL     1       5.866   6.034  16.654  0.00  0.00    +0.000 A 
ENDROOT
BRANCH   4   7
ATOM      7  C   UNL     1       8.034   8.831  18.058  0.00  0.00    +0.000 A 
ATOM      8  N   UNL     1       7.836   9.959  17.401  0.00  0.00    +0.000 NA
ATOM      9  C   UNL     1       8.642  10.859  18.034  0.00  0.00    +0.000 A 
ATOM     10  C   UNL     1       8.858  12.213  17.765  0.00  0.00    +0.000 A 
ATOM     11  C   UNL     1       9.741  12.908  18.594  0.00  0.00    +0.000 A 
ATOM     12  C   UNL     1      10.393  12.274  19.662  0.00  0.00    +0.000 A 
ATOM     13  C   UNL     1      10.175  10.915  19.952  0.00  0.00    +0.000 A 
ATOM     14  C   UNL     1       9.294  10.255  19.095  0.00  0.00    +0.000 A 
ATOM     15  O   UNL     1       8.910   8.933  19.114  0.00  0.00    +0.000 OA
BRANCH  12  16
ATOM     16  O   UNL     1      11.137  13.127  20.447  0.00  0.00    +0.000 OA
BRANCH  16  17
ATOM     17  C   UNL     1      10.583  14.254  20.999  0.00  0.00    +0.000 A 
ATOM     18  C   UNL     1      10.917  15.563  20.649  0.00  0.00    +0.000 A 
ATOM     19  C   UNL     1      10.254  16.635  21.256  0.00  0.00    +0.000 A 
ATOM     20  C   UNL     1       9.241  16.394  22.183  0.00  0.00    +0.000 A 
ATOM     21 CL   UNL     1       8.432  17.715  22.930  0.00  0.00    +0.000 Cl
ATOM     22  C   UNL     1       8.871  15.090  22.500  0.00  0.00    +0.000 A 
ATOM     23  C   UNL     1       9.541  14.021  21.902  0.00  0.00    +0.000 A 
ENDBRANCH  16  17
ENDBRANCH  12  16
ENDBRANCH   4   7
BRANCH   1  24
ATOM     24  O   UNL     1       5.755   3.726  17.134  0.00  0.00    +0.000 OA
BRANCH  24  25
ATOM     25  C   UNL     1       4.320   3.764  17.140  0.00  0.00    +0.000 C 
BRANCH  25  26
ATOM     26  C   UNL     1       3.757   2.549  17.869  0.00  0.00    +0.000 C 
BRANCH  26  27
ATOM     27  C   UNL     1       2.235   2.433  17.697  0.00  0.00    +0.000 C 
BRANCH  27  31
ATOM     28  C   UNL     1       1.306   4.555  20.560  0.00  0.00    +0.000 C 
ATOM     29  C   UNL     1       1.385   3.171  21.194  0.00  0.00    +0.000 C 
ATOM     30  C   UNL     1       2.060   2.324  20.135  0.00  0.00    +0.000 C 
ATOM     31  N   UNL     1       1.463   2.817  18.888  0.00  0.00    +0.000 NA
ATOM     32  C   UNL     1       1.390   4.282  19.043  0.00  0.00    +0.000 C 
BRANCH  28  33
ATOM     33  N   UNL     1       2.407   5.408  21.024  0.00  0.00    +0.000 NA
ATOM     34  H   UNL     1       2.863   4.971  21.824  0.00  0.00    +0.000 HD
ATOM     35  H   UNL     1       2.034   6.297  21.354  0.00  0.00    +0.000 HD
ENDBRANCH  28  33
ENDBRANCH  27  31
ENDBRANCH  26  27
ENDBRANCH  25  26
ENDBRANCH  24  25
ENDBRANCH   1  24
TORSDOF 9
ENDMDL
