MODEL 1
REMARK VINA RESULT:      -7.3      0.000      0.000
REMARK  Name = 
REMARK  6 active torsions:
REMARK  status: ('A' for Active; 'I' for Inactive)
REMARK    1  A    between atoms: C_1  and  N_2
REMARK    2  A    between atoms: N_2  and  C_3
REMARK    3  A    between atoms: N_2  and  C_4
REMARK    4  A    between atoms: C_4  and  C_5
REMARK    5  A    between atoms: C_5  and  N_6
REMARK    6  A    between atoms: C_7  and  C_9
REMARK                            x       y       z     vdW  Elec       q    Type
REMARK                         _______ _______ _______ _____ _____    ______ ____
ROOT
ATOM      1  N   UNL     1       5.511   4.754  16.742  0.00  0.00    +0.000 N 
ATOM      2  C   UNL     1       6.791   4.694  16.236  0.00  0.00    +0.000 C 
ATOM      3  O   UNL     1       7.799   4.713  16.940  0.00  0.00    +0.000 OA
ATOM      4  H   UNL     1       4.731   4.618  16.103  0.00  0.00    +0.000 HD
ENDROOT
BRANCH   2   5
ATOM      5  C   UNL     1       6.901   4.612  14.739  0.00  0.00    +0.000 A 
ATOM      6  C   UNL     1       6.087   3.725  14.041  0.00  0.00    +0.000 A 
ATOM      7  C   UNL     1       6.239   3.632  12.659  0.00  0.00    +0.000 A 
ATOM      8  C   UNL     1       7.194   4.422  12.029  0.00  0.00    +0.000 A 
ATOM      9  C   UNL     1       7.956   5.286  12.807  0.00  0.00    +0.000 A 
ATOM     10  N   UNL     1       7.835   5.407  14.146  0.00  0.00    +0.000 NA
ENDBRANCH   2   5
BRANCH   1  11
ATOM     11  C   UNL     1       5.269   4.850  18.169  0.00  0.00    +0.000 C 
BRANCH  11  12
ATOM     12  C   UNL     1       3.926   4.188  18.667  0.00  0.00    +0.000 C 
ATOM     13  C   UNL     1       2.786   4.574  17.688  0.00  0.00    +0.000 C 
ATOM     14  C   UNL     1       2.402   6.007  18.040  0.00  0.00    +0.000 C 
ATOM     15  C   UNL     1       2.770   6.196  19.508  0.00  0.00    +0.000 C 
ATOM     16  C   UNL     1       3.482   4.920  19.958  0.00  0.00    +0.000 C 
BRANCH  12  18
ATOM     17  C   UNL     1       4.105   2.266  20.218  0.00  0.00    +0.000 C 
ATOM     18  N   UNL     1       4.090   2.707  18.816  0.00  0.00    +0.000 NA
ATOM     19  C   UNL     1       3.103   1.896  18.091  0.00  0.00    +0.000 C 
ENDBRANCH  12  18
ENDBRANCH  11  12
ENDBRANCH   1  11
TORSDOF 4
ENDMDL
MODEL 2
REMARK VINA RESULT:      -7.0      1.092      2.508
REMARK  Name = 
REMARK  6 active torsions:
REMARK  status: ('A' for Active; 'I' for Inactive)
REMARK    1  A    between atoms: C_1  and  N_2
REMARK    2  A    between atoms: N_2  and  C_3
REMARK    3  A    between atoms: N_2  and  C_4
REMARK    4  A    between atoms: C_4  and  C_5
REMARK    5  A    between atoms: C_5  and  N_6
REMARK    6  A    between atoms: C_7  and  C_9
REMARK                            x       y       z     vdW  Elec       q    Type
REMARK                         _______ _______ _______ _____ _____    ______ ____
ROOT
ATOM      1  N   UNL     1       5.971   4.169  16.825  0.00  0.00    +0.000 N 
ATOM      2  C   UNL     1       6.524   5.172  16.058  0.00  0.00    +0.000 C 
ATOM      3  O   UNL     1       6.832   6.274  16.505  0.00  0.00    +0.000 OA
ATOM      4  H   UNL     1       5.850   3.250  16.406  0.00  0.00    +0.000 HD
ENDROOT
BRANCH   2   5
ATOM      5  C   UNL     1       6.727   4.848  14.605  0.00  0.00    +0.000 A 
ATOM      6  C   UNL     1       5.918   3.893  13.996  0.00  0.00    +0.000 A 
ATOM      7  C   UNL     1       6.155   3.574  12.662  0.00  0.00    +0.000 A 
ATOM      8  C   UNL     1       7.188   4.214  11.986  0.00  0.00    +0.000 A 
ATOM      9  C   UNL     1       7.940   5.161  12.672  0.00  0.00    +0.000 A 
ATOM     10  N   UNL     1       7.737   5.500  13.964  0.00  0.00    +0.000 NA
ENDBRANCH   2   5
BRANCH   1  11
ATOM     11  C   UNL     1       5.709   4.360  18.239  0.00  0.00    +0.000 C 
BRANCH  11  12
ATOM     12  C   UNL     1       4.183   4.458  18.630  0.00  0.00    +0.000 C 
ATOM     13  C   UNL     1       3.904   3.478  19.800  0.00  0.00    +0.000 C 
ATOM     14  C   UNL     1       3.822   2.091  19.170  0.00  0.00    +0.000 C 
ATOM     15  C   UNL     1       3.392   2.308  17.723  0.00  0.00    +0.000 C 
ATOM     16  C   UNL     1       3.355   3.818  17.489  0.00  0.00    +0.000 C 
BRANCH  12  18
ATOM     17  C   UNL     1       3.569   6.692  17.758  0.00  0.00    +0.000 C 
ATOM     18  N   UNL     1       3.810   5.872  18.954  0.00  0.00    +0.000 NA
ATOM     19  C   UNL     1       2.658   6.021  19.852  0.00  0.00    +0.000 C 
ENDBRANCH  12  18
ENDBRANCH  11  12
ENDBRANCH   1  11
TORSDOF 4
ENDMDL
MODEL 3
REMARK VINA RESULT:      -6.8      1.301      2.617
REMARK  Name = 
REMARK  6 active torsions:
REMARK  status: ('A' for Active; 'I' for Inactive)
REMARK    1  A    between atoms: C_1  and  N_2
REMARK    2  A    between atoms: N_2  and  C_3
REMARK    3  A    between atoms: N_2  and  C_4
REMARK    4  A    between atoms: C_4  and  C_5
REMARK    5  A    between atoms: C_5  and  N_6
REMARK    6  A    between atoms: C_7  and  C_9
REMARK                            x       y       z     vdW  Elec       q    Type
REMARK                         _______ _______ _______ _____ _____    ______ ____
ROOT
ATOM      1  N   UNL     1       5.375   5.741  16.368  0.00  0.00    +0.000 N 
ATOM      2  C   UNL     1       6.566   5.133  16.036  0.00  0.00    +0.000 C 
ATOM      3  O   UNL     1       7.439   4.861  16.856  0.00  0.00    +0.000 OA
ATOM      4  H   UNL     1       4.659   5.829  15.650  0.00  0.00    +0.000 HD
ENDROOT
BRANCH   2   5
ATOM      5  C   UNL     1       6.757   4.820  14.578  0.00  0.00    +0.000 A 
ATOM      6  C   UNL     1       5.969   3.841  13.979  0.00  0.00    +0.000 A 
ATOM      7  C   UNL     1       6.196   3.534  12.640  0.00  0.00    +0.000 A 
ATOM      8  C   UNL     1       7.197   4.209  11.951  0.00  0.00    +0.000 A 
ATOM      9  C   UNL     1       7.929   5.177  12.628  0.00  0.00    +0.000 A 
ATOM     10  N   UNL     1       7.736   5.506  13.924  0.00  0.00    +0.000 NA
ENDBRANCH   2   5
BRANCH   1  11
ATOM     11  C   UNL     1       5.074   6.109  17.739  0.00  0.00    +0.000 C 
BRANCH  11  12
ATOM     12  C   UNL     1       3.709   5.550  18.298  0.00  0.00    +0.000 C 
ATOM     13  C   UNL     1       3.977   4.843  19.653  0.00  0.00    +0.000 C 
ATOM     14  C   UNL     1       4.579   3.486  19.303  0.00  0.00    +0.000 C 
ATOM     15  C   UNL     1       4.067   3.142  17.908  0.00  0.00    +0.000 C 
ATOM     16  C   UNL     1       3.282   4.356  17.409  0.00  0.00    +0.000 C 
BRANCH  12  18
ATOM     17  C   UNL     1       2.296   6.932  19.789  0.00  0.00    +0.000 C 
ATOM     18  N   UNL     1       2.691   6.644  18.403  0.00  0.00    +0.000 NA
ATOM     19  C   UNL     1       3.071   7.910  17.761  0.00  0.00    +0.000 C 
ENDBRANCH  12  18
ENDBRANCH  11  12
ENDBRANCH   1  11
TORSDOF 4
ENDMDL
MODEL 4
REMARK VINA RESULT:      -6.7      2.625      6.363
REMARK  Name = 
REMARK  6 active torsions:
REMARK  status: ('A' for Active; 'I' for Inactive)
REMARK    1  A    between atoms: C_1  and  N_2
REMARK    2  A    between atoms: N_2  and  C_3
REMARK    3  A    between atoms: N_2  and  C_4
REMARK    4  A    between atoms: C_4  and  C_5
REMARK    5  A    between atoms: C_5  and  N_6
REMARK    6  A    between atoms: C_7  and  C_9
REMARK                            x       y       z     vdW  Elec       q    Type
REMARK                         _______ _______ _______ _____ _____    ______ ____
ROOT
ATOM      1  N   UNL     1       4.488   5.654  18.375  0.00  0.00    +0.000 N 
ATOM      2  C   UNL     1       3.126   5.792  18.533  0.00  0.00    +0.000 C 
ATOM      3  O   UNL     1       2.480   6.723  18.057  0.00  0.00    +0.000 OA
ATOM      4  H   UNL     1       4.929   4.797  18.702  0.00  0.00    +0.000 HD
ENDROOT
BRANCH   2   5
ATOM      5  C   UNL     1       2.450   4.725  19.348  0.00  0.00    +0.000 A 
ATOM      6  C   UNL     1       1.545   3.864  18.733  0.00  0.00    +0.000 A 
ATOM      7  C   UNL     1       0.895   2.914  19.517  0.00  0.00    +0.000 A 
ATOM      8  C   UNL     1       1.167   2.860  20.879  0.00  0.00    +0.000 A 
ATOM      9  C   UNL     1       2.092   3.755  21.406  0.00  0.00    +0.000 A 
ATOM     10  N   UNL     1       2.745   4.686  20.677  0.00  0.00    +0.000 NA
ENDBRANCH   2   5
BRANCH   1  11
ATOM     11  C   UNL     1       5.261   6.625  17.622  0.00  0.00    +0.000 C 
BRANCH  11  12
ATOM     12  C   UNL     1       6.645   6.101  17.077  0.00  0.00    +0.000 C 
ATOM     13  C   UNL     1       7.198   5.036  18.061  0.00  0.00    +0.000 C 
ATOM     14  C   UNL     1       7.771   5.816  19.240  0.00  0.00    +0.000 C 
ATOM     15  C   UNL     1       8.156   7.187  18.693  0.00  0.00    +0.000 C 
ATOM     16  C   UNL     1       7.684   7.237  17.240  0.00  0.00    +0.000 C 
BRANCH  12  18
ATOM     17  C   UNL     1       6.706   4.131  15.579  0.00  0.00    +0.000 C 
ATOM     18  N   UNL     1       6.502   5.583  15.679  0.00  0.00    +0.000 NA
ATOM     19  C   UNL     1       5.231   5.914  15.020  0.00  0.00    +0.000 C 
ENDBRANCH  12  18
ENDBRANCH  11  12
ENDBRANCH   1  11
TORSDOF 4
ENDMDL
MODEL 5
REMARK VINA RESULT:      -6.7      0.806      1.129
REMARK  Name = 
REMARK  6 active torsions:
REMARK  status: ('A' for Active; 'I' for Inactive)
REMARK    1  A    between atoms: C_1  and  N_2
REMARK    2  A    between atoms: N_2  and  C_3
REMARK    3  A    between atoms: N_2  and  C_4
REMARK    4  A    between atoms: C_4  and  C_5
REMARK    5  A    between atoms: C_5  and  N_6
REMARK    6  A    between atoms: C_7  and  C_9
REMARK                            x       y       z     vdW  Elec       q    Type
REMARK                         _______ _______ _______ _____ _____    ______ ____
ROOT
ATOM      1  N   UNL     1       5.544   4.209  17.280  0.00  0.00    +0.000 N 
ATOM      2  C   UNL     1       5.971   5.255  16.491  0.00  0.00    +0.000 C 
ATOM      3  O   UNL     1       6.052   6.415  16.889  0.00  0.00    +0.000 OA
ATOM      4  H   UNL     1       5.614   3.263  16.911  0.00  0.00    +0.000 HD
ENDROOT
BRANCH   2   5
ATOM      5  C   UNL     1       6.333   4.902  15.076  0.00  0.00    +0.000 A 
ATOM      6  C   UNL     1       5.536   4.006  14.368  0.00  0.00    +0.000 A 
ATOM      7  C   UNL     1       5.916   3.657  13.075  0.00  0.00    +0.000 A 
ATOM      8  C   UNL     1       7.074   4.208  12.538  0.00  0.00    +0.000 A 
ATOM      9  C   UNL     1       7.804   5.101  13.315  0.00  0.00    +0.000 A 
ATOM     10  N   UNL     1       7.464   5.467  14.570  0.00  0.00    +0.000 NA
ENDBRANCH   2   5
BRANCH   1  11
ATOM     11  C   UNL     1       5.150   4.420  18.661  0.00  0.00    +0.000 C 
BRANCH  11  12
ATOM     12  C   UNL     1       3.645   4.078  18.988  0.00  0.00    +0.000 C 
ATOM     13  C   UNL     1       2.764   4.507  17.785  0.00  0.00    +0.000 C 
ATOM     14  C   UNL     1       2.616   6.020  17.897  0.00  0.00    +0.000 C 
ATOM     15  C   UNL     1       2.786   6.355  19.375  0.00  0.00    +0.000 C 
ATOM     16  C   UNL     1       3.161   5.055  20.087  0.00  0.00    +0.000 C 
BRANCH  12  18
ATOM     17  C   UNL     1       3.333   1.768  18.151  0.00  0.00    +0.000 C 
ATOM     18  N   UNL     1       3.495   2.628  19.333  0.00  0.00    +0.000 NA
ATOM     19  C   UNL     1       4.572   2.070  20.161  0.00  0.00    +0.000 C 
ENDBRANCH  12  18
ENDBRANCH  11  12
ENDBRANCH   1  11
TORSDOF 4
ENDMDL
MODEL 6
REMARK VINA RESULT:      -6.6      2.573      6.379
REMARK  Name = 
REMARK  6 active torsions:
REMARK  status: ('A' for Active; 'I' for Inactive)
REMARK    1  A    between atoms: C_1  and  N_2
REMARK    2  A    between atoms: N_2  and  C_3
REMARK    3  A    between atoms: N_2  and  C_4
REMARK    4  A    between atoms: C_4  and  C_5
REMARK    5  A    between atoms: C_5  and  N_6
REMARK    6  A    between atoms: C_7  and  C_9
REMARK                            x       y       z     vdW  Elec       q    Type
REMARK                         _______ _______ _______ _____ _____    ______ ____
ROOT
ATOM      1  N   UNL     1       4.459   5.669  18.335  0.00  0.00    +0.000 N 
ATOM      2  C   UNL     1       3.097   5.829  18.472  0.00  0.00    +0.000 C 
ATOM      3  O   UNL     1       2.475   6.777  18.000  0.00  0.00    +0.000 OA
ATOM      4  H   UNL     1       4.880   4.801  18.657  0.00  0.00    +0.000 HD
ENDROOT
BRANCH   2   5
ATOM      5  C   UNL     1       2.389   4.762  19.260  0.00  0.00    +0.000 A 
ATOM      6  C   UNL     1       2.540   4.719  20.643  0.00  0.00    +0.000 A 
ATOM      7  C   UNL     1       1.913   3.694  21.347  0.00  0.00    +0.000 A 
ATOM      8  C   UNL     1       1.166   2.752  20.649  0.00  0.00    +0.000 A 
ATOM      9  C   UNL     1       1.064   2.879  19.269  0.00  0.00    +0.000 A 
ATOM     10  N   UNL     1       1.652   3.861  18.552  0.00  0.00    +0.000 NA
ENDBRANCH   2   5
BRANCH   1  11
ATOM     11  C   UNL     1       5.261   6.638  17.611  0.00  0.00    +0.000 C 
BRANCH  11  12
ATOM     12  C   UNL     1       6.645   6.097  17.079  0.00  0.00    +0.000 C 
ATOM     13  C   UNL     1       7.177   5.029  18.069  0.00  0.00    +0.000 C 
ATOM     14  C   UNL     1       7.748   5.805  19.251  0.00  0.00    +0.000 C 
ATOM     15  C   UNL     1       8.153   7.170  18.706  0.00  0.00    +0.000 C 
ATOM     16  C   UNL     1       7.694   7.223  17.248  0.00  0.00    +0.000 C 
BRANCH  12  18
ATOM     17  C   UNL     1       6.707   4.126  15.582  0.00  0.00    +0.000 C 
ATOM     18  N   UNL     1       6.508   5.579  15.680  0.00  0.00    +0.000 NA
ATOM     19  C   UNL     1       5.243   5.914  15.013  0.00  0.00    +0.000 C 
ENDBRANCH  12  18
ENDBRANCH  11  12
ENDBRANCH   1  11
TORSDOF 4
ENDMDL
MODEL 7
REMARK VINA RESULT:      -6.6      1.858      3.078
REMARK  Name = 
REMARK  6 active torsions:
REMARK  status: ('A' for Active; 'I' for Inactive)
REMARK    1  A    between atoms: C_1  and  N_2
REMARK    2  A    between atoms: N_2  and  C_3
REMARK    3  A    between atoms: N_2  and  C_4
REMARK    4  A    between atoms: C_4  and  C_5
REMARK    5  A    between atoms: C_5  and  N_6
REMARK    6  A    between atoms: C_7  and  C_9
REMARK                            x       y       z     vdW  Elec       q    Type
REMARK                         _______ _______ _______ _____ _____    ______ ____
ROOT
ATOM      1  N   UNL     1       4.382   4.274  18.153  0.00  0.00    +0.000 N 
ATOM      2  C   UNL     1       5.722   4.433  17.876  0.00  0.00    +0.000 C 
ATOM      3  O   UNL     1       6.588   4.519  18.744  0.00  0.00    +0.000 OA
ATOM      4  H   UNL     1       3.745   4.097  17.379  0.00  0.00    +0.000 HD
ENDROOT
BRANCH   2   5
ATOM      5  C   UNL     1       6.085   4.509  16.419  0.00  0.00    +0.000 A 
ATOM      6  C   UNL     1       5.176   4.065  15.463  0.00  0.00    +0.000 A 
ATOM      7  C   UNL     1       5.551   4.101  14.123  0.00  0.00    +0.000 A 
ATOM      8  C   UNL     1       6.815   4.573  13.786  0.00  0.00    +0.000 A 
ATOM      9  C   UNL     1       7.654   5.003  14.808  0.00  0.00    +0.000 A 
ATOM     10  N   UNL     1       7.324   4.988  16.117  0.00  0.00    +0.000 NA
ENDBRANCH   2   5
BRANCH   1  11
ATOM     11  C   UNL     1       3.899   4.202  19.519  0.00  0.00    +0.000 C 
BRANCH  11  12
ATOM     12  C   UNL     1       2.495   4.876  19.770  0.00  0.00    +0.000 C 
ATOM     13  C   UNL     1       1.907   4.327  21.096  0.00  0.00    +0.000 C 
ATOM     14  C   UNL     1       1.366   2.939  20.769  0.00  0.00    +0.000 C 
ATOM     15  C   UNL     1       1.029   2.955  19.282  0.00  0.00    +0.000 C 
ATOM     16  C   UNL     1       1.498   4.303  18.733  0.00  0.00    +0.000 C 
BRANCH  12  18
ATOM     17  C   UNL     1       2.481   6.949  18.416  0.00  0.00    +0.000 C 
ATOM     18  N   UNL     1       2.615   6.369  19.760  0.00  0.00    +0.000 NA
ATOM     19  C   UNL     1       1.691   7.074  20.658  0.00  0.00    +0.000 C 
ENDBRANCH  12  18
ENDBRANCH  11  12
ENDBRANCH   1  11
TORSDOF 4
ENDMDL
MODEL 8
REMARK VINA RESULT:      -6.5      1.012      1.171
REMARK  Name = 
REMARK  6 active torsions:
REMARK  status: ('A' for Active; 'I' for Inactive)
REMARK    1  A    between atoms: C_1  and  N_2
REMARK    2  A    between atoms: N_2  and  C_3
REMARK    3  A    between atoms: N_2  and  C_4
REMARK    4  A    between atoms: C_4  and  C_5
REMARK    5  A    between atoms: C_5  and  N_6
REMARK    6  A    between atoms: C_7  and  C_9
REMARK                            x       y       z     vdW  Elec       q    Type
REMARK                         _______ _______ _______ _____ _____    ______ ____
ROOT
ATOM      1  N   UNL     1       5.158   4.455  17.588  0.00  0.00    +0.000 N 
ATOM      2  C   UNL     1       6.452   4.469  17.114  0.00  0.00    +0.000 C 
ATOM      3  O   UNL     1       7.440   4.470  17.844  0.00  0.00    +0.000 OA
ATOM      4  H   UNL     1       4.399   4.340  16.920  0.00  0.00    +0.000 HD
ENDROOT
BRANCH   2   5
ATOM      5  C   UNL     1       6.602   4.496  15.619  0.00  0.00    +0.000 A 
ATOM      6  C   UNL     1       5.765   3.708  14.833  0.00  0.00    +0.000 A 
ATOM      7  C   UNL     1       5.953   3.712  13.453  0.00  0.00    +0.000 A 
ATOM      8  C   UNL     1       6.965   4.495  12.910  0.00  0.00    +0.000 A 
ATOM      9  C   UNL     1       7.747   5.257  13.771  0.00  0.00    +0.000 A 
ATOM     10  N   UNL     1       7.592   5.283  15.113  0.00  0.00    +0.000 NA
ENDBRANCH   2   5
BRANCH   1  11
ATOM     11  C   UNL     1       4.877   4.445  19.011  0.00  0.00    +0.000 C 
BRANCH  11  12
ATOM     12  C   UNL     1       3.368   4.192  19.394  0.00  0.00    +0.000 C 
ATOM     13  C   UNL     1       2.488   4.428  18.138  0.00  0.00    +0.000 C 
ATOM     14  C   UNL     1       2.369   5.941  17.991  0.00  0.00    +0.000 C 
ATOM     15  C   UNL     1       2.553   6.519  19.390  0.00  0.00    +0.000 C 
ATOM     16  C   UNL     1       2.907   5.351  20.312  0.00  0.00    +0.000 C 
BRANCH  12  18
ATOM     17  C   UNL     1       4.455   2.084  20.103  0.00  0.00    +0.000 C 
ATOM     18  N   UNL     1       3.192   2.826  19.980  0.00  0.00    +0.000 NA
ATOM     19  C   UNL     1       2.511   2.790  21.282  0.00  0.00    +0.000 C 
ENDBRANCH  12  18
ENDBRANCH  11  12
ENDBRANCH   1  11
TORSDOF 4
ENDMDL
MODEL 9
REMARK VINA RESULT:      -6.5      1.891      6.169
REMARK  Name = 
REMARK  6 active torsions:
REMARK  status: ('A' for Active; 'I' for Inactive)
REMARK    1  A    between atoms: C_1  and  N_2
REMARK    2  A    between atoms: N_2  and  C_3
REMARK    3  A    between atoms: N_2  and  C_4
REMARK    4  A    between atoms: C_4  and  C_5
REMARK    5  A    between atoms: C_5  and  N_6
REMARK    6  A    between atoms: C_7  and  C_9
REMARK                            x       y       z     vdW  Elec       q    Type
REMARK                         _______ _______ _______ _____ _____    ______ ____
ROOT
ATOM      1  N   UNL     1       5.095   3.713  17.333  0.00  0.00    +0.000 N 
ATOM      2  C   UNL     1       4.824   3.788  18.682  0.00  0.00    +0.000 C 
ATOM      3  O   UNL     1       5.645   4.157  19.518  0.00  0.00    +0.000 OA
ATOM      4  H   UNL     1       4.329   3.507  16.696  0.00  0.00    +0.000 HD
ENDROOT
BRANCH   2   5
ATOM      5  C   UNL     1       3.440   3.372  19.096  0.00  0.00    +0.000 A 
ATOM      6  C   UNL     1       2.425   3.331  18.145  0.00  0.00    +0.000 A 
ATOM      7  C   UNL     1       1.140   2.989  18.560  0.00  0.00    +0.000 A 
ATOM      8  C   UNL     1       0.916   2.705  19.902  0.00  0.00    +0.000 A 
ATOM      9  C   UNL     1       1.992   2.762  20.780  0.00  0.00    +0.000 A 
ATOM     10  N   UNL     1       3.252   3.085  20.414  0.00  0.00    +0.000 NA
ENDBRANCH   2   5
BRANCH   1  11
ATOM     11  C   UNL     1       6.398   4.071  16.806  0.00  0.00    +0.000 C 
BRANCH  11  12
ATOM     12  C   UNL     1       6.407   5.304  15.821  0.00  0.00    +0.000 C 
ATOM     13  C   UNL     1       5.101   5.283  14.983  0.00  0.00    +0.000 C 
ATOM     14  C   UNL     1       5.311   4.217  13.913  0.00  0.00    +0.000 C 
ATOM     15  C   UNL     1       6.818   4.124  13.696  0.00  0.00    +0.000 C 
ATOM     16  C   UNL     1       7.474   5.038  14.732  0.00  0.00    +0.000 C 
BRANCH  12  18
ATOM     17  C   UNL     1       5.328   7.161  17.053  0.00  0.00    +0.000 C 
ATOM     18  N   UNL     1       6.593   6.584  16.577  0.00  0.00    +0.000 NA
ATOM     19  C   UNL     1       7.519   6.505  17.715  0.00  0.00    +0.000 C 
ENDBRANCH  12  18
ENDBRANCH  11  12
ENDBRANCH   1  11
TORSDOF 4
ENDMDL
