MODEL 1
REMARK VINA RESULT:      -6.6      0.000      0.000
REMARK  Name = 
REMARK  7 active torsions:
REMARK  status: ('A' for Active; 'I' for Inactive)
REMARK    1  A    between atoms: C_1  and  O_2
REMARK    2  A    between atoms: O_2  and  C_3
REMARK    3  A    between atoms: C_5  and  C_6
REMARK    4  A    between atoms: C_15  and  O_16
REMARK    5  A    between atoms: O_16  and  C_17
REMARK    6  A    between atoms: C_18  and  O_19
REMARK    7  A    between atoms: O_19  and  C_20
REMARK                            x       y       z     vdW  Elec       q    Type
REMARK                         _______ _______ _______ _____ _____    ______ ____
ROOT
ATOM      1  C   UNL     1       5.208   6.346  16.909  0.00  0.00    +0.000 A 
ATOM      2  C   UNL     1       4.281   7.300  17.361  0.00  0.00    +0.000 A 
ATOM      3  C   UNL     1       3.078   6.912  17.946  0.00  0.00    +0.000 A 
ATOM      4  C   UNL     1       2.749   5.563  17.995  0.00  0.00    +0.000 A 
ATOM      5  C   UNL     1       3.619   4.594  17.459  0.00  0.00    +0.000 A 
ATOM      6  C   UNL     1       4.865   4.976  16.899  0.00  0.00    +0.000 A 
ENDROOT
BRANCH   3   7
ATOM      7  C   UNL     1       2.200   7.978  18.486  0.00  0.00    +0.000 C 
ATOM      8  O   UNL     1       1.962   8.943  17.772  0.00  0.00    +0.000 OA
ATOM      9  N   UNL     1       1.854   7.830  19.818  0.00  0.00    +0.000 N 
ATOM     10  C   UNL     1       1.164   8.697  20.617  0.00  0.00    +0.000 C 
ATOM     11  N   UNL     1       1.282   8.597  21.896  0.00  0.00    +0.000 NA
ATOM     12  C   UNL     1       0.461   9.646  22.548  0.00  0.00    +0.000 C 
ATOM     13  C   UNL     1       0.132  10.760  21.564  0.00  0.00    +0.000 C 
ATOM     14  S   UNL     1       0.122   9.919  19.978  0.00  0.00    +0.000 S 
ATOM     15  H   UNL     1       2.330   7.117  20.354  0.00  0.00    +0.000 HD
ENDBRANCH   3   7
BRANCH   1  17
ATOM     16  C   UNL     1       7.410   6.993  17.493  0.00  0.00    +0.000 C 
ATOM     17  O   UNL     1       6.442   6.746  16.466  0.00  0.00    +0.000 OA
ENDBRANCH   1  17
BRANCH   5  18
ATOM     18  O   UNL     1       3.099   3.328  17.591  0.00  0.00    +0.000 OA
ATOM     19  C   UNL     1       1.826   3.148  18.198  0.00  0.00    +0.000 C 
ENDBRANCH   5  18
BRANCH   6  20
ATOM     20  O   UNL     1       5.632   3.960  16.400  0.00  0.00    +0.000 OA
ATOM     21  C   UNL     1       5.947   3.864  15.022  0.00  0.00    +0.000 C 
ENDBRANCH   6  20
TORSDOF 4
ENDMDL
MODEL 2
REMARK VINA RESULT:      -6.6      4.229      5.351
REMARK  Name = 
REMARK  7 active torsions:
REMARK  status: ('A' for Active; 'I' for Inactive)
REMARK    1  A    between atoms: C_1  and  O_2
REMARK    2  A    between atoms: O_2  and  C_3
REMARK    3  A    between atoms: C_5  and  C_6
REMARK    4  A    between atoms: C_15  and  O_16
REMARK    5  A    between atoms: O_16  and  C_17
REMARK    6  A    between atoms: C_18  and  O_19
REMARK    7  A    between atoms: O_19  and  C_20
REMARK                            x       y       z     vdW  Elec       q    Type
REMARK                         _______ _______ _______ _____ _____    ______ ____
ROOT
ATOM      1  C   UNL     1       6.205   3.958  14.292  0.00  0.00    +0.000 A 
ATOM      2  C   UNL     1       5.178   3.501  15.134  0.00  0.00    +0.000 A 
ATOM      3  C   UNL     1       4.911   4.129  16.348  0.00  0.00    +0.000 A 
ATOM      4  C   UNL     1       5.736   5.163  16.775  0.00  0.00    +0.000 A 
ATOM      5  C   UNL     1       6.833   5.573  15.993  0.00  0.00    +0.000 A 
ATOM      6  C   UNL     1       7.087   4.967  14.736  0.00  0.00    +0.000 A 
ENDROOT
BRANCH   3   7
ATOM      7  C   UNL     1       3.748   3.648  17.132  0.00  0.00    +0.000 C 
ATOM      8  O   UNL     1       2.666   3.568  16.564  0.00  0.00    +0.000 OA
ATOM      9  N   UNL     1       3.986   3.475  18.484  0.00  0.00    +0.000 N 
ATOM     10  C   UNL     1       3.094   3.160  19.469  0.00  0.00    +0.000 C 
ATOM     11  N   UNL     1       3.392   3.435  20.693  0.00  0.00    +0.000 NA
ATOM     12  C   UNL     1       2.273   3.020  21.574  0.00  0.00    +0.000 C 
ATOM     13  C   UNL     1       0.990   2.853  20.772  0.00  0.00    +0.000 C 
ATOM     14  S   UNL     1       1.582   2.391  19.142  0.00  0.00    +0.000 S 
ATOM     15  H   UNL     1       4.858   3.822  18.859  0.00  0.00    +0.000 HD
ENDBRANCH   3   7
BRANCH   1  17
ATOM     16  C   UNL     1       5.172   3.377  12.242  0.00  0.00    +0.000 C 
ATOM     17  O   UNL     1       6.359   3.415  13.043  0.00  0.00    +0.000 OA
ENDBRANCH   1  17
BRANCH   5  18
ATOM     18  O   UNL     1       7.528   6.591  16.602  0.00  0.00    +0.000 OA
ATOM     19  C   UNL     1       7.538   6.688  18.021  0.00  0.00    +0.000 C 
ENDBRANCH   5  18
BRANCH   6  20
ATOM     20  O   UNL     1       8.180   5.433  14.059  0.00  0.00    +0.000 OA
ATOM     21  C   UNL     1       8.126   5.755  12.680  0.00  0.00    +0.000 C 
ENDBRANCH   6  20
TORSDOF 4
ENDMDL
MODEL 3
REMARK VINA RESULT:      -6.5      0.429      2.830
REMARK  Name = 
REMARK  7 active torsions:
REMARK  status: ('A' for Active; 'I' for Inactive)
REMARK    1  A    between atoms: C_1  and  O_2
REMARK    2  A    between atoms: O_2  and  C_3
REMARK    3  A    between atoms: C_5  and  C_6
REMARK    4  A    between atoms: C_15  and  O_16
REMARK    5  A    between atoms: O_16  and  C_17
REMARK    6  A    between atoms: C_18  and  O_19
REMARK    7  A    between atoms: O_19  and  C_20
REMARK                            x       y       z     vdW  Elec       q    Type
REMARK                         _______ _______ _______ _____ _____    ______ ____
ROOT
ATOM      1  C   UNL     1       3.670   4.686  17.361  0.00  0.00    +0.000 A 
ATOM      2  C   UNL     1       2.868   5.714  17.885  0.00  0.00    +0.000 A 
ATOM      3  C   UNL     1       3.288   7.041  17.849  0.00  0.00    +0.000 A 
ATOM      4  C   UNL     1       4.560   7.340  17.375  0.00  0.00    +0.000 A 
ATOM      5  C   UNL     1       5.420   6.314  16.937  0.00  0.00    +0.000 A 
ATOM      6  C   UNL     1       4.985   4.964  16.931  0.00  0.00    +0.000 A 
ENDROOT
BRANCH   3   7
ATOM      7  C   UNL     1       2.342   8.077  18.331  0.00  0.00    +0.000 C 
ATOM      8  O   UNL     1       2.094   9.018  17.590  0.00  0.00    +0.000 OA
ATOM      9  N   UNL     1       1.946   7.936  19.649  0.00  0.00    +0.000 N 
ATOM     10  C   UNL     1       1.185   8.785  20.402  0.00  0.00    +0.000 C 
ATOM     11  N   UNL     1       1.252   8.712  21.687  0.00  0.00    +0.000 NA
ATOM     12  C   UNL     1       0.359   9.735  22.283  0.00  0.00    +0.000 C 
ATOM     13  C   UNL     1       0.026  10.817  21.266  0.00  0.00    +0.000 C 
ATOM     14  S   UNL     1       0.120   9.950  19.697  0.00  0.00    +0.000 S 
ATOM     15  H   UNL     1       2.428   7.254  20.218  0.00  0.00    +0.000 HD
ENDBRANCH   3   7
BRANCH   1  17
ATOM     16  C   UNL     1       3.275   2.639  18.486  0.00  0.00    +0.000 C 
ATOM     17  O   UNL     1       3.179   3.408  17.281  0.00  0.00    +0.000 OA
ENDBRANCH   1  17
BRANCH   5  18
ATOM     18  O   UNL     1       6.632   6.819  16.529  0.00  0.00    +0.000 OA
ATOM     19  C   UNL     1       7.536   7.347  17.491  0.00  0.00    +0.000 C 
ENDBRANCH   5  18
BRANCH   6  20
ATOM     20  O   UNL     1       5.898   4.045  16.493  0.00  0.00    +0.000 OA
ATOM     21  C   UNL     1       6.109   3.797  15.114  0.00  0.00    +0.000 C 
ENDBRANCH   6  20
TORSDOF 4
ENDMDL
MODEL 4
REMARK VINA RESULT:      -6.5      1.581      1.776
REMARK  Name = 
REMARK  7 active torsions:
REMARK  status: ('A' for Active; 'I' for Inactive)
REMARK    1  A    between atoms: C_1  and  O_2
REMARK    2  A    between atoms: O_2  and  C_3
REMARK    3  A    between atoms: C_5  and  C_6
REMARK    4  A    between atoms: C_15  and  O_16
REMARK    5  A    between atoms: O_16  and  C_17
REMARK    6  A    between atoms: C_18  and  O_19
REMARK    7  A    between atoms: O_19  and  C_20
REMARK                            x       y       z     vdW  Elec       q    Type
REMARK                         _______ _______ _______ _____ _____    ______ ____
ROOT
ATOM      1  C   UNL     1       5.433   6.058  16.888  0.00  0.00    +0.000 A 
ATOM      2  C   UNL     1       4.497   6.822  17.605  0.00  0.00    +0.000 A 
ATOM      3  C   UNL     1       3.399   6.222  18.217  0.00  0.00    +0.000 A 
ATOM      4  C   UNL     1       3.174   4.863  18.032  0.00  0.00    +0.000 A 
ATOM      5  C   UNL     1       4.045   4.096  17.234  0.00  0.00    +0.000 A 
ATOM      6  C   UNL     1       5.189   4.690  16.642  0.00  0.00    +0.000 A 
ENDROOT
BRANCH   3   7
ATOM      7  C   UNL     1       2.513   7.083  19.038  0.00  0.00    +0.000 C 
ATOM      8  O   UNL     1       2.059   6.616  20.074  0.00  0.00    +0.000 OA
ATOM      9  N   UNL     1       2.176   8.294  18.459  0.00  0.00    +0.000 N 
ATOM     10  C   UNL     1       1.295   9.235  18.913  0.00  0.00    +0.000 C 
ATOM     11  N   UNL     1       0.803  10.084  18.077  0.00  0.00    +0.000 NA
ATOM     12  C   UNL     1      -0.132  10.988  18.791  0.00  0.00    +0.000 C 
ATOM     13  C   UNL     1      -0.573  10.371  20.111  0.00  0.00    +0.000 C 
ATOM     14  S   UNL     1       0.824   9.343  20.572  0.00  0.00    +0.000 S 
ATOM     15  H   UNL     1       2.420   8.439  17.489  0.00  0.00    +0.000 HD
ENDBRANCH   3   7
BRANCH   1  17
ATOM     16  C   UNL     1       7.435   7.208  17.415  0.00  0.00    +0.000 C 
ATOM     17  O   UNL     1       6.577   6.646  16.414  0.00  0.00    +0.000 OA
ENDBRANCH   1  17
BRANCH   5  18
ATOM     18  O   UNL     1       3.634   2.786  17.165  0.00  0.00    +0.000 OA
ATOM     19  C   UNL     1       3.587   1.997  18.347  0.00  0.00    +0.000 C 
ENDBRANCH   5  18
BRANCH   6  20
ATOM     20  O   UNL     1       5.966   3.860  15.881  0.00  0.00    +0.000 OA
ATOM     21  C   UNL     1       5.985   3.938  14.467  0.00  0.00    +0.000 C 
ENDBRANCH   6  20
TORSDOF 4
ENDMDL
MODEL 5
REMARK VINA RESULT:      -6.5      4.281      5.037
REMARK  Name = 
REMARK  7 active torsions:
REMARK  status: ('A' for Active; 'I' for Inactive)
REMARK    1  A    between atoms: C_1  and  O_2
REMARK    2  A    between atoms: O_2  and  C_3
REMARK    3  A    between atoms: C_5  and  C_6
REMARK    4  A    between atoms: C_15  and  O_16
REMARK    5  A    between atoms: O_16  and  C_17
REMARK    6  A    between atoms: C_18  and  O_19
REMARK    7  A    between atoms: O_19  and  C_20
REMARK                            x       y       z     vdW  Elec       q    Type
REMARK                         _______ _______ _______ _____ _____    ______ ____
ROOT
ATOM      1  C   UNL     1       6.797   5.578  16.102  0.00  0.00    +0.000 A 
ATOM      2  C   UNL     1       5.635   5.155  16.768  0.00  0.00    +0.000 A 
ATOM      3  C   UNL     1       4.858   4.114  16.265  0.00  0.00    +0.000 A 
ATOM      4  C   UNL     1       5.186   3.550  15.038  0.00  0.00    +0.000 A 
ATOM      5  C   UNL     1       6.291   4.025  14.306  0.00  0.00    +0.000 A 
ATOM      6  C   UNL     1       7.112   5.057  14.828  0.00  0.00    +0.000 A 
ENDROOT
BRANCH   3   7
ATOM      7  C   UNL     1       3.703   3.662  17.078  0.00  0.00    +0.000 C 
ATOM      8  O   UNL     1       2.588   3.722  16.576  0.00  0.00    +0.000 OA
ATOM      9  N   UNL     1       4.001   3.351  18.393  0.00  0.00    +0.000 N 
ATOM     10  C   UNL     1       3.141   3.023  19.403  0.00  0.00    +0.000 C 
ATOM     11  N   UNL     1       3.530   3.163  20.624  0.00  0.00    +0.000 NA
ATOM     12  C   UNL     1       2.430   2.764  21.537  0.00  0.00    +0.000 C 
ATOM     13  C   UNL     1       1.095   2.775  20.807  0.00  0.00    +0.000 C 
ATOM     14  S   UNL     1       1.552   2.413  19.109  0.00  0.00    +0.000 S 
ATOM     15  H   UNL     1       4.920   3.590  18.740  0.00  0.00    +0.000 HD
ENDBRANCH   3   7
BRANCH   1  17
ATOM     16  C   UNL     1       7.542   6.583  18.113  0.00  0.00    +0.000 C 
ATOM     17  O   UNL     1       7.620   6.507  16.684  0.00  0.00    +0.000 OA
ENDBRANCH   1  17
BRANCH   5  18
ATOM     18  O   UNL     1       6.429   3.349  13.116  0.00  0.00    +0.000 OA
ATOM     19  C   UNL     1       5.324   3.251  12.227  0.00  0.00    +0.000 C 
ENDBRANCH   5  18
BRANCH   6  20
ATOM     20  O   UNL     1       8.155   5.449  14.035  0.00  0.00    +0.000 OA
ATOM     21  C   UNL     1       7.980   5.757  12.664  0.00  0.00    +0.000 C 
ENDBRANCH   6  20
TORSDOF 4
ENDMDL
MODEL 6
REMARK VINA RESULT:      -6.4      2.156      3.833
REMARK  Name = 
REMARK  7 active torsions:
REMARK  status: ('A' for Active; 'I' for Inactive)
REMARK    1  A    between atoms: C_1  and  O_2
REMARK    2  A    between atoms: O_2  and  C_3
REMARK    3  A    between atoms: C_5  and  C_6
REMARK    4  A    between atoms: C_15  and  O_16
REMARK    5  A    between atoms: O_16  and  C_17
REMARK    6  A    between atoms: C_18  and  O_19
REMARK    7  A    between atoms: O_19  and  C_20
REMARK                            x       y       z     vdW  Elec       q    Type
REMARK                         _______ _______ _______ _____ _____    ______ ____
ROOT
ATOM      1  C   UNL     1       2.553   3.485  19.818  0.00  0.00    +0.000 A 
ATOM      2  C   UNL     1       2.078   4.805  19.872  0.00  0.00    +0.000 A 
ATOM      3  C   UNL     1       2.907   5.881  19.564  0.00  0.00    +0.000 A 
ATOM      4  C   UNL     1       4.251   5.648  19.293  0.00  0.00    +0.000 A 
ATOM      5  C   UNL     1       4.772   4.341  19.329  0.00  0.00    +0.000 A 
ATOM      6  C   UNL     1       3.926   3.236  19.602  0.00  0.00    +0.000 A 
ENDROOT
BRANCH   3   7
ATOM      7  C   UNL     1       2.303   7.235  19.548  0.00  0.00    +0.000 C 
ATOM      8  O   UNL     1       2.581   7.977  18.616  0.00  0.00    +0.000 OA
ATOM      9  N   UNL     1       1.590   7.569  20.686  0.00  0.00    +0.000 N 
ATOM     10  C   UNL     1       1.026   8.769  21.013  0.00  0.00    +0.000 C 
ATOM     11  N   UNL     1       0.765   9.022  22.249  0.00  0.00    +0.000 NA
ATOM     12  C   UNL     1       0.178  10.380  22.359  0.00  0.00    +0.000 C 
ATOM     13  C   UNL     1       0.491  11.203  21.117  0.00  0.00    +0.000 C 
ATOM     14  S   UNL     1       0.633   9.963  19.827  0.00  0.00    +0.000 S 
ATOM     15  H   UNL     1       1.657   6.952  21.484  0.00  0.00    +0.000 HD
ENDBRANCH   3   7
BRANCH   1  17
ATOM     16  C   UNL     1       0.795   2.197  18.893  0.00  0.00    +0.000 C 
ATOM     17  O   UNL     1       1.686   2.437  19.989  0.00  0.00    +0.000 OA
ENDBRANCH   1  17
BRANCH   5  18
ATOM     18  O   UNL     1       6.119   4.333  19.053  0.00  0.00    +0.000 OA
ATOM     19  C   UNL     1       6.855   5.548  19.092  0.00  0.00    +0.000 C 
ENDBRANCH   5  18
BRANCH   6  20
ATOM     20  O   UNL     1       4.532   2.010  19.621  0.00  0.00    +0.000 OA
ATOM     21  C   UNL     1       5.031   1.438  20.817  0.00  0.00    +0.000 C 
ENDBRANCH   6  20
TORSDOF 4
ENDMDL
MODEL 7
REMARK VINA RESULT:      -6.3      1.491      3.257
REMARK  Name = 
REMARK  7 active torsions:
REMARK  status: ('A' for Active; 'I' for Inactive)
REMARK    1  A    between atoms: C_1  and  O_2
REMARK    2  A    between atoms: O_2  and  C_3
REMARK    3  A    between atoms: C_5  and  C_6
REMARK    4  A    between atoms: C_15  and  O_16
REMARK    5  A    between atoms: O_16  and  C_17
REMARK    6  A    between atoms: C_18  and  O_19
REMARK    7  A    between atoms: O_19  and  C_20
REMARK                            x       y       z     vdW  Elec       q    Type
REMARK                         _______ _______ _______ _____ _____    ______ ____
ROOT
ATOM      1  C   UNL     1       3.632   4.145  17.379  0.00  0.00    +0.000 A 
ATOM      2  C   UNL     1       2.909   4.993  18.233  0.00  0.00    +0.000 A 
ATOM      3  C   UNL     1       3.255   6.335  18.374  0.00  0.00    +0.000 A 
ATOM      4  C   UNL     1       4.391   6.816  17.734  0.00  0.00    +0.000 A 
ATOM      5  C   UNL     1       5.187   5.959  16.950  0.00  0.00    +0.000 A 
ATOM      6  C   UNL     1       4.819   4.601  16.767  0.00  0.00    +0.000 A 
ENDROOT
BRANCH   3   7
ATOM      7  C   UNL     1       2.383   7.187  19.219  0.00  0.00    +0.000 C 
ATOM      8  O   UNL     1       1.914   6.697  20.238  0.00  0.00    +0.000 OA
ATOM      9  N   UNL     1       2.073   8.421  18.677  0.00  0.00    +0.000 N 
ATOM     10  C   UNL     1       1.209   9.366  19.156  0.00  0.00    +0.000 C 
ATOM     11  N   UNL     1       0.738  10.250  18.346  0.00  0.00    +0.000 NA
ATOM     12  C   UNL     1      -0.183  11.150  19.084  0.00  0.00    +0.000 C 
ATOM     13  C   UNL     1      -0.642  10.501  20.381  0.00  0.00    +0.000 C 
ATOM     14  S   UNL     1       0.732   9.430  20.815  0.00  0.00    +0.000 S 
ATOM     15  H   UNL     1       2.324   8.592  17.713  0.00  0.00    +0.000 HD
ENDBRANCH   3   7
BRANCH   1  17
ATOM     16  C   UNL     1       3.428   1.937  18.212  0.00  0.00    +0.000 C 
ATOM     17  O   UNL     1       3.190   2.867  17.148  0.00  0.00    +0.000 OA
ENDBRANCH   1  17
BRANCH   5  18
ATOM     18  O   UNL     1       6.269   6.625  16.424  0.00  0.00    +0.000 OA
ATOM     19  C   UNL     1       7.393   6.909  17.248  0.00  0.00    +0.000 C 
ENDBRANCH   5  18
BRANCH   6  20
ATOM     20  O   UNL     1       5.663   3.853  15.994  0.00  0.00    +0.000 OA
ATOM     21  C   UNL     1       5.769   4.047  14.595  0.00  0.00    +0.000 C 
ENDBRANCH   6  20
TORSDOF 4
ENDMDL
MODEL 8
REMARK VINA RESULT:      -6.3      1.715      3.340
REMARK  Name = 
REMARK  7 active torsions:
REMARK  status: ('A' for Active; 'I' for Inactive)
REMARK    1  A    between atoms: C_1  and  O_2
REMARK    2  A    between atoms: O_2  and  C_3
REMARK    3  A    between atoms: C_5  and  C_6
REMARK    4  A    between atoms: C_15  and  O_16
REMARK    5  A    between atoms: O_16  and  C_17
REMARK    6  A    between atoms: C_18  and  O_19
REMARK    7  A    between atoms: O_19  and  C_20
REMARK                            x       y       z     vdW  Elec       q    Type
REMARK                         _______ _______ _______ _____ _____    ______ ____
ROOT
ATOM      1  C   UNL     1       2.872   4.722  19.915  0.00  0.00    +0.000 A 
ATOM      2  C   UNL     1       2.434   6.051  19.789  0.00  0.00    +0.000 A 
ATOM      3  C   UNL     1       2.691   6.786  18.634  0.00  0.00    +0.000 A 
ATOM      4  C   UNL     1       3.475   6.227  17.632  0.00  0.00    +0.000 A 
ATOM      5  C   UNL     1       4.007   4.931  17.779  0.00  0.00    +0.000 A 
ATOM      6  C   UNL     1       3.716   4.160  18.933  0.00  0.00    +0.000 A 
ENDROOT
BRANCH   3   7
ATOM      7  C   UNL     1       2.110   8.147  18.540  0.00  0.00    +0.000 C 
ATOM      8  O   UNL     1       2.315   8.790  17.519  0.00  0.00    +0.000 OA
ATOM      9  N   UNL     1       1.508   8.605  19.698  0.00  0.00    +0.000 N 
ATOM     10  C   UNL     1       0.995   9.846  19.955  0.00  0.00    +0.000 C 
ATOM     11  N   UNL     1       0.850  10.221  21.179  0.00  0.00    +0.000 NA
ATOM     12  C   UNL     1       0.297  11.598  21.207  0.00  0.00    +0.000 C 
ATOM     13  C   UNL     1       0.512  12.290  19.869  0.00  0.00    +0.000 C 
ATOM     14  S   UNL     1       0.517  10.931  18.698  0.00  0.00    +0.000 S 
ATOM     15  H   UNL     1       1.635   8.066  20.544  0.00  0.00    +0.000 HD
ENDBRANCH   3   7
BRANCH   1  17
ATOM     16  C   UNL     1       1.234   3.297  20.861  0.00  0.00    +0.000 C 
ATOM     17  O   UNL     1       2.489   3.975  20.998  0.00  0.00    +0.000 OA
ENDBRANCH   1  17
BRANCH   5  18
ATOM     18  O   UNL     1       4.765   4.577  16.688  0.00  0.00    +0.000 OA
ATOM     19  C   UNL     1       6.178   4.733  16.729  0.00  0.00    +0.000 C 
ENDBRANCH   5  18
BRANCH   6  20
ATOM     20  O   UNL     1       4.287   2.918  18.981  0.00  0.00    +0.000 OA
ATOM     21  C   UNL     1       3.630   1.771  18.474  0.00  0.00    +0.000 C 
ENDBRANCH   6  20
TORSDOF 4
ENDMDL
MODEL 9
REMARK VINA RESULT:      -6.3      2.014      2.640
REMARK  Name = 
REMARK  7 active torsions:
REMARK  status: ('A' for Active; 'I' for Inactive)
REMARK    1  A    between atoms: C_1  and  O_2
REMARK    2  A    between atoms: O_2  and  C_3
REMARK    3  A    between atoms: C_5  and  C_6
REMARK    4  A    between atoms: C_15  and  O_16
REMARK    5  A    between atoms: O_16  and  C_17
REMARK    6  A    between atoms: C_18  and  O_19
REMARK    7  A    between atoms: O_19  and  C_20
REMARK                            x       y       z     vdW  Elec       q    Type
REMARK                         _______ _______ _______ _____ _____    ______ ____
ROOT
ATOM      1  C   UNL     1       4.071   5.030  18.629  0.00  0.00    +0.000 A 
ATOM      2  C   UNL     1       3.322   6.213  18.732  0.00  0.00    +0.000 A 
ATOM      3  C   UNL     1       2.429   6.409  19.783  0.00  0.00    +0.000 A 
ATOM      4  C   UNL     1       2.206   5.378  20.688  0.00  0.00    +0.000 A 
ATOM      5  C   UNL     1       2.874   4.146  20.548  0.00  0.00    +0.000 A 
ATOM      6  C   UNL     1       3.815   3.952  19.505  0.00  0.00    +0.000 A 
ENDROOT
BRANCH   3   7
ATOM      7  C   UNL     1       1.751   7.725  19.874  0.00  0.00    +0.000 C 
ATOM      8  O   UNL     1       2.000   8.561  19.016  0.00  0.00    +0.000 OA
ATOM      9  N   UNL     1       1.004   7.917  21.023  0.00  0.00    +0.000 N 
ATOM     10  C   UNL     1       0.369   9.052  21.443  0.00  0.00    +0.000 C 
ATOM     11  N   UNL     1       0.076   9.179  22.691  0.00  0.00    +0.000 NA
ATOM     12  C   UNL     1      -0.587  10.488  22.908  0.00  0.00    +0.000 C 
ATOM     13  C   UNL     1      -0.302  11.434  21.750  0.00  0.00    +0.000 C 
ATOM     14  S   UNL     1      -0.073  10.323  20.359  0.00  0.00    +0.000 S 
ATOM     15  H   UNL     1       1.092   7.236  21.765  0.00  0.00    +0.000 HD
ENDBRANCH   3   7
BRANCH   1  17
ATOM     16  C   UNL     1       4.596   4.411  16.404  0.00  0.00    +0.000 C 
ATOM     17  O   UNL     1       5.043   4.916  17.669  0.00  0.00    +0.000 OA
ENDBRANCH   1  17
BRANCH   5  18
ATOM     18  O   UNL     1       2.498   3.261  21.530  0.00  0.00    +0.000 OA
ATOM     19  C   UNL     1       1.234   2.615  21.454  0.00  0.00    +0.000 C 
ENDBRANCH   5  18
BRANCH   6  20
ATOM     20  O   UNL     1       4.402   2.718  19.452  0.00  0.00    +0.000 OA
ATOM     21  C   UNL     1       3.805   1.632  18.768  0.00  0.00    +0.000 C 
ENDBRANCH   6  20
TORSDOF 4
ENDMDL
