MODEL 1
REMARK VINA RESULT:      -5.9      0.000      0.000
REMARK  Name = 
REMARK  23 active torsions:
REMARK  status: ('A' for Active; 'I' for Inactive)
REMARK    1  A    between atoms: C_1  and  C_2
REMARK    2  A    between atoms: C_2  and  C_3
REMARK    3  A    between atoms: C_3  and  C_4
REMARK    4  A    between atoms: C_4  and  C_5
REMARK    5  A    between atoms: C_5  and  C_6
REMARK    6  A    between atoms: C_6  and  C_7
REMARK    7  A    between atoms: C_7  and  C_8
REMARK    8  A    between atoms: C_8  and  C_9
REMARK    9  A    between atoms: C_9  and  C_10
REMARK   10  A    between atoms: C_10  and  C_11
REMARK   11  A    between atoms: C_11  and  C_12
REMARK   12  A    between atoms: C_12  and  C_13
REMARK   13  A    between atoms: C_13  and  C_14
REMARK   14  A    between atoms: C_14  and  C_15
REMARK   15  A    between atoms: C_15  and  C_16
REMARK   16  A    between atoms: N_18  and  C_19
REMARK   17  A    between atoms: N_18  and  C_20
REMARK   18  A    between atoms: C_20  and  C_21
REMARK   19  A    between atoms: C_21  and  N_22
REMARK   20  A    between atoms: N_22  and  C_23
REMARK   21  A    between atoms: N_22  and  C_24
REMARK   22  A    between atoms: N_22  and  C_25
REMARK   23  A    between atoms: C_25  and  C_26
REMARK                            x       y       z     vdW  Elec       q    Type
REMARK                         _______ _______ _______ _____ _____    ______ ____
ROOT
ATOM      1  C   UNL     1       8.196   8.845  18.047  0.00  0.00    +0.000 C 
ENDROOT
BRANCH   1   2
ATOM      2  C   UNL     1       8.258   7.391  18.516  0.00  0.00    +0.000 C 
BRANCH   2   3
ATOM      3  C   UNL     1       7.208   6.525  17.797  0.00  0.00    +0.000 C 
BRANCH   3   4
ATOM      4  C   UNL     1       6.299   5.792  18.743  0.00  0.00    +0.000 C 
ATOM      5  O   UNL     1       6.800   5.292  19.745  0.00  0.00    +0.000 OA
ATOM      6  N   UNL     1       4.942   5.681  18.522  0.00  0.00    +0.000 N 
ATOM      7  C   UNL     1       4.301   6.198  17.315  0.00  0.00    +0.000 C 
BRANCH   6   8
ATOM      8  C   UNL     1       4.091   5.044  19.524  0.00  0.00    +0.000 C 
BRANCH   8   9
ATOM      9  C   UNL     1       2.976   4.182  18.877  0.00  0.00    +0.000 C 
BRANCH   9  10
ATOM     10  N   UNL     1       3.006   2.725  19.240  0.00  0.00    +0.000 N 
ATOM     11  C   UNL     1       3.057   1.886  18.009  0.00  0.00    +0.000 C 
ATOM     12  C   UNL     1       4.188   2.436  20.090  0.00  0.00    +0.000 C 
BRANCH  10  13
ATOM     13  C   UNL     1       1.740   2.442  19.995  0.00  0.00    +0.000 C 
ATOM     14  C   UNL     1       1.744   2.812  21.490  0.00  0.00    +0.000 C 
ENDBRANCH  10  13
ENDBRANCH   9  10
ENDBRANCH   8   9
ENDBRANCH   6   8
ENDBRANCH   3   4
ENDBRANCH   2   3
ENDBRANCH   1   2
BRANCH   1  15
ATOM     15  C   UNL     1       9.082   9.734  18.918  0.00  0.00    +0.000 C 
BRANCH  15  16
ATOM     16  C   UNL     1       9.099  11.160  18.407  0.00  0.00    +0.000 C 
BRANCH  16  17
ATOM     17  C   UNL     1      10.368  11.375  17.595  0.00  0.00    +0.000 C 
BRANCH  17  18
ATOM     18  C   UNL     1      11.402  12.107  18.431  0.00  0.00    +0.000 C 
BRANCH  18  19
ATOM     19  C   UNL     1      11.914  13.318  17.667  0.00  0.00    +0.000 C 
BRANCH  19  20
ATOM     20  C   UNL     1      12.331  14.406  18.645  0.00  0.00    +0.000 C 
BRANCH  20  21
ATOM     21  C   UNL     1      11.735  14.124  20.018  0.00  0.00    +0.000 C 
BRANCH  21  22
ATOM     22  C   UNL     1      10.660  15.153  20.354  0.00  0.00    +0.000 C 
BRANCH  22  23
ATOM     23  C   UNL     1       9.878  14.699  21.583  0.00  0.00    +0.000 C 
BRANCH  23  24
ATOM     24  C   UNL     1       8.884  13.598  21.223  0.00  0.00    +0.000 C 
BRANCH  24  26
ATOM     25  C   UNL     1       7.952  11.805  22.730  0.00  0.00    +0.000 C 
ATOM     26  C   UNL     1       9.195  12.329  22.022  0.00  0.00    +0.000 C 
ENDBRANCH  24  26
ENDBRANCH  23  24
ENDBRANCH  22  23
ENDBRANCH  21  22
ENDBRANCH  20  21
ENDBRANCH  19  20
ENDBRANCH  18  19
ENDBRANCH  17  18
ENDBRANCH  16  17
ENDBRANCH  15  16
ENDBRANCH   1  15
TORSDOF 18
ENDMDL
MODEL 2
REMARK VINA RESULT:      -5.6      5.223      8.958
REMARK  Name = 
REMARK  23 active torsions:
REMARK  status: ('A' for Active; 'I' for Inactive)
REMARK    1  A    between atoms: C_1  and  C_2
REMARK    2  A    between atoms: C_2  and  C_3
REMARK    3  A    between atoms: C_3  and  C_4
REMARK    4  A    between atoms: C_4  and  C_5
REMARK    5  A    between atoms: C_5  and  C_6
REMARK    6  A    between atoms: C_6  and  C_7
REMARK    7  A    between atoms: C_7  and  C_8
REMARK    8  A    between atoms: C_8  and  C_9
REMARK    9  A    between atoms: C_9  and  C_10
REMARK   10  A    between atoms: C_10  and  C_11
REMARK   11  A    between atoms: C_11  and  C_12
REMARK   12  A    between atoms: C_12  and  C_13
REMARK   13  A    between atoms: C_13  and  C_14
REMARK   14  A    between atoms: C_14  and  C_15
REMARK   15  A    between atoms: C_15  and  C_16
REMARK   16  A    between atoms: N_18  and  C_19
REMARK   17  A    between atoms: N_18  and  C_20
REMARK   18  A    between atoms: C_20  and  C_21
REMARK   19  A    between atoms: C_21  and  N_22
REMARK   20  A    between atoms: N_22  and  C_23
REMARK   21  A    between atoms: N_22  and  C_24
REMARK   22  A    between atoms: N_22  and  C_25
REMARK   23  A    between atoms: C_25  and  C_26
REMARK                            x       y       z     vdW  Elec       q    Type
REMARK                         _______ _______ _______ _____ _____    ______ ____
ROOT
ATOM      1  C   UNL     1       1.210   2.269  19.987  0.00  0.00    +0.000 C 
ENDROOT
BRANCH   1   2
ATOM      2  C   UNL     1       1.091   2.789  18.553  0.00  0.00    +0.000 C 
BRANCH   2   3
ATOM      3  C   UNL     1       2.386   2.546  17.759  0.00  0.00    +0.000 C 
BRANCH   3   4
ATOM      4  C   UNL     1       3.377   3.668  17.888  0.00  0.00    +0.000 C 
ATOM      5  O   UNL     1       3.248   4.633  17.142  0.00  0.00    +0.000 OA
ATOM      6  N   UNL     1       4.400   3.644  18.814  0.00  0.00    +0.000 N 
ATOM      7  C   UNL     1       4.642   2.495  19.682  0.00  0.00    +0.000 C 
BRANCH   6   8
ATOM      8  C   UNL     1       5.274   4.806  18.963  0.00  0.00    +0.000 C 
BRANCH   8   9
ATOM      9  C   UNL     1       5.479   5.555  17.622  0.00  0.00    +0.000 C 
BRANCH   9  10
ATOM     10  N   UNL     1       6.894   5.590  17.122  0.00  0.00    +0.000 N 
ATOM     11  C   UNL     1       7.468   6.956  17.285  0.00  0.00    +0.000 C 
ATOM     12  C   UNL     1       7.723   4.609  17.867  0.00  0.00    +0.000 C 
BRANCH  10  13
ATOM     13  C   UNL     1       6.847   5.231  15.665  0.00  0.00    +0.000 C 
ATOM     14  C   UNL     1       6.126   3.915  15.313  0.00  0.00    +0.000 C 
ENDBRANCH  10  13
ENDBRANCH   9  10
ENDBRANCH   8   9
ENDBRANCH   6   8
ENDBRANCH   3   4
ENDBRANCH   2   3
ENDBRANCH   1   2
BRANCH   1  15
ATOM     15  C   UNL     1       1.207   3.425  20.985  0.00  0.00    +0.000 C 
BRANCH  15  16
ATOM     16  C   UNL     1       0.989   4.752  20.286  0.00  0.00    +0.000 C 
BRANCH  16  17
ATOM     17  C   UNL     1       2.111   5.703  20.678  0.00  0.00    +0.000 C 
BRANCH  17  18
ATOM     18  C   UNL     1       1.773   7.114  20.236  0.00  0.00    +0.000 C 
BRANCH  18  19
ATOM     19  C   UNL     1       2.596   7.478  19.010  0.00  0.00    +0.000 C 
BRANCH  19  20
ATOM     20  C   UNL     1       1.702   8.122  17.961  0.00  0.00    +0.000 C 
BRANCH  20  21
ATOM     21  C   UNL     1       1.846   9.636  18.017  0.00  0.00    +0.000 C 
BRANCH  21  22
ATOM     22  C   UNL     1       0.572  10.273  18.564  0.00  0.00    +0.000 C 
BRANCH  22  23
ATOM     23  C   UNL     1      -0.607   9.929  17.658  0.00  0.00    +0.000 C 
BRANCH  23  24
ATOM     24  C   UNL     1      -1.933  10.295  18.321  0.00  0.00    +0.000 C 
BRANCH  24  26
ATOM     25  C   UNL     1      -2.962  10.126  16.027  0.00  0.00    +0.000 C 
ATOM     26  C   UNL     1      -3.100   9.747  17.496  0.00  0.00    +0.000 C 
ENDBRANCH  24  26
ENDBRANCH  23  24
ENDBRANCH  22  23
ENDBRANCH  21  22
ENDBRANCH  20  21
ENDBRANCH  19  20
ENDBRANCH  18  19
ENDBRANCH  17  18
ENDBRANCH  16  17
ENDBRANCH  15  16
ENDBRANCH   1  15
TORSDOF 18
ENDMDL
MODEL 3
REMARK VINA RESULT:      -5.5      6.938     11.162
REMARK  Name = 
REMARK  23 active torsions:
REMARK  status: ('A' for Active; 'I' for Inactive)
REMARK    1  A    between atoms: C_1  and  C_2
REMARK    2  A    between atoms: C_2  and  C_3
REMARK    3  A    between atoms: C_3  and  C_4
REMARK    4  A    between atoms: C_4  and  C_5
REMARK    5  A    between atoms: C_5  and  C_6
REMARK    6  A    between atoms: C_6  and  C_7
REMARK    7  A    between atoms: C_7  and  C_8
REMARK    8  A    between atoms: C_8  and  C_9
REMARK    9  A    between atoms: C_9  and  C_10
REMARK   10  A    between atoms: C_10  and  C_11
REMARK   11  A    between atoms: C_11  and  C_12
REMARK   12  A    between atoms: C_12  and  C_13
REMARK   13  A    between atoms: C_13  and  C_14
REMARK   14  A    between atoms: C_14  and  C_15
REMARK   15  A    between atoms: C_15  and  C_16
REMARK   16  A    between atoms: N_18  and  C_19
REMARK   17  A    between atoms: N_18  and  C_20
REMARK   18  A    between atoms: C_20  and  C_21
REMARK   19  A    between atoms: C_21  and  N_22
REMARK   20  A    between atoms: N_22  and  C_23
REMARK   21  A    between atoms: N_22  and  C_24
REMARK   22  A    between atoms: N_22  and  C_25
REMARK   23  A    between atoms: C_25  and  C_26
REMARK                            x       y       z     vdW  Elec       q    Type
REMARK                         _______ _______ _______ _____ _____    ______ ____
ROOT
ATOM      1  C   UNL     1       2.817   8.120  17.885  0.00  0.00    +0.000 C 
ENDROOT
BRANCH   1   2
ATOM      2  C   UNL     1       1.503   8.863  17.638  0.00  0.00    +0.000 C 
BRANCH   2   3
ATOM      3  C   UNL     1       1.500  10.239  18.327  0.00  0.00    +0.000 C 
BRANCH   3   4
ATOM      4  C   UNL     1       0.140  10.651  18.817  0.00  0.00    +0.000 C 
ATOM      5  O   UNL     1      -0.838  10.249  18.194  0.00  0.00    +0.000 OA
ATOM      6  N   UNL     1      -0.032  11.442  19.934  0.00  0.00    +0.000 N 
ATOM      7  C   UNL     1       1.094  12.002  20.677  0.00  0.00    +0.000 C 
BRANCH   6   8
ATOM      8  C   UNL     1      -1.379  11.729  20.423  0.00  0.00    +0.000 C 
BRANCH   8   9
ATOM      9  C   UNL     1      -1.425  13.025  21.271  0.00  0.00    +0.000 C 
BRANCH   9  10
ATOM     10  N   UNL     1      -2.603  13.140  22.195  0.00  0.00    +0.000 N 
ATOM     11  C   UNL     1      -3.876  13.093  21.422  0.00  0.00    +0.000 C 
ATOM     12  C   UNL     1      -2.581  12.036  23.188  0.00  0.00    +0.000 C 
BRANCH  10  13
ATOM     13  C   UNL     1      -2.480  14.466  22.888  0.00  0.00    +0.000 C 
ATOM     14  C   UNL     1      -2.754  14.467  24.405  0.00  0.00    +0.000 C 
ENDBRANCH  10  13
ENDBRANCH   9  10
ENDBRANCH   8   9
ENDBRANCH   6   8
ENDBRANCH   3   4
ENDBRANCH   2   3
ENDBRANCH   1   2
BRANCH   1  15
ATOM     15  C   UNL     1       2.558   6.767  18.546  0.00  0.00    +0.000 C 
BRANCH  15  16
ATOM     16  C   UNL     1       2.128   6.935  19.989  0.00  0.00    +0.000 C 
BRANCH  16  17
ATOM     17  C   UNL     1       2.271   5.599  20.703  0.00  0.00    +0.000 C 
BRANCH  17  18
ATOM     18  C   UNL     1       1.207   4.633  20.215  0.00  0.00    +0.000 C 
BRANCH  18  19
ATOM     19  C   UNL     1       1.288   3.338  21.007  0.00  0.00    +0.000 C 
BRANCH  19  20
ATOM     20  C   UNL     1       1.643   2.186  20.079  0.00  0.00    +0.000 C 
BRANCH  20  21
ATOM     21  C   UNL     1       1.305   2.557  18.641  0.00  0.00    +0.000 C 
BRANCH  21  22
ATOM     22  C   UNL     1       2.489   2.267  17.723  0.00  0.00    +0.000 C 
BRANCH  22  23
ATOM     23  C   UNL     1       2.970   3.564  17.078  0.00  0.00    +0.000 C 
BRANCH  23  24
ATOM     24  C   UNL     1       4.470   3.755  17.286  0.00  0.00    +0.000 C 
BRANCH  24  26
ATOM     25  C   UNL     1       5.665   4.972  19.142  0.00  0.00    +0.000 C 
ATOM     26  C   UNL     1       4.794   3.775  18.782  0.00  0.00    +0.000 C 
ENDBRANCH  24  26
ENDBRANCH  23  24
ENDBRANCH  22  23
ENDBRANCH  21  22
ENDBRANCH  20  21
ENDBRANCH  19  20
ENDBRANCH  18  19
ENDBRANCH  17  18
ENDBRANCH  16  17
ENDBRANCH  15  16
ENDBRANCH   1  15
TORSDOF 18
ENDMDL
MODEL 4
REMARK VINA RESULT:      -5.5      1.346      2.106
REMARK  Name = 
REMARK  23 active torsions:
REMARK  status: ('A' for Active; 'I' for Inactive)
REMARK    1  A    between atoms: C_1  and  C_2
REMARK    2  A    between atoms: C_2  and  C_3
REMARK    3  A    between atoms: C_3  and  C_4
REMARK    4  A    between atoms: C_4  and  C_5
REMARK    5  A    between atoms: C_5  and  C_6
REMARK    6  A    between atoms: C_6  and  C_7
REMARK    7  A    between atoms: C_7  and  C_8
REMARK    8  A    between atoms: C_8  and  C_9
REMARK    9  A    between atoms: C_9  and  C_10
REMARK   10  A    between atoms: C_10  and  C_11
REMARK   11  A    between atoms: C_11  and  C_12
REMARK   12  A    between atoms: C_12  and  C_13
REMARK   13  A    between atoms: C_13  and  C_14
REMARK   14  A    between atoms: C_14  and  C_15
REMARK   15  A    between atoms: C_15  and  C_16
REMARK   16  A    between atoms: N_18  and  C_19
REMARK   17  A    between atoms: N_18  and  C_20
REMARK   18  A    between atoms: C_20  and  C_21
REMARK   19  A    between atoms: C_21  and  N_22
REMARK   20  A    between atoms: N_22  and  C_23
REMARK   21  A    between atoms: N_22  and  C_24
REMARK   22  A    between atoms: N_22  and  C_25
REMARK   23  A    between atoms: C_25  and  C_26
REMARK                            x       y       z     vdW  Elec       q    Type
REMARK                         _______ _______ _______ _____ _____    ______ ____
ROOT
ATOM      1  C   UNL     1       8.500   8.303  18.506  0.00  0.00    +0.000 C 
ENDROOT
BRANCH   1   2
ATOM      2  C   UNL     1       7.499   7.666  17.542  0.00  0.00    +0.000 C 
BRANCH   2   3
ATOM      3  C   UNL     1       7.483   6.134  17.682  0.00  0.00    +0.000 C 
BRANCH   3   4
ATOM      4  C   UNL     1       6.504   5.646  18.713  0.00  0.00    +0.000 C 
ATOM      5  O   UNL     1       6.932   5.400  19.837  0.00  0.00    +0.000 OA
ATOM      6  N   UNL     1       5.162   5.484  18.436  0.00  0.00    +0.000 N 
ATOM      7  C   UNL     1       4.608   5.698  17.102  0.00  0.00    +0.000 C 
BRANCH   6   8
ATOM      8  C   UNL     1       4.239   5.103  19.503  0.00  0.00    +0.000 C 
BRANCH   8   9
ATOM      9  C   UNL     1       2.926   4.496  18.945  0.00  0.00    +0.000 C 
BRANCH   9  10
ATOM     10  N   UNL     1       2.703   3.048  19.274  0.00  0.00    +0.000 N 
ATOM     11  C   UNL     1       2.550   2.250  18.025  0.00  0.00    +0.000 C 
ATOM     12  C   UNL     1       3.846   2.523  20.064  0.00  0.00    +0.000 C 
BRANCH  10  13
ATOM     13  C   UNL     1       1.438   2.978  20.079  0.00  0.00    +0.000 C 
ATOM     14  C   UNL     1       1.610   2.818  21.602  0.00  0.00    +0.000 C 
ENDBRANCH  10  13
ENDBRANCH   9  10
ENDBRANCH   8   9
ENDBRANCH   6   8
ENDBRANCH   3   4
ENDBRANCH   2   3
ENDBRANCH   1   2
BRANCH   1  15
ATOM     15  C   UNL     1       8.540   9.819  18.323  0.00  0.00    +0.000 C 
BRANCH  15  16
ATOM     16  C   UNL     1       9.840  10.400  18.842  0.00  0.00    +0.000 C 
BRANCH  16  17
ATOM     17  C   UNL     1      10.130  11.695  18.097  0.00  0.00    +0.000 C 
BRANCH  17  18
ATOM     18  C   UNL     1      10.651  12.744  19.062  0.00  0.00    +0.000 C 
BRANCH  18  19
ATOM     19  C   UNL     1      10.696  12.168  20.469  0.00  0.00    +0.000 C 
BRANCH  19  20
ATOM     20  C   UNL     1       9.563  12.750  21.301  0.00  0.00    +0.000 C 
BRANCH  20  21
ATOM     21  C   UNL     1       9.929  14.153  21.765  0.00  0.00    +0.000 C 
BRANCH  21  22
ATOM     22  C   UNL     1       8.679  14.919  22.184  0.00  0.00    +0.000 C 
BRANCH  22  23
ATOM     23  C   UNL     1       7.480  14.432  21.375  0.00  0.00    +0.000 C 
BRANCH  23  24
ATOM     24  C   UNL     1       7.108  15.436  20.287  0.00  0.00    +0.000 C 
BRANCH  24  26
ATOM     25  C   UNL     1       8.165  14.978  18.046  0.00  0.00    +0.000 C 
ATOM     26  C   UNL     1       6.960  14.722  18.942  0.00  0.00    +0.000 C 
ENDBRANCH  24  26
ENDBRANCH  23  24
ENDBRANCH  22  23
ENDBRANCH  21  22
ENDBRANCH  20  21
ENDBRANCH  19  20
ENDBRANCH  18  19
ENDBRANCH  17  18
ENDBRANCH  16  17
ENDBRANCH  15  16
ENDBRANCH   1  15
TORSDOF 18
ENDMDL
MODEL 5
REMARK VINA RESULT:      -5.5      1.341      1.922
REMARK  Name = 
REMARK  23 active torsions:
REMARK  status: ('A' for Active; 'I' for Inactive)
REMARK    1  A    between atoms: C_1  and  C_2
REMARK    2  A    between atoms: C_2  and  C_3
REMARK    3  A    between atoms: C_3  and  C_4
REMARK    4  A    between atoms: C_4  and  C_5
REMARK    5  A    between atoms: C_5  and  C_6
REMARK    6  A    between atoms: C_6  and  C_7
REMARK    7  A    between atoms: C_7  and  C_8
REMARK    8  A    between atoms: C_8  and  C_9
REMARK    9  A    between atoms: C_9  and  C_10
REMARK   10  A    between atoms: C_10  and  C_11
REMARK   11  A    between atoms: C_11  and  C_12
REMARK   12  A    between atoms: C_12  and  C_13
REMARK   13  A    between atoms: C_13  and  C_14
REMARK   14  A    between atoms: C_14  and  C_15
REMARK   15  A    between atoms: C_15  and  C_16
REMARK   16  A    between atoms: N_18  and  C_19
REMARK   17  A    between atoms: N_18  and  C_20
REMARK   18  A    between atoms: C_20  and  C_21
REMARK   19  A    between atoms: C_21  and  N_22
REMARK   20  A    between atoms: N_22  and  C_23
REMARK   21  A    between atoms: N_22  and  C_24
REMARK   22  A    between atoms: N_22  and  C_25
REMARK   23  A    between atoms: C_25  and  C_26
REMARK                            x       y       z     vdW  Elec       q    Type
REMARK                         _______ _______ _______ _____ _____    ______ ____
ROOT
ATOM      1  C   UNL     1       8.784   9.135  18.890  0.00  0.00    +0.000 C 
ENDROOT
BRANCH   1   2
ATOM      2  C   UNL     1       8.327   7.707  18.589  0.00  0.00    +0.000 C 
BRANCH   2   3
ATOM      3  C   UNL     1       7.377   7.666  17.379  0.00  0.00    +0.000 C 
BRANCH   3   4
ATOM      4  C   UNL     1       6.838   6.291  17.098  0.00  0.00    +0.000 C 
ATOM      5  O   UNL     1       7.644   5.404  16.834  0.00  0.00    +0.000 OA
ATOM      6  N   UNL     1       5.489   6.006  17.140  0.00  0.00    +0.000 N 
ATOM      7  C   UNL     1       4.480   7.034  17.383  0.00  0.00    +0.000 C 
BRANCH   6   8
ATOM      8  C   UNL     1       5.029   4.632  16.957  0.00  0.00    +0.000 C 
BRANCH   8   9
ATOM      9  C   UNL     1       4.984   3.851  18.295  0.00  0.00    +0.000 C 
BRANCH   9  10
ATOM     10  N   UNL     1       3.606   3.554  18.813  0.00  0.00    +0.000 N 
ATOM     11  C   UNL     1       3.580   2.224  19.486  0.00  0.00    +0.000 C 
ATOM     12  C   UNL     1       3.185   4.606  19.773  0.00  0.00    +0.000 C 
BRANCH  10  13
ATOM     13  C   UNL     1       2.691   3.537  17.623  0.00  0.00    +0.000 C 
ATOM     14  C   UNL     1       1.466   4.469  17.697  0.00  0.00    +0.000 C 
ENDBRANCH  10  13
ENDBRANCH   9  10
ENDBRANCH   8   9
ENDBRANCH   6   8
ENDBRANCH   3   4
ENDBRANCH   2   3
ENDBRANCH   1   2
BRANCH   1  15
ATOM     15  C   UNL     1       8.462  10.065  17.721  0.00  0.00    +0.000 C 
BRANCH  15  16
ATOM     16  C   UNL     1       8.970  11.468  17.982  0.00  0.00    +0.000 C 
BRANCH  16  17
ATOM     17  C   UNL     1      10.483  11.481  17.816  0.00  0.00    +0.000 C 
BRANCH  17  18
ATOM     18  C   UNL     1      10.938  12.837  17.309  0.00  0.00    +0.000 C 
BRANCH  18  19
ATOM     19  C   UNL     1      10.255  13.937  18.104  0.00  0.00    +0.000 C 
BRANCH  19  20
ATOM     20  C   UNL     1      10.950  14.113  19.446  0.00  0.00    +0.000 C 
BRANCH  20  21
ATOM     21  C   UNL     1      10.001  14.769  20.439  0.00  0.00    +0.000 C 
BRANCH  21  22
ATOM     22  C   UNL     1       9.912  13.942  21.718  0.00  0.00    +0.000 C 
BRANCH  22  23
ATOM     23  C   UNL     1       9.956  12.456  21.375  0.00  0.00    +0.000 C 
BRANCH  23  24
ATOM     24  C   UNL     1       8.703  11.741  21.874  0.00  0.00    +0.000 C 
BRANCH  24  26
ATOM     25  C   UNL     1       6.679  11.966  23.359  0.00  0.00    +0.000 C 
ATOM     26  C   UNL     1       8.006  12.587  22.942  0.00  0.00    +0.000 C 
ENDBRANCH  24  26
ENDBRANCH  23  24
ENDBRANCH  22  23
ENDBRANCH  21  22
ENDBRANCH  20  21
ENDBRANCH  19  20
ENDBRANCH  18  19
ENDBRANCH  17  18
ENDBRANCH  16  17
ENDBRANCH  15  16
ENDBRANCH   1  15
TORSDOF 18
ENDMDL
MODEL 6
REMARK VINA RESULT:      -5.5      5.532      9.965
REMARK  Name = 
REMARK  23 active torsions:
REMARK  status: ('A' for Active; 'I' for Inactive)
REMARK    1  A    between atoms: C_1  and  C_2
REMARK    2  A    between atoms: C_2  and  C_3
REMARK    3  A    between atoms: C_3  and  C_4
REMARK    4  A    between atoms: C_4  and  C_5
REMARK    5  A    between atoms: C_5  and  C_6
REMARK    6  A    between atoms: C_6  and  C_7
REMARK    7  A    between atoms: C_7  and  C_8
REMARK    8  A    between atoms: C_8  and  C_9
REMARK    9  A    between atoms: C_9  and  C_10
REMARK   10  A    between atoms: C_10  and  C_11
REMARK   11  A    between atoms: C_11  and  C_12
REMARK   12  A    between atoms: C_12  and  C_13
REMARK   13  A    between atoms: C_13  and  C_14
REMARK   14  A    between atoms: C_14  and  C_15
REMARK   15  A    between atoms: C_15  and  C_16
REMARK   16  A    between atoms: N_18  and  C_19
REMARK   17  A    between atoms: N_18  and  C_20
REMARK   18  A    between atoms: C_20  and  C_21
REMARK   19  A    between atoms: C_21  and  N_22
REMARK   20  A    between atoms: N_22  and  C_23
REMARK   21  A    between atoms: N_22  and  C_24
REMARK   22  A    between atoms: N_22  and  C_25
REMARK   23  A    between atoms: C_25  and  C_26
REMARK                            x       y       z     vdW  Elec       q    Type
REMARK                         _______ _______ _______ _____ _____    ______ ____
ROOT
ATOM      1  C   UNL     1       3.236   5.728  19.820  0.00  0.00    +0.000 C 
ENDROOT
BRANCH   1   2
ATOM      2  C   UNL     1       2.337   6.387  18.773  0.00  0.00    +0.000 C 
BRANCH   2   3
ATOM      3  C   UNL     1       2.889   7.758  18.344  0.00  0.00    +0.000 C 
BRANCH   3   4
ATOM      4  C   UNL     1       1.850   8.844  18.362  0.00  0.00    +0.000 C 
ATOM      5  O   UNL     1       1.609   9.423  17.307  0.00  0.00    +0.000 OA
ATOM      6  N   UNL     1       1.167   9.191  19.510  0.00  0.00    +0.000 N 
ATOM      7  C   UNL     1       1.456   8.582  20.806  0.00  0.00    +0.000 C 
BRANCH   6   8
ATOM      8  C   UNL     1       0.098  10.185  19.449  0.00  0.00    +0.000 C 
BRANCH   8   9
ATOM      9  C   UNL     1       0.556  11.564  19.986  0.00  0.00    +0.000 C 
BRANCH   9  10
ATOM     10  N   UNL     1      -0.537  12.421  20.557  0.00  0.00    +0.000 N 
ATOM     11  C   UNL     1      -0.378  13.833  20.109  0.00  0.00    +0.000 C 
ATOM     12  C   UNL     1      -1.863  11.908  20.128  0.00  0.00    +0.000 C 
BRANCH  10  13
ATOM     13  C   UNL     1      -0.408  12.346  22.051  0.00  0.00    +0.000 C 
ATOM     14  C   UNL     1      -1.531  11.593  22.792  0.00  0.00    +0.000 C 
ENDBRANCH  10  13
ENDBRANCH   9  10
ENDBRANCH   8   9
ENDBRANCH   6   8
ENDBRANCH   3   4
ENDBRANCH   2   3
ENDBRANCH   1   2
BRANCH   1  15
ATOM     15  C   UNL     1       2.422   4.815  20.736  0.00  0.00    +0.000 C 
BRANCH  15  16
ATOM     16  C   UNL     1       1.215   4.252  20.015  0.00  0.00    +0.000 C 
BRANCH  16  17
ATOM     17  C   UNL     1       1.048   2.790  20.407  0.00  0.00    +0.000 C 
BRANCH  17  18
ATOM     18  C   UNL     1       1.709   1.896  19.375  0.00  0.00    +0.000 C 
BRANCH  18  19
ATOM     19  C   UNL     1       1.906   2.668  18.080  0.00  0.00    +0.000 C 
BRANCH  19  20
ATOM     20  C   UNL     1       3.379   2.672  17.701  0.00  0.00    +0.000 C 
BRANCH  20  21
ATOM     21  C   UNL     1       3.642   3.746  16.655  0.00  0.00    +0.000 C 
BRANCH  21  22
ATOM     22  C   UNL     1       5.133   4.061  16.576  0.00  0.00    +0.000 C 
BRANCH  22  23
ATOM     23  C   UNL     1       5.332   5.493  16.089  0.00  0.00    +0.000 C 
BRANCH  23  24
ATOM     24  C   UNL     1       6.001   6.349  17.161  0.00  0.00    +0.000 C 
BRANCH  24  26
ATOM     25  C   UNL     1       7.939   6.463  18.768  0.00  0.00    +0.000 C 
ATOM     26  C   UNL     1       7.316   5.703  17.604  0.00  0.00    +0.000 C 
ENDBRANCH  24  26
ENDBRANCH  23  24
ENDBRANCH  22  23
ENDBRANCH  21  22
ENDBRANCH  20  21
ENDBRANCH  19  20
ENDBRANCH  18  19
ENDBRANCH  17  18
ENDBRANCH  16  17
ENDBRANCH  15  16
ENDBRANCH   1  15
TORSDOF 18
ENDMDL
MODEL 7
REMARK VINA RESULT:      -5.5      5.702     11.021
REMARK  Name = 
REMARK  23 active torsions:
REMARK  status: ('A' for Active; 'I' for Inactive)
REMARK    1  A    between atoms: C_1  and  C_2
REMARK    2  A    between atoms: C_2  and  C_3
REMARK    3  A    between atoms: C_3  and  C_4
REMARK    4  A    between atoms: C_4  and  C_5
REMARK    5  A    between atoms: C_5  and  C_6
REMARK    6  A    between atoms: C_6  and  C_7
REMARK    7  A    between atoms: C_7  and  C_8
REMARK    8  A    between atoms: C_8  and  C_9
REMARK    9  A    between atoms: C_9  and  C_10
REMARK   10  A    between atoms: C_10  and  C_11
REMARK   11  A    between atoms: C_11  and  C_12
REMARK   12  A    between atoms: C_12  and  C_13
REMARK   13  A    between atoms: C_13  and  C_14
REMARK   14  A    between atoms: C_14  and  C_15
REMARK   15  A    between atoms: C_15  and  C_16
REMARK   16  A    between atoms: N_18  and  C_19
REMARK   17  A    between atoms: N_18  and  C_20
REMARK   18  A    between atoms: C_20  and  C_21
REMARK   19  A    between atoms: C_21  and  N_22
REMARK   20  A    between atoms: N_22  and  C_23
REMARK   21  A    between atoms: N_22  and  C_24
REMARK   22  A    between atoms: N_22  and  C_25
REMARK   23  A    between atoms: C_25  and  C_26
REMARK                            x       y       z     vdW  Elec       q    Type
REMARK                         _______ _______ _______ _____ _____    ______ ____
ROOT
ATOM      1  C   UNL     1       1.566   9.416  18.226  0.00  0.00    +0.000 C 
ENDROOT
BRANCH   1   2
ATOM      2  C   UNL     1       1.113   9.174  19.666  0.00  0.00    +0.000 C 
BRANCH   2   3
ATOM      3  C   UNL     1       0.081  10.224  20.114  0.00  0.00    +0.000 C 
BRANCH   3   4
ATOM      4  C   UNL     1       0.646  11.615  20.183  0.00  0.00    +0.000 C 
ATOM      5  O   UNL     1       1.491  11.847  21.042  0.00  0.00    +0.000 OA
ATOM      6  N   UNL     1       0.255  12.613  19.314  0.00  0.00    +0.000 N 
ATOM      7  C   UNL     1      -0.792  12.414  18.315  0.00  0.00    +0.000 C 
BRANCH   6   8
ATOM      8  C   UNL     1       0.909  13.918  19.362  0.00  0.00    +0.000 C 
BRANCH   8   9
ATOM      9  C   UNL     1       2.150  13.981  18.435  0.00  0.00    +0.000 C 
BRANCH   9  10
ATOM     10  N   UNL     1       3.223  14.936  18.871  0.00  0.00    +0.000 N 
ATOM     11  C   UNL     1       3.542  14.736  20.313  0.00  0.00    +0.000 C 
ATOM     12  C   UNL     1       4.448  14.731  18.057  0.00  0.00    +0.000 C 
BRANCH  10  13
ATOM     13  C   UNL     1       2.682  16.320  18.659  0.00  0.00    +0.000 C 
ATOM     14  C   UNL     1       2.904  16.929  17.260  0.00  0.00    +0.000 C 
ENDBRANCH  10  13
ENDBRANCH   9  10
ENDBRANCH   8   9
ENDBRANCH   6   8
ENDBRANCH   3   4
ENDBRANCH   2   3
ENDBRANCH   1   2
BRANCH   1  15
ATOM     15  C   UNL     1       2.606   8.380  17.803  0.00  0.00    +0.000 C 
BRANCH  15  16
ATOM     16  C   UNL     1       2.252   7.003  18.327  0.00  0.00    +0.000 C 
BRANCH  16  17
ATOM     17  C   UNL     1       3.518   6.339  18.852  0.00  0.00    +0.000 C 
BRANCH  17  18
ATOM     18  C   UNL     1       4.607   6.391  17.797  0.00  0.00    +0.000 C 
BRANCH  18  19
ATOM     19  C   UNL     1       4.428   5.241  16.819  0.00  0.00    +0.000 C 
BRANCH  19  20
ATOM     20  C   UNL     1       4.381   3.922  17.576  0.00  0.00    +0.000 C 
BRANCH  20  21
ATOM     21  C   UNL     1       3.069   3.206  17.288  0.00  0.00    +0.000 C 
BRANCH  21  22
ATOM     22  C   UNL     1       2.969   1.925  18.109  0.00  0.00    +0.000 C 
BRANCH  22  23
ATOM     23  C   UNL     1       1.859   2.062  19.147  0.00  0.00    +0.000 C 
BRANCH  23  24
ATOM     24  C   UNL     1       1.142   3.403  19.008  0.00  0.00    +0.000 C 
BRANCH  24  26
ATOM     25  C   UNL     1       2.185   3.800  21.268  0.00  0.00    +0.000 C 
ATOM     26  C   UNL     1       0.969   4.051  20.384  0.00  0.00    +0.000 C 
ENDBRANCH  24  26
ENDBRANCH  23  24
ENDBRANCH  22  23
ENDBRANCH  21  22
ENDBRANCH  20  21
ENDBRANCH  19  20
ENDBRANCH  18  19
ENDBRANCH  17  18
ENDBRANCH  16  17
ENDBRANCH  15  16
ENDBRANCH   1  15
TORSDOF 18
ENDMDL
MODEL 8
REMARK VINA RESULT:      -5.4      1.338      2.051
REMARK  Name = 
REMARK  23 active torsions:
REMARK  status: ('A' for Active; 'I' for Inactive)
REMARK    1  A    between atoms: C_1  and  C_2
REMARK    2  A    between atoms: C_2  and  C_3
REMARK    3  A    between atoms: C_3  and  C_4
REMARK    4  A    between atoms: C_4  and  C_5
REMARK    5  A    between atoms: C_5  and  C_6
REMARK    6  A    between atoms: C_6  and  C_7
REMARK    7  A    between atoms: C_7  and  C_8
REMARK    8  A    between atoms: C_8  and  C_9
REMARK    9  A    between atoms: C_9  and  C_10
REMARK   10  A    between atoms: C_10  and  C_11
REMARK   11  A    between atoms: C_11  and  C_12
REMARK   12  A    between atoms: C_12  and  C_13
REMARK   13  A    between atoms: C_13  and  C_14
REMARK   14  A    between atoms: C_14  and  C_15
REMARK   15  A    between atoms: C_15  and  C_16
REMARK   16  A    between atoms: N_18  and  C_19
REMARK   17  A    between atoms: N_18  and  C_20
REMARK   18  A    between atoms: C_20  and  C_21
REMARK   19  A    between atoms: C_21  and  N_22
REMARK   20  A    between atoms: N_22  and  C_23
REMARK   21  A    between atoms: N_22  and  C_24
REMARK   22  A    between atoms: N_22  and  C_25
REMARK   23  A    between atoms: C_25  and  C_26
REMARK                            x       y       z     vdW  Elec       q    Type
REMARK                         _______ _______ _______ _____ _____    ______ ____
ROOT
ATOM      1  C   UNL     1       8.607   9.625  18.768  0.00  0.00    +0.000 C 
ENDROOT
BRANCH   1   2
ATOM      2  C   UNL     1       8.105   8.815  17.571  0.00  0.00    +0.000 C 
BRANCH   2   3
ATOM      3  C   UNL     1       7.887   7.339  17.946  0.00  0.00    +0.000 C 
BRANCH   3   4
ATOM      4  C   UNL     1       6.540   6.818  17.532  0.00  0.00    +0.000 C 
ATOM      5  O   UNL     1       6.030   7.289  16.519  0.00  0.00    +0.000 OA
ATOM      6  N   UNL     1       5.881   5.834  18.240  0.00  0.00    +0.000 N 
ATOM      7  C   UNL     1       6.406   5.283  19.487  0.00  0.00    +0.000 C 
BRANCH   6   8
ATOM      8  C   UNL     1       4.620   5.295  17.737  0.00  0.00    +0.000 C 
BRANCH   8   9
ATOM      9  C   UNL     1       4.641   3.747  17.655  0.00  0.00    +0.000 C 
BRANCH   9  10
ATOM     10  N   UNL     1       3.551   3.053  18.420  0.00  0.00    +0.000 N 
ATOM     11  C   UNL     1       3.565   1.591  18.132  0.00  0.00    +0.000 C 
ATOM     12  C   UNL     1       3.729   3.276  19.877  0.00  0.00    +0.000 C 
BRANCH  10  13
ATOM     13  C   UNL     1       2.253   3.648  17.957  0.00  0.00    +0.000 C 
ATOM     14  C   UNL     1       0.972   2.997  18.513  0.00  0.00    +0.000 C 
ENDBRANCH  10  13
ENDBRANCH   9  10
ENDBRANCH   8   9
ENDBRANCH   6   8
ENDBRANCH   3   4
ENDBRANCH   2   3
ENDBRANCH   1   2
BRANCH   1  15
ATOM     15  C   UNL     1       9.094  11.003  18.324  0.00  0.00    +0.000 C 
BRANCH  15  16
ATOM     16  C   UNL     1      10.593  11.138  18.499  0.00  0.00    +0.000 C 
BRANCH  16  17
ATOM     17  C   UNL     1      11.105  12.201  17.537  0.00  0.00    +0.000 C 
BRANCH  17  18
ATOM     18  C   UNL     1      11.168  13.546  18.235  0.00  0.00    +0.000 C 
BRANCH  18  19
ATOM     19  C   UNL     1      11.739  13.372  19.634  0.00  0.00    +0.000 C 
BRANCH  19  20
ATOM     20  C   UNL     1      10.927  14.187  20.628  0.00  0.00    +0.000 C 
BRANCH  20  21
ATOM     21  C   UNL     1       9.495  14.332  20.132  0.00  0.00    +0.000 C 
BRANCH  21  22
ATOM     22  C   UNL     1       8.511  13.858  21.198  0.00  0.00    +0.000 C 
BRANCH  22  23
ATOM     23  C   UNL     1       9.198  12.861  22.126  0.00  0.00    +0.000 C 
BRANCH  23  24
ATOM     24  C   UNL     1       8.282  11.679  22.435  0.00  0.00    +0.000 C 
BRANCH  24  26
ATOM     25  C   UNL     1       6.923  11.512  24.550  0.00  0.00    +0.000 C 
ATOM     26  C   UNL     1       7.034  12.161  23.176  0.00  0.00    +0.000 C 
ENDBRANCH  24  26
ENDBRANCH  23  24
ENDBRANCH  22  23
ENDBRANCH  21  22
ENDBRANCH  20  21
ENDBRANCH  19  20
ENDBRANCH  18  19
ENDBRANCH  17  18
ENDBRANCH  16  17
ENDBRANCH  15  16
ENDBRANCH   1  15
TORSDOF 18
ENDMDL
MODEL 9
REMARK VINA RESULT:      -5.4      6.520     10.263
REMARK  Name = 
REMARK  23 active torsions:
REMARK  status: ('A' for Active; 'I' for Inactive)
REMARK    1  A    between atoms: C_1  and  C_2
REMARK    2  A    between atoms: C_2  and  C_3
REMARK    3  A    between atoms: C_3  and  C_4
REMARK    4  A    between atoms: C_4  and  C_5
REMARK    5  A    between atoms: C_5  and  C_6
REMARK    6  A    between atoms: C_6  and  C_7
REMARK    7  A    between atoms: C_7  and  C_8
REMARK    8  A    between atoms: C_8  and  C_9
REMARK    9  A    between atoms: C_9  and  C_10
REMARK   10  A    between atoms: C_10  and  C_11
REMARK   11  A    between atoms: C_11  and  C_12
REMARK   12  A    between atoms: C_12  and  C_13
REMARK   13  A    between atoms: C_13  and  C_14
REMARK   14  A    between atoms: C_14  and  C_15
REMARK   15  A    between atoms: C_15  and  C_16
REMARK   16  A    between atoms: N_18  and  C_19
REMARK   17  A    between atoms: N_18  and  C_20
REMARK   18  A    between atoms: C_20  and  C_21
REMARK   19  A    between atoms: C_21  and  N_22
REMARK   20  A    between atoms: N_22  and  C_23
REMARK   21  A    between atoms: N_22  and  C_24
REMARK   22  A    between atoms: N_22  and  C_25
REMARK   23  A    between atoms: C_25  and  C_26
REMARK                            x       y       z     vdW  Elec       q    Type
REMARK                         _______ _______ _______ _____ _____    ______ ____
ROOT
ATOM      1  C   UNL     1       2.103   4.735  21.245  0.00  0.00    +0.000 C 
ENDROOT
BRANCH   1   2
ATOM      2  C   UNL     1       2.035   5.974  20.351  0.00  0.00    +0.000 C 
BRANCH   2   3
ATOM      3  C   UNL     1       1.264   7.116  21.034  0.00  0.00    +0.000 C 
BRANCH   3   4
ATOM      4  C   UNL     1       1.395   8.430  20.316  0.00  0.00    +0.000 C 
ATOM      5  O   UNL     1       1.915   8.424  19.204  0.00  0.00    +0.000 OA
ATOM      6  N   UNL     1       0.945   9.615  20.859  0.00  0.00    +0.000 N 
ATOM      7  C   UNL     1       0.379   9.694  22.204  0.00  0.00    +0.000 C 
BRANCH   6   8
ATOM      8  C   UNL     1       1.008  10.846  20.075  0.00  0.00    +0.000 C 
BRANCH   8   9
ATOM      9  C   UNL     1       0.307  12.028  20.793  0.00  0.00    +0.000 C 
BRANCH   9  10
ATOM     10  N   UNL     1      -0.856  12.623  20.052  0.00  0.00    +0.000 N 
ATOM     11  C   UNL     1      -0.899  12.109  18.654  0.00  0.00    +0.000 C 
ATOM     12  C   UNL     1      -2.126  12.289  20.745  0.00  0.00    +0.000 C 
BRANCH  10  13
ATOM     13  C   UNL     1      -0.645  14.110  20.039  0.00  0.00    +0.000 C 
ATOM     14  C   UNL     1      -0.148  14.713  18.711  0.00  0.00    +0.000 C 
ENDBRANCH  10  13
ENDBRANCH   9  10
ENDBRANCH   8   9
ENDBRANCH   6   8
ENDBRANCH   3   4
ENDBRANCH   2   3
ENDBRANCH   1   2
BRANCH   1  15
ATOM     15  C   UNL     1       2.211   3.464  20.404  0.00  0.00    +0.000 C 
BRANCH  15  16
ATOM     16  C   UNL     1       1.258   3.504  19.227  0.00  0.00    +0.000 C 
BRANCH  16  17
ATOM     17  C   UNL     1       1.816   2.625  18.115  0.00  0.00    +0.000 C 
BRANCH  17  18
ATOM     18  C   UNL     1       2.689   3.451  17.190  0.00  0.00    +0.000 C 
BRANCH  18  19
ATOM     19  C   UNL     1       4.152   3.115  17.431  0.00  0.00    +0.000 C 
BRANCH  19  20
ATOM     20  C   UNL     1       4.902   4.363  17.872  0.00  0.00    +0.000 C 
BRANCH  20  21
ATOM     21  C   UNL     1       4.268   5.597  17.244  0.00  0.00    +0.000 C 
BRANCH  21  22
ATOM     22  C   UNL     1       5.124   6.107  16.089  0.00  0.00    +0.000 C 
BRANCH  22  23
ATOM     23  C   UNL     1       6.547   5.573  16.227  0.00  0.00    +0.000 C 
BRANCH  23  24
ATOM     24  C   UNL     1       6.993   4.867  14.949  0.00  0.00    +0.000 C 
BRANCH  24  26
ATOM     25  C   UNL     1       6.167   3.644  12.905  0.00  0.00    +0.000 C 
ATOM     26  C   UNL     1       5.798   4.181  14.283  0.00  0.00    +0.000 C 
ENDBRANCH  24  26
ENDBRANCH  23  24
ENDBRANCH  22  23
ENDBRANCH  21  22
ENDBRANCH  20  21
ENDBRANCH  19  20
ENDBRANCH  18  19
ENDBRANCH  17  18
ENDBRANCH  16  17
ENDBRANCH  15  16
ENDBRANCH   1  15
TORSDOF 18
ENDMDL
