MODEL 1
REMARK VINA RESULT:      -8.2      0.000      0.000
REMARK  Name = 
REMARK  6 active torsions:
REMARK  status: ('A' for Active; 'I' for Inactive)
REMARK    1  A    between atoms: C_1  and  C_2
REMARK    2  A    between atoms: C_6  and  C_7
REMARK    3  A    between atoms: C_7  and  C_8
REMARK    4  A    between atoms: C_8  and  C_9
REMARK    5  A    between atoms: N_11  and  C_12
REMARK    6  A    between atoms: C_16  and  C_17
REMARK                            x       y       z     vdW  Elec       q    Type
REMARK                         _______ _______ _______ _____ _____    ______ ____
ROOT
ATOM      1  C   UNL     1       7.360   7.224  17.810  0.00  0.00    +0.000 C 
ATOM      2  O   UNL     1       7.505   6.464  18.763  0.00  0.00    +0.000 OA
ATOM      3  N   UNL     1       6.295   7.190  16.924  0.00  0.00    +0.000 N 
ATOM      4  H   UNL     1       6.500   7.424  15.959  0.00  0.00    +0.000 HD
ENDROOT
BRANCH   3   5
ATOM      5  C   UNL     1       5.288   6.269  17.135  0.00  0.00    +0.000 A 
ATOM      6  S   UNL     1       5.746   4.648  16.891  0.00  0.00    +0.000 S 
ATOM      7  C   UNL     1       4.231   4.094  17.441  0.00  0.00    +0.000 A 
ATOM      8  C   UNL     1       3.338   5.126  17.665  0.00  0.00    +0.000 A 
ATOM      9  C   UNL     1       3.968   6.401  17.490  0.00  0.00    +0.000 A 
ATOM     10  C   UNL     1       1.897   4.868  18.008  0.00  0.00    +0.000 C 
ATOM     11  C   UNL     1       1.668   3.434  18.504  0.00  0.00    +0.000 C 
ATOM     12  C   UNL     1       2.416   2.400  17.650  0.00  0.00    +0.000 C 
ATOM     13  C   UNL     1       3.932   2.640  17.645  0.00  0.00    +0.000 C 
BRANCH   9  14
ATOM     14  C   UNL     1       3.281   7.661  17.581  0.00  0.00    +0.000 C 
ATOM     15  N   UNL     1       2.675   8.649  17.600  0.00  0.00    +0.000 NA
ENDBRANCH   9  14
ENDBRANCH   3   5
BRANCH   1  16
ATOM     16  C   UNL     1       8.396   8.280  17.477  0.00  0.00    +0.000 C 
BRANCH  16  17
ATOM     17  C   UNL     1       7.953   9.630  18.024  0.00  0.00    +0.000 C 
BRANCH  17  23
ATOM     18  C   UNL     1      11.855  12.749  17.343  0.00  0.00    +0.000 C 
ATOM     19  C   UNL     1      10.966  11.972  18.268  0.00  0.00    +0.000 A 
ATOM     20  C   UNL     1      11.135  12.043  19.655  0.00  0.00    +0.000 A 
ATOM     21  C   UNL     1      10.297  11.319  20.504  0.00  0.00    +0.000 A 
ATOM     22  C   UNL     1       9.281  10.523  19.975  0.00  0.00    +0.000 A 
ATOM     23  C   UNL     1       9.085  10.449  18.591  0.00  0.00    +0.000 A 
ATOM     24  C   UNL     1       9.940  11.170  17.744  0.00  0.00    +0.000 A 
ENDBRANCH  17  23
ENDBRANCH  16  17
ENDBRANCH   1  16
TORSDOF 5
ENDMDL
MODEL 2
REMARK VINA RESULT:      -7.9      1.543      2.564
REMARK  Name = 
REMARK  6 active torsions:
REMARK  status: ('A' for Active; 'I' for Inactive)
REMARK    1  A    between atoms: C_1  and  C_2
REMARK    2  A    between atoms: C_6  and  C_7
REMARK    3  A    between atoms: C_7  and  C_8
REMARK    4  A    between atoms: C_8  and  C_9
REMARK    5  A    between atoms: N_11  and  C_12
REMARK    6  A    between atoms: C_16  and  C_17
REMARK                            x       y       z     vdW  Elec       q    Type
REMARK                         _______ _______ _______ _____ _____    ______ ____
ROOT
ATOM      1  C   UNL     1       6.874   6.863  17.923  0.00  0.00    +0.000 C 
ATOM      2  O   UNL     1       7.334   5.984  18.646  0.00  0.00    +0.000 OA
ATOM      3  N   UNL     1       5.587   6.874  17.409  0.00  0.00    +0.000 N 
ATOM      4  H   UNL     1       5.472   7.265  16.481  0.00  0.00    +0.000 HD
ENDROOT
BRANCH   3   5
ATOM      5  C   UNL     1       4.726   5.852  17.758  0.00  0.00    +0.000 A 
ATOM      6  S   UNL     1       3.713   6.200  19.081  0.00  0.00    +0.000 S 
ATOM      7  C   UNL     1       2.873   4.731  18.877  0.00  0.00    +0.000 A 
ATOM      8  C   UNL     1       3.448   3.921  17.915  0.00  0.00    +0.000 A 
ATOM      9  C   UNL     1       4.532   4.588  17.257  0.00  0.00    +0.000 A 
ATOM     10  C   UNL     1       2.970   2.516  17.672  0.00  0.00    +0.000 C 
ATOM     11  C   UNL     1       1.568   2.274  18.248  0.00  0.00    +0.000 C 
ATOM     12  C   UNL     1       1.411   2.870  19.655  0.00  0.00    +0.000 C 
ATOM     13  C   UNL     1       1.651   4.386  19.672  0.00  0.00    +0.000 C 
BRANCH   9  14
ATOM     14  C   UNL     1       5.373   3.979  16.263  0.00  0.00    +0.000 C 
ATOM     15  N   UNL     1       5.993   3.501  15.408  0.00  0.00    +0.000 NA
ENDBRANCH   9  14
ENDBRANCH   3   5
BRANCH   1  16
ATOM     16  C   UNL     1       7.719   8.039  17.473  0.00  0.00    +0.000 C 
BRANCH  16  17
ATOM     17  C   UNL     1       8.569   8.539  18.633  0.00  0.00    +0.000 C 
BRANCH  17  23
ATOM     18  C   UNL     1      11.224  12.537  20.177  0.00  0.00    +0.000 C 
ATOM     19  C   UNL     1      10.153  11.954  19.304  0.00  0.00    +0.000 A 
ATOM     20  C   UNL     1       9.458  12.753  18.389  0.00  0.00    +0.000 A 
ATOM     21  C   UNL     1       8.467  12.196  17.579  0.00  0.00    +0.000 A 
ATOM     22  C   UNL     1       8.166  10.838  17.673  0.00  0.00    +0.000 A 
ATOM     23  C   UNL     1       8.859  10.018  18.571  0.00  0.00    +0.000 A 
ATOM     24  C   UNL     1       9.845  10.588  19.391  0.00  0.00    +0.000 A 
ENDBRANCH  17  23
ENDBRANCH  16  17
ENDBRANCH   1  16
TORSDOF 5
ENDMDL
MODEL 3
REMARK VINA RESULT:      -7.8      1.217      1.695
REMARK  Name = 
REMARK  6 active torsions:
REMARK  status: ('A' for Active; 'I' for Inactive)
REMARK    1  A    between atoms: C_1  and  C_2
REMARK    2  A    between atoms: C_6  and  C_7
REMARK    3  A    between atoms: C_7  and  C_8
REMARK    4  A    between atoms: C_8  and  C_9
REMARK    5  A    between atoms: N_11  and  C_12
REMARK    6  A    between atoms: C_16  and  C_17
REMARK                            x       y       z     vdW  Elec       q    Type
REMARK                         _______ _______ _______ _____ _____    ______ ____
ROOT
ATOM      1  C   UNL     1       6.595   6.704  17.864  0.00  0.00    +0.000 C 
ATOM      2  O   UNL     1       6.863   5.993  18.829  0.00  0.00    +0.000 OA
ATOM      3  N   UNL     1       5.441   6.606  17.105  0.00  0.00    +0.000 N 
ATOM      4  H   UNL     1       5.532   6.797  16.113  0.00  0.00    +0.000 HD
ENDROOT
BRANCH   3   5
ATOM      5  C   UNL     1       4.486   5.677  17.467  0.00  0.00    +0.000 A 
ATOM      6  S   UNL     1       4.827   4.082  16.979  0.00  0.00    +0.000 S 
ATOM      7  C   UNL     1       3.470   3.490  17.823  0.00  0.00    +0.000 A 
ATOM      8  C   UNL     1       2.685   4.503  18.344  0.00  0.00    +0.000 A 
ATOM      9  C   UNL     1       3.292   5.784  18.137  0.00  0.00    +0.000 A 
ATOM     10  C   UNL     1       1.360   4.223  18.996  0.00  0.00    +0.000 C 
ATOM     11  C   UNL     1       1.213   2.752  19.404  0.00  0.00    +0.000 C 
ATOM     12  C   UNL     1       1.708   1.796  18.308  0.00  0.00    +0.000 C 
ATOM     13  C   UNL     1       3.186   2.025  17.964  0.00  0.00    +0.000 C 
BRANCH   9  14
ATOM     14  C   UNL     1       2.682   7.035  18.500  0.00  0.00    +0.000 C 
ATOM     15  N   UNL     1       2.243   8.047  18.854  0.00  0.00    +0.000 NA
ENDBRANCH   9  14
ENDBRANCH   3   5
BRANCH   1  16
ATOM     16  C   UNL     1       7.561   7.763  17.371  0.00  0.00    +0.000 C 
BRANCH  16  17
ATOM     17  C   UNL     1       8.505   8.167  18.495  0.00  0.00    +0.000 C 
BRANCH  17  23
ATOM     18  C   UNL     1      10.715  12.124  20.702  0.00  0.00    +0.000 C 
ATOM     19  C   UNL     1       9.828  11.572  19.626  0.00  0.00    +0.000 A 
ATOM     20  C   UNL     1       9.268  12.409  18.655  0.00  0.00    +0.000 A 
ATOM     21  C   UNL     1       8.448  11.881  17.657  0.00  0.00    +0.000 A 
ATOM     22  C   UNL     1       8.186  10.512  17.618  0.00  0.00    +0.000 A 
ATOM     23  C   UNL     1       8.747   9.654  18.571  0.00  0.00    +0.000 A 
ATOM     24  C   UNL     1       9.560  10.195  19.578  0.00  0.00    +0.000 A 
ENDBRANCH  17  23
ENDBRANCH  16  17
ENDBRANCH   1  16
TORSDOF 5
ENDMDL
MODEL 4
REMARK VINA RESULT:      -7.7      0.762      1.542
REMARK  Name = 
REMARK  6 active torsions:
REMARK  status: ('A' for Active; 'I' for Inactive)
REMARK    1  A    between atoms: C_1  and  C_2
REMARK    2  A    between atoms: C_6  and  C_7
REMARK    3  A    between atoms: C_7  and  C_8
REMARK    4  A    between atoms: C_8  and  C_9
REMARK    5  A    between atoms: N_11  and  C_12
REMARK    6  A    between atoms: C_16  and  C_17
REMARK                            x       y       z     vdW  Elec       q    Type
REMARK                         _______ _______ _______ _____ _____    ______ ____
ROOT
ATOM      1  C   UNL     1       7.148   7.358  17.895  0.00  0.00    +0.000 C 
ATOM      2  O   UNL     1       7.360   6.534  18.780  0.00  0.00    +0.000 OA
ATOM      3  N   UNL     1       6.053   7.344  17.046  0.00  0.00    +0.000 N 
ATOM      4  H   UNL     1       6.211   7.661  16.095  0.00  0.00    +0.000 HD
ENDROOT
BRANCH   3   5
ATOM      5  C   UNL     1       5.094   6.365  17.217  0.00  0.00    +0.000 A 
ATOM      6  S   UNL     1       5.617   4.788  16.849  0.00  0.00    +0.000 S 
ATOM      7  C   UNL     1       4.145   4.127  17.397  0.00  0.00    +0.000 A 
ATOM      8  C   UNL     1       3.214   5.099  17.715  0.00  0.00    +0.000 A 
ATOM      9  C   UNL     1       3.780   6.410  17.614  0.00  0.00    +0.000 A 
ATOM     10  C   UNL     1       1.796   4.750  18.076  0.00  0.00    +0.000 C 
ATOM     11  C   UNL     1       1.645   3.277  18.476  0.00  0.00    +0.000 C 
ATOM     12  C   UNL     1       2.414   2.340  17.533  0.00  0.00    +0.000 C 
ATOM     13  C   UNL     1       3.917   2.650  17.507  0.00  0.00    +0.000 C 
BRANCH   9  14
ATOM     14  C   UNL     1       3.041   7.628  17.810  0.00  0.00    +0.000 C 
ATOM     15  N   UNL     1       2.397   8.569  18.018  0.00  0.00    +0.000 NA
ENDBRANCH   9  14
ENDBRANCH   3   5
BRANCH   1  16
ATOM     16  C   UNL     1       8.124   8.483  17.611  0.00  0.00    +0.000 C 
BRANCH  16  17
ATOM     17  C   UNL     1       8.885   8.840  18.880  0.00  0.00    +0.000 C 
BRANCH  17  23
ATOM     18  C   UNL     1       9.722  12.957  21.666  0.00  0.00    +0.000 C 
ATOM     19  C   UNL     1       9.663  12.295  20.322  0.00  0.00    +0.000 A 
ATOM     20  C   UNL     1       9.990  13.000  19.158  0.00  0.00    +0.000 A 
ATOM     21  C   UNL     1       9.935  12.370  17.914  0.00  0.00    +0.000 A 
ATOM     22  C   UNL     1       9.559  11.030  17.823  0.00  0.00    +0.000 A 
ATOM     23  C   UNL     1       9.241  10.302  18.976  0.00  0.00    +0.000 A 
ATOM     24  C   UNL     1       9.286  10.947  20.221  0.00  0.00    +0.000 A 
ENDBRANCH  17  23
ENDBRANCH  16  17
ENDBRANCH   1  16
TORSDOF 5
ENDMDL
MODEL 5
REMARK VINA RESULT:      -7.7      1.370      2.357
REMARK  Name = 
REMARK  6 active torsions:
REMARK  status: ('A' for Active; 'I' for Inactive)
REMARK    1  A    between atoms: C_1  and  C_2
REMARK    2  A    between atoms: C_6  and  C_7
REMARK    3  A    between atoms: C_7  and  C_8
REMARK    4  A    between atoms: C_8  and  C_9
REMARK    5  A    between atoms: N_11  and  C_12
REMARK    6  A    between atoms: C_16  and  C_17
REMARK                            x       y       z     vdW  Elec       q    Type
REMARK                         _______ _______ _______ _____ _____    ______ ____
ROOT
ATOM      1  C   UNL     1       7.462   7.808  17.908  0.00  0.00    +0.000 C 
ATOM      2  O   UNL     1       7.785   6.967  18.742  0.00  0.00    +0.000 OA
ATOM      3  N   UNL     1       6.335   7.737  17.106  0.00  0.00    +0.000 N 
ATOM      4  H   UNL     1       6.421   8.109  16.166  0.00  0.00    +0.000 HD
ENDROOT
BRANCH   3   5
ATOM      5  C   UNL     1       5.472   6.671  17.269  0.00  0.00    +0.000 A 
ATOM      6  S   UNL     1       3.942   7.086  17.889  0.00  0.00    +0.000 S 
ATOM      7  C   UNL     1       3.382   5.489  17.688  0.00  0.00    +0.000 A 
ATOM      8  C   UNL     1       4.384   4.620  17.296  0.00  0.00    +0.000 A 
ATOM      9  C   UNL     1       5.607   5.322  17.046  0.00  0.00    +0.000 A 
ATOM     10  C   UNL     1       4.157   3.137  17.204  0.00  0.00    +0.000 C 
ATOM     11  C   UNL     1       2.666   2.782  17.144  0.00  0.00    +0.000 C 
ATOM     12  C   UNL     1       1.838   3.590  18.155  0.00  0.00    +0.000 C 
ATOM     13  C   UNL     1       1.953   5.102  17.920  0.00  0.00    +0.000 C 
BRANCH   9  14
ATOM     14  C   UNL     1       6.848   4.686  16.696  0.00  0.00    +0.000 C 
ATOM     15  N   UNL     1       7.823   4.172  16.338  0.00  0.00    +0.000 NA
ENDBRANCH   9  14
ENDBRANCH   3   5
BRANCH   1  16
ATOM     16  C   UNL     1       8.324   9.026  17.639  0.00  0.00    +0.000 C 
BRANCH  16  17
ATOM     17  C   UNL     1       9.097   9.401  18.896  0.00  0.00    +0.000 C 
BRANCH  17  23
ATOM     18  C   UNL     1      11.325  13.293  16.594  0.00  0.00    +0.000 C 
ATOM     19  C   UNL     1      10.625  12.728  17.794  0.00  0.00    +0.000 A 
ATOM     20  C   UNL     1      10.344  13.530  18.906  0.00  0.00    +0.000 A 
ATOM     21  C   UNL     1       9.687  12.993  20.013  0.00  0.00    +0.000 A 
ATOM     22  C   UNL     1       9.302  11.652  20.018  0.00  0.00    +0.000 A 
ATOM     23  C   UNL     1       9.561  10.836  18.910  0.00  0.00    +0.000 A 
ATOM     24  C   UNL     1      10.233  11.381  17.806  0.00  0.00    +0.000 A 
ENDBRANCH  17  23
ENDBRANCH  16  17
ENDBRANCH   1  16
TORSDOF 5
ENDMDL
MODEL 6
REMARK VINA RESULT:      -7.6      1.633      2.537
REMARK  Name = 
REMARK  6 active torsions:
REMARK  status: ('A' for Active; 'I' for Inactive)
REMARK    1  A    between atoms: C_1  and  C_2
REMARK    2  A    between atoms: C_6  and  C_7
REMARK    3  A    between atoms: C_7  and  C_8
REMARK    4  A    between atoms: C_8  and  C_9
REMARK    5  A    between atoms: N_11  and  C_12
REMARK    6  A    between atoms: C_16  and  C_17
REMARK                            x       y       z     vdW  Elec       q    Type
REMARK                         _______ _______ _______ _____ _____    ______ ____
ROOT
ATOM      1  C   UNL     1       6.766   6.763  17.952  0.00  0.00    +0.000 C 
ATOM      2  O   UNL     1       7.198   5.860  18.663  0.00  0.00    +0.000 OA
ATOM      3  N   UNL     1       5.477   6.829  17.449  0.00  0.00    +0.000 N 
ATOM      4  H   UNL     1       5.370   7.234  16.525  0.00  0.00    +0.000 HD
ENDROOT
BRANCH   3   5
ATOM      5  C   UNL     1       4.580   5.837  17.795  0.00  0.00    +0.000 A 
ATOM      6  S   UNL     1       3.557   6.230  19.097  0.00  0.00    +0.000 S 
ATOM      7  C   UNL     1       2.677   4.785  18.896  0.00  0.00    +0.000 A 
ATOM      8  C   UNL     1       3.242   3.947  17.951  0.00  0.00    +0.000 A 
ATOM      9  C   UNL     1       4.355   4.575  17.304  0.00  0.00    +0.000 A 
ATOM     10  C   UNL     1       2.724   2.556  17.715  0.00  0.00    +0.000 C 
ATOM     11  C   UNL     1       1.307   2.362  18.271  0.00  0.00    +0.000 C 
ATOM     12  C   UNL     1       1.146   2.977  19.670  0.00  0.00    +0.000 C 
ATOM     13  C   UNL     1       1.433   4.486  19.675  0.00  0.00    +0.000 C 
BRANCH   9  14
ATOM     14  C   UNL     1       5.192   3.930  16.329  0.00  0.00    +0.000 C 
ATOM     15  N   UNL     1       5.898   3.482  15.526  0.00  0.00    +0.000 NA
ENDBRANCH   9  14
ENDBRANCH   3   5
BRANCH   1  16
ATOM     16  C   UNL     1       7.652   7.910  17.507  0.00  0.00    +0.000 C 
BRANCH  16  17
ATOM     17  C   UNL     1       8.596   8.303  18.636  0.00  0.00    +0.000 C 
BRANCH  17  23
ATOM     18  C   UNL     1       7.804  12.975  16.916  0.00  0.00    +0.000 C 
ATOM     19  C   UNL     1       8.504  12.047  17.863  0.00  0.00    +0.000 A 
ATOM     20  C   UNL     1       9.390  12.538  18.828  0.00  0.00    +0.000 A 
ATOM     21  C   UNL     1      10.031  11.663  19.706  0.00  0.00    +0.000 A 
ATOM     22  C   UNL     1       9.790  10.292  19.630  0.00  0.00    +0.000 A 
ATOM     23  C   UNL     1       8.897   9.780  18.681  0.00  0.00    +0.000 A 
ATOM     24  C   UNL     1       8.266  10.666  17.794  0.00  0.00    +0.000 A 
ENDBRANCH  17  23
ENDBRANCH  16  17
ENDBRANCH   1  16
TORSDOF 5
ENDMDL
MODEL 7
REMARK VINA RESULT:      -7.6      1.405      2.677
REMARK  Name = 
REMARK  6 active torsions:
REMARK  status: ('A' for Active; 'I' for Inactive)
REMARK    1  A    between atoms: C_1  and  C_2
REMARK    2  A    between atoms: C_6  and  C_7
REMARK    3  A    between atoms: C_7  and  C_8
REMARK    4  A    between atoms: C_8  and  C_9
REMARK    5  A    between atoms: N_11  and  C_12
REMARK    6  A    between atoms: C_16  and  C_17
REMARK                            x       y       z     vdW  Elec       q    Type
REMARK                         _______ _______ _______ _____ _____    ______ ____
ROOT
ATOM      1  C   UNL     1       7.453   7.749  17.910  0.00  0.00    +0.000 C 
ATOM      2  O   UNL     1       7.801   6.884  18.709  0.00  0.00    +0.000 OA
ATOM      3  N   UNL     1       6.301   7.702  17.142  0.00  0.00    +0.000 N 
ATOM      4  H   UNL     1       6.358   8.101  16.211  0.00  0.00    +0.000 HD
ENDROOT
BRANCH   3   5
ATOM      5  C   UNL     1       5.441   6.632  17.302  0.00  0.00    +0.000 A 
ATOM      6  S   UNL     1       3.906   7.042  17.913  0.00  0.00    +0.000 S 
ATOM      7  C   UNL     1       3.354   5.443  17.711  0.00  0.00    +0.000 A 
ATOM      8  C   UNL     1       4.362   4.578  17.326  0.00  0.00    +0.000 A 
ATOM      9  C   UNL     1       5.583   5.284  17.081  0.00  0.00    +0.000 A 
ATOM     10  C   UNL     1       4.141   3.093  17.234  0.00  0.00    +0.000 C 
ATOM     11  C   UNL     1       2.651   2.732  17.167  0.00  0.00    +0.000 C 
ATOM     12  C   UNL     1       1.815   3.538  18.173  0.00  0.00    +0.000 C 
ATOM     13  C   UNL     1       1.925   5.050  17.937  0.00  0.00    +0.000 C 
BRANCH   9  14
ATOM     14  C   UNL     1       6.829   4.653  16.739  0.00  0.00    +0.000 C 
ATOM     15  N   UNL     1       7.820   4.166  16.387  0.00  0.00    +0.000 NA
ENDBRANCH   9  14
ENDBRANCH   3   5
BRANCH   1  16
ATOM     16  C   UNL     1       8.309   8.973  17.649  0.00  0.00    +0.000 C 
BRANCH  16  17
ATOM     17  C   UNL     1       9.004   9.403  18.933  0.00  0.00    +0.000 C 
BRANCH  17  23
ATOM     18  C   UNL     1      10.046  13.785  21.196  0.00  0.00    +0.000 C 
ATOM     19  C   UNL     1      10.083  12.921  19.971  0.00  0.00    +0.000 A 
ATOM     20  C   UNL     1      10.681  13.374  18.790  0.00  0.00    +0.000 A 
ATOM     21  C   UNL     1      10.712  12.557  17.659  0.00  0.00    +0.000 A 
ATOM     22  C   UNL     1      10.152  11.281  17.700  0.00  0.00    +0.000 A 
ATOM     23  C   UNL     1       9.562  10.803  18.875  0.00  0.00    +0.000 A 
ATOM     24  C   UNL     1       9.523  11.635  20.004  0.00  0.00    +0.000 A 
ENDBRANCH  17  23
ENDBRANCH  16  17
ENDBRANCH   1  16
TORSDOF 5
ENDMDL
MODEL 8
REMARK VINA RESULT:      -7.6      5.171      7.649
REMARK  Name = 
REMARK  6 active torsions:
REMARK  status: ('A' for Active; 'I' for Inactive)
REMARK    1  A    between atoms: C_1  and  C_2
REMARK    2  A    between atoms: C_6  and  C_7
REMARK    3  A    between atoms: C_7  and  C_8
REMARK    4  A    between atoms: C_8  and  C_9
REMARK    5  A    between atoms: N_11  and  C_12
REMARK    6  A    between atoms: C_16  and  C_17
REMARK                            x       y       z     vdW  Elec       q    Type
REMARK                         _______ _______ _______ _____ _____    ______ ____
ROOT
ATOM      1  C   UNL     1       6.138   4.753  15.712  0.00  0.00    +0.000 C 
ATOM      2  O   UNL     1       5.580   5.844  15.779  0.00  0.00    +0.000 OA
ATOM      3  N   UNL     1       5.848   3.663  16.516  0.00  0.00    +0.000 N 
ATOM      4  H   UNL     1       6.627   3.067  16.773  0.00  0.00    +0.000 HD
ENDROOT
BRANCH   3   5
ATOM      5  C   UNL     1       4.827   3.775  17.440  0.00  0.00    +0.000 A 
ATOM      6  S   UNL     1       3.311   3.227  16.891  0.00  0.00    +0.000 S 
ATOM      7  C   UNL     1       2.623   3.463  18.432  0.00  0.00    +0.000 A 
ATOM      8  C   UNL     1       3.489   4.087  19.311  0.00  0.00    +0.000 A 
ATOM      9  C   UNL     1       4.784   4.261  18.723  0.00  0.00    +0.000 A 
ATOM     10  C   UNL     1       3.049   4.532  20.678  0.00  0.00    +0.000 C 
ATOM     11  C   UNL     1       1.753   3.841  21.123  0.00  0.00    +0.000 C 
ATOM     12  C   UNL     1       0.710   3.787  19.996  0.00  0.00    +0.000 C 
ATOM     13  C   UNL     1       1.227   3.031  18.764  0.00  0.00    +0.000 C 
BRANCH   9  14
ATOM     14  C   UNL     1       5.876   4.945  19.361  0.00  0.00    +0.000 C 
ATOM     15  N   UNL     1       6.800   5.483  19.808  0.00  0.00    +0.000 NA
ENDBRANCH   9  14
ENDBRANCH   3   5
BRANCH   1  16
ATOM     16  C   UNL     1       7.271   4.504  14.735  0.00  0.00    +0.000 C 
BRANCH  16  17
ATOM     17  C   UNL     1       6.857   4.945  13.338  0.00  0.00    +0.000 C 
BRANCH  17  23
ATOM     18  C   UNL     1       3.054   2.867  10.763  0.00  0.00    +0.000 C 
ATOM     19  C   UNL     1       4.479   2.820  11.228  0.00  0.00    +0.000 A 
ATOM     20  C   UNL     1       5.329   1.779  10.839  0.00  0.00    +0.000 A 
ATOM     21  C   UNL     1       6.654   1.751  11.276  0.00  0.00    +0.000 A 
ATOM     22  C   UNL     1       7.142   2.765  12.100  0.00  0.00    +0.000 A 
ATOM     23  C   UNL     1       6.312   3.823  12.490  0.00  0.00    +0.000 A 
ATOM     24  C   UNL     1       4.978   3.836  12.057  0.00  0.00    +0.000 A 
ENDBRANCH  17  23
ENDBRANCH  16  17
ENDBRANCH   1  16
TORSDOF 5
ENDMDL
MODEL 9
REMARK VINA RESULT:      -7.5      5.278      7.246
REMARK  Name = 
REMARK  6 active torsions:
REMARK  status: ('A' for Active; 'I' for Inactive)
REMARK    1  A    between atoms: C_1  and  C_2
REMARK    2  A    between atoms: C_6  and  C_7
REMARK    3  A    between atoms: C_7  and  C_8
REMARK    4  A    between atoms: C_8  and  C_9
REMARK    5  A    between atoms: N_11  and  C_12
REMARK    6  A    between atoms: C_16  and  C_17
REMARK                            x       y       z     vdW  Elec       q    Type
REMARK                         _______ _______ _______ _____ _____    ______ ____
ROOT
ATOM      1  C   UNL     1       4.322   5.387  17.585  0.00  0.00    +0.000 C 
ATOM      2  O   UNL     1       5.156   5.957  18.283  0.00  0.00    +0.000 OA
ATOM      3  N   UNL     1       2.957   5.618  17.633  0.00  0.00    +0.000 N 
ATOM      4  H   UNL     1       2.355   4.818  17.476  0.00  0.00    +0.000 HD
ENDROOT
BRANCH   3   5
ATOM      5  C   UNL     1       2.479   6.590  18.490  0.00  0.00    +0.000 A 
ATOM      6  S   UNL     1       2.384   8.148  17.812  0.00  0.00    +0.000 S 
ATOM      7  C   UNL     1       1.625   8.755  19.213  0.00  0.00    +0.000 A 
ATOM      8  C   UNL     1       1.579   7.826  20.236  0.00  0.00    +0.000 A 
ATOM      9  C   UNL     1       2.077   6.555  19.803  0.00  0.00    +0.000 A 
ATOM     10  C   UNL     1       1.093   8.186  21.613  0.00  0.00    +0.000 C 
ATOM     11  C   UNL     1       0.274   9.484  21.617  0.00  0.00    +0.000 C 
ATOM     12  C   UNL     1       0.923  10.579  20.758  0.00  0.00    +0.000 C 
ATOM     13  C   UNL     1       1.081  10.149  19.293  0.00  0.00    +0.000 C 
BRANCH   9  14
ATOM     14  C   UNL     1       2.226   5.410  20.659  0.00  0.00    +0.000 C 
ATOM     15  N   UNL     1       2.297   4.446  21.300  0.00  0.00    +0.000 NA
ENDBRANCH   9  14
ENDBRANCH   3   5
BRANCH   1  16
ATOM     16  C   UNL     1       4.722   4.304  16.603  0.00  0.00    +0.000 C 
BRANCH  16  17
ATOM     17  C   UNL     1       6.207   4.418  16.282  0.00  0.00    +0.000 C 
BRANCH  17  23
ATOM     18  C   UNL     1       5.128   2.740  11.652  0.00  0.00    +0.000 C 
ATOM     19  C   UNL     1       5.979   3.579  12.559  0.00  0.00    +0.000 A 
ATOM     20  C   UNL     1       7.013   4.370  12.045  0.00  0.00    +0.000 A 
ATOM     21  C   UNL     1       7.794   5.149  12.899  0.00  0.00    +0.000 A 
ATOM     22  C   UNL     1       7.546   5.149  14.272  0.00  0.00    +0.000 A 
ATOM     23  C   UNL     1       6.507   4.376  14.805  0.00  0.00    +0.000 A 
ATOM     24  C   UNL     1       5.735   3.585  13.940  0.00  0.00    +0.000 A 
ENDBRANCH  17  23
ENDBRANCH  16  17
ENDBRANCH   1  16
TORSDOF 5
ENDMDL
