MODEL 1
REMARK VINA RESULT:      -7.6      0.000      0.000
REMARK  Name = 
REMARK  3 active torsions:
REMARK  status: ('A' for Active; 'I' for Inactive)
REMARK    1  A    between atoms: C_1  and  C_2
REMARK    2  A    between atoms: C_5  and  C_6
REMARK    3  A    between atoms: N_15  and  N_16
REMARK                            x       y       z     vdW  Elec       q    Type
REMARK                         _______ _______ _______ _____ _____    ______ ____
ROOT
ATOM      1  C   UNL     1       2.927   7.147  18.352  0.00  0.00    +0.000 A 
ATOM      2  N   UNL     1       2.502   8.265  17.832  0.00  0.00    +0.000 NA
ATOM      3  C   UNL     1       1.720   9.038  18.629  0.00  0.00    +0.000 A 
ATOM      4  S   UNL     1       1.140  10.564  18.113  0.00  0.00    +0.000 S 
ATOM      5  C   UNL     1       0.336  10.828  19.592  0.00  0.00    +0.000 A 
ATOM      6  C   UNL     1       0.495   9.780  20.478  0.00  0.00    +0.000 A 
ATOM      7  C   UNL     1       1.296   8.746  19.905  0.00  0.00    +0.000 A 
ATOM      8  C   UNL     1       1.689   7.481  20.476  0.00  0.00    +0.000 A 
ATOM      9  O   UNL     1       1.284   7.073  21.563  0.00  0.00    +0.000 OA
ATOM     10  N   UNL     1       2.562   6.730  19.659  0.00  0.00    +0.000 N 
ATOM     11  C   UNL     1      -0.130   9.783  21.842  0.00  0.00    +0.000 C 
ATOM     12  C   UNL     1      -0.592  11.188  22.255  0.00  0.00    +0.000 C 
ATOM     13  C   UNL     1      -1.327  11.899  21.110  0.00  0.00    +0.000 C 
ATOM     14  C   UNL     1      -0.418  12.090  19.883  0.00  0.00    +0.000 C 
ENDROOT
BRANCH   1  19
ATOM     15  C   UNL     1       6.160   3.846  14.808  0.00  0.00    +0.000 C 
ATOM     16  C   UNL     1       5.355   4.686  15.755  0.00  0.00    +0.000 A 
ATOM     17  C   UNL     1       4.381   4.097  16.563  0.00  0.00    +0.000 A 
ATOM     18  C   UNL     1       3.642   4.872  17.457  0.00  0.00    +0.000 A 
ATOM     19  C   UNL     1       3.793   6.263  17.501  0.00  0.00    +0.000 A 
ATOM     20  C   UNL     1       4.802   6.847  16.720  0.00  0.00    +0.000 A 
ATOM     21  C   UNL     1       5.580   6.062  15.861  0.00  0.00    +0.000 A 
ENDBRANCH   1  19
BRANCH  10  22
ATOM     22  N   UNL     1       2.979   5.472  20.213  0.00  0.00    +0.000 N 
ATOM     23  H   UNL     1       3.560   5.019  19.497  0.00  0.00    +0.000 HD
ATOM     24  H   UNL     1       3.608   5.664  20.994  0.00  0.00    +0.000 HD
ENDBRANCH  10  22
TORSDOF 2
ENDMDL
MODEL 2
REMARK VINA RESULT:      -7.6      2.152      7.773
REMARK  Name = 
REMARK  3 active torsions:
REMARK  status: ('A' for Active; 'I' for Inactive)
REMARK    1  A    between atoms: C_1  and  C_2
REMARK    2  A    between atoms: C_5  and  C_6
REMARK    3  A    between atoms: N_15  and  N_16
REMARK                            x       y       z     vdW  Elec       q    Type
REMARK                         _______ _______ _______ _____ _____    ______ ____
ROOT
ATOM      1  C   UNL     1       1.015   8.835  20.333  0.00  0.00    +0.000 A 
ATOM      2  N   UNL     1       1.174   7.650  20.854  0.00  0.00    +0.000 NA
ATOM      3  C   UNL     1       1.942   6.783  20.145  0.00  0.00    +0.000 A 
ATOM      4  S   UNL     1       2.297   5.213  20.728  0.00  0.00    +0.000 S 
ATOM      5  C   UNL     1       3.237   4.847  19.354  0.00  0.00    +0.000 A 
ATOM      6  C   UNL     1       3.290   5.894  18.454  0.00  0.00    +0.000 A 
ATOM      7  C   UNL     1       2.531   7.008  18.922  0.00  0.00    +0.000 A 
ATOM      8  C   UNL     1       2.309   8.285  18.289  0.00  0.00    +0.000 A 
ATOM      9  O   UNL     1       2.698   8.557  17.155  0.00  0.00    +0.000 OA
ATOM     10  N   UNL     1       1.571   9.195  19.077  0.00  0.00    +0.000 N 
ATOM     11  C   UNL     1       4.052   5.802  17.164  0.00  0.00    +0.000 C 
ATOM     12  C   UNL     1       5.040   4.626  17.168  0.00  0.00    +0.000 C 
ATOM     13  C   UNL     1       4.397   3.352  17.732  0.00  0.00    +0.000 C 
ATOM     14  C   UNL     1       3.950   3.539  19.192  0.00  0.00    +0.000 C 
ENDROOT
BRANCH   1  19
ATOM     15  C   UNL     1      -2.467  12.447  23.290  0.00  0.00    +0.000 C 
ATOM     16  C   UNL     1      -1.536  11.545  22.534  0.00  0.00    +0.000 A 
ATOM     17  C   UNL     1      -1.298  11.761  21.176  0.00  0.00    +0.000 A 
ATOM     18  C   UNL     1      -0.419  10.936  20.473  0.00  0.00    +0.000 A 
ATOM     19  C   UNL     1       0.169   9.824  21.086  0.00  0.00    +0.000 A 
ATOM     20  C   UNL     1      -0.037   9.634  22.461  0.00  0.00    +0.000 A 
ATOM     21  C   UNL     1      -0.877  10.493  23.178  0.00  0.00    +0.000 A 
ENDBRANCH   1  19
BRANCH  10  22
ATOM     22  N   UNL     1       1.349  10.479  18.473  0.00  0.00    +0.000 N 
ATOM     23  H   UNL     1       1.456  11.174  19.222  0.00  0.00    +0.000 HD
ATOM     24  H   UNL     1       2.115  10.659  17.822  0.00  0.00    +0.000 HD
ENDBRANCH  10  22
TORSDOF 2
ENDMDL
MODEL 3
REMARK VINA RESULT:      -7.5      0.629      1.200
REMARK  Name = 
REMARK  3 active torsions:
REMARK  status: ('A' for Active; 'I' for Inactive)
REMARK    1  A    between atoms: C_1  and  C_2
REMARK    2  A    between atoms: C_5  and  C_6
REMARK    3  A    between atoms: N_15  and  N_16
REMARK                            x       y       z     vdW  Elec       q    Type
REMARK                         _______ _______ _______ _____ _____    ______ ____
ROOT
ATOM      1  C   UNL     1       2.552   7.512  18.620  0.00  0.00    +0.000 A 
ATOM      2  N   UNL     1       2.115   8.606  18.061  0.00  0.00    +0.000 NA
ATOM      3  C   UNL     1       1.358   9.417  18.845  0.00  0.00    +0.000 A 
ATOM      4  S   UNL     1       0.766  10.921  18.276  0.00  0.00    +0.000 S 
ATOM      5  C   UNL     1       0.006  11.255  19.764  0.00  0.00    +0.000 A 
ATOM      6  C   UNL     1       0.189  10.248  20.692  0.00  0.00    +0.000 A 
ATOM      7  C   UNL     1       0.970   9.186  20.144  0.00  0.00    +0.000 A 
ATOM      8  C   UNL     1       1.377   7.948  20.761  0.00  0.00    +0.000 A 
ATOM      9  O   UNL     1       1.004   7.591  21.877  0.00  0.00    +0.000 OA
ATOM     10  N   UNL     1       2.224   7.156  19.955  0.00  0.00    +0.000 N 
ATOM     11  C   UNL     1      -0.396  10.316  22.072  0.00  0.00    +0.000 C 
ATOM     12  C   UNL     1      -0.842  11.740  22.433  0.00  0.00    +0.000 C 
ATOM     13  C   UNL     1      -1.608  12.400  21.279  0.00  0.00    +0.000 C 
ATOM     14  C   UNL     1      -0.736  12.532  20.018  0.00  0.00    +0.000 C 
ENDROOT
BRANCH   1  19
ATOM     15  C   UNL     1       5.895   3.791  15.638  0.00  0.00    +0.000 C 
ATOM     16  C   UNL     1       5.011   4.759  16.369  0.00  0.00    +0.000 A 
ATOM     17  C   UNL     1       5.319   6.121  16.377  0.00  0.00    +0.000 A 
ATOM     18  C   UNL     1       4.491   7.027  17.041  0.00  0.00    +0.000 A 
ATOM     19  C   UNL     1       3.391   6.586  17.785  0.00  0.00    +0.000 A 
ATOM     20  C   UNL     1       3.059   5.223  17.739  0.00  0.00    +0.000 A 
ATOM     21  C   UNL     1       3.860   4.321  17.030  0.00  0.00    +0.000 A 
ENDBRANCH   1  19
BRANCH  10  22
ATOM     22  N   UNL     1       2.654   5.924  20.553  0.00  0.00    +0.000 N 
ATOM     23  H   UNL     1       3.504   5.639  20.051  0.00  0.00    +0.000 HD
ATOM     24  H   UNL     1       2.957   6.125  21.508  0.00  0.00    +0.000 HD
ENDBRANCH  10  22
TORSDOF 2
ENDMDL
MODEL 4
REMARK VINA RESULT:      -7.4      2.646      3.556
REMARK  Name = 
REMARK  3 active torsions:
REMARK  status: ('A' for Active; 'I' for Inactive)
REMARK    1  A    between atoms: C_1  and  C_2
REMARK    2  A    between atoms: C_5  and  C_6
REMARK    3  A    between atoms: N_15  and  N_16
REMARK                            x       y       z     vdW  Elec       q    Type
REMARK                         _______ _______ _______ _____ _____    ______ ____
ROOT
ATOM      1  C   UNL     1       1.735   7.494  20.133  0.00  0.00    +0.000 A 
ATOM      2  N   UNL     1       1.233   7.772  21.304  0.00  0.00    +0.000 NA
ATOM      3  C   UNL     1       0.665   8.999  21.435  0.00  0.00    +0.000 A 
ATOM      4  S   UNL     1      -0.096   9.487  22.890  0.00  0.00    +0.000 S 
ATOM      5  C   UNL     1      -0.507  11.007  22.238  0.00  0.00    +0.000 A 
ATOM      6  C   UNL     1      -0.080  11.158  20.933  0.00  0.00    +0.000 A 
ATOM      7  C   UNL     1       0.603   9.989  20.482  0.00  0.00    +0.000 A 
ATOM      8  C   UNL     1       1.218   9.735  19.202  0.00  0.00    +0.000 A 
ATOM      9  O   UNL     1       1.314  10.581  18.316  0.00  0.00    +0.000 OA
ATOM     10  N   UNL     1       1.735   8.428  19.064  0.00  0.00    +0.000 N 
ATOM     11  C   UNL     1      -0.320  12.418  20.154  0.00  0.00    +0.000 C 
ATOM     12  C   UNL     1      -1.394  13.298  20.809  0.00  0.00    +0.000 C 
ATOM     13  C   UNL     1      -1.189  13.403  22.326  0.00  0.00    +0.000 C 
ATOM     14  C   UNL     1      -1.287  12.028  23.010  0.00  0.00    +0.000 C 
ENDROOT
BRANCH   1  19
ATOM     15  C   UNL     1       4.221   2.244  19.715  0.00  0.00    +0.000 C 
ATOM     16  C   UNL     1       3.569   3.594  19.779  0.00  0.00    +0.000 A 
ATOM     17  C   UNL     1       4.272   4.733  19.384  0.00  0.00    +0.000 A 
ATOM     18  C   UNL     1       3.664   5.988  19.426  0.00  0.00    +0.000 A 
ATOM     19  C   UNL     1       2.376   6.147  19.948  0.00  0.00    +0.000 A 
ATOM     20  C   UNL     1       1.655   4.997  20.303  0.00  0.00    +0.000 A 
ATOM     21  C   UNL     1       2.246   3.732  20.212  0.00  0.00    +0.000 A 
ENDBRANCH   1  19
BRANCH  10  22
ATOM     22  N   UNL     1       2.341   8.147  17.792  0.00  0.00    +0.000 N 
ATOM     23  H   UNL     1       3.286   7.797  17.993  0.00  0.00    +0.000 HD
ATOM     24  H   UNL     1       1.843   7.361  17.372  0.00  0.00    +0.000 HD
ENDBRANCH  10  22
TORSDOF 2
ENDMDL
MODEL 5
REMARK VINA RESULT:      -7.4      2.125      7.723
REMARK  Name = 
REMARK  3 active torsions:
REMARK  status: ('A' for Active; 'I' for Inactive)
REMARK    1  A    between atoms: C_1  and  C_2
REMARK    2  A    between atoms: C_5  and  C_6
REMARK    3  A    between atoms: N_15  and  N_16
REMARK                            x       y       z     vdW  Elec       q    Type
REMARK                         _______ _______ _______ _____ _____    ______ ____
ROOT
ATOM      1  C   UNL     1       1.010   8.796  20.288  0.00  0.00    +0.000 A 
ATOM      2  N   UNL     1       1.216   7.603  20.773  0.00  0.00    +0.000 NA
ATOM      3  C   UNL     1       2.021   6.790  20.040  0.00  0.00    +0.000 A 
ATOM      4  S   UNL     1       2.440   5.219  20.577  0.00  0.00    +0.000 S 
ATOM      5  C   UNL     1       3.395   4.934  19.195  0.00  0.00    +0.000 A 
ATOM      6  C   UNL     1       3.406   6.008  18.327  0.00  0.00    +0.000 A 
ATOM      7  C   UNL     1       2.601   7.076  18.826  0.00  0.00    +0.000 A 
ATOM      8  C   UNL     1       2.327   8.361  18.231  0.00  0.00    +0.000 A 
ATOM      9  O   UNL     1       2.706   8.682  17.107  0.00  0.00    +0.000 OA
ATOM     10  N   UNL     1       1.551   9.216  19.045  0.00  0.00    +0.000 N 
ATOM     11  C   UNL     1       4.172   5.987  17.037  0.00  0.00    +0.000 C 
ATOM     12  C   UNL     1       5.208   4.853  17.007  0.00  0.00    +0.000 C 
ATOM     13  C   UNL     1       4.618   3.537  17.532  0.00  0.00    +0.000 C 
ATOM     14  C   UNL     1       4.162   3.662  18.996  0.00  0.00    +0.000 C 
ENDROOT
BRANCH   1  19
ATOM     15  C   UNL     1      -2.228  12.616  23.260  0.00  0.00    +0.000 C 
ATOM     16  C   UNL     1      -1.429  11.605  22.491  0.00  0.00    +0.000 A 
ATOM     17  C   UNL     1      -0.832  10.532  23.154  0.00  0.00    +0.000 A 
ATOM     18  C   UNL     1      -0.103   9.579  22.441  0.00  0.00    +0.000 A 
ATOM     19  C   UNL     1       0.123   9.725  21.068  0.00  0.00    +0.000 A 
ATOM     20  C   UNL     1      -0.514  10.780  20.397  0.00  0.00    +0.000 A 
ATOM     21  C   UNL     1      -1.289  11.707  21.104  0.00  0.00    +0.000 A 
ENDBRANCH   1  19
BRANCH  10  22
ATOM     22  N   UNL     1       1.277  10.507  18.479  0.00  0.00    +0.000 N 
ATOM     23  H   UNL     1       1.383  10.407  17.462  0.00  0.00    +0.000 HD
ATOM     24  H   UNL     1       0.288  10.714  18.631  0.00  0.00    +0.000 HD
ENDBRANCH  10  22
TORSDOF 2
ENDMDL
MODEL 6
REMARK VINA RESULT:      -7.3      0.984      1.174
REMARK  Name = 
REMARK  3 active torsions:
REMARK  status: ('A' for Active; 'I' for Inactive)
REMARK    1  A    between atoms: C_1  and  C_2
REMARK    2  A    between atoms: C_5  and  C_6
REMARK    3  A    between atoms: N_15  and  N_16
REMARK                            x       y       z     vdW  Elec       q    Type
REMARK                         _______ _______ _______ _____ _____    ______ ____
ROOT
ATOM      1  C   UNL     1       2.224   7.785  18.970  0.00  0.00    +0.000 A 
ATOM      2  N   UNL     1       1.877   8.890  18.372  0.00  0.00    +0.000 NA
ATOM      3  C   UNL     1       1.139   9.762  19.107  0.00  0.00    +0.000 A 
ATOM      4  S   UNL     1       0.662  11.285  18.484  0.00  0.00    +0.000 S 
ATOM      5  C   UNL     1      -0.136  11.697  19.932  0.00  0.00    +0.000 A 
ATOM      6  C   UNL     1      -0.052  10.702  20.887  0.00  0.00    +0.000 A 
ATOM      7  C   UNL     1       0.686   9.584  20.394  0.00  0.00    +0.000 A 
ATOM      8  C   UNL     1       0.992   8.337  21.051  0.00  0.00    +0.000 A 
ATOM      9  O   UNL     1       0.553   8.028  22.157  0.00  0.00    +0.000 OA
ATOM     10  N   UNL     1       1.822   7.479  20.297  0.00  0.00    +0.000 N 
ATOM     11  C   UNL     1      -0.687  10.835  22.240  0.00  0.00    +0.000 C 
ATOM     12  C   UNL     1      -1.061  12.291  22.553  0.00  0.00    +0.000 C 
ATOM     13  C   UNL     1      -1.739  12.969  21.355  0.00  0.00    +0.000 C 
ATOM     14  C   UNL     1      -0.810  13.021  20.130  0.00  0.00    +0.000 C 
ENDROOT
BRANCH   1  19
ATOM     15  C   UNL     1       5.297   4.080  15.693  0.00  0.00    +0.000 C 
ATOM     16  C   UNL     1       4.529   5.021  16.573  0.00  0.00    +0.000 A 
ATOM     17  C   UNL     1       3.420   4.566  17.289  0.00  0.00    +0.000 A 
ATOM     18  C   UNL     1       2.713   5.433  18.122  0.00  0.00    +0.000 A 
ATOM     19  C   UNL     1       3.039   6.793  18.189  0.00  0.00    +0.000 A 
ATOM     20  C   UNL     1       4.179   7.239  17.504  0.00  0.00    +0.000 A 
ATOM     21  C   UNL     1       4.920   6.357  16.709  0.00  0.00    +0.000 A 
ENDBRANCH   1  19
BRANCH  10  22
ATOM     22  N   UNL     1       2.153   6.237  20.937  0.00  0.00    +0.000 N 
ATOM     23  H   UNL     1       2.348   5.566  20.184  0.00  0.00    +0.000 HD
ATOM     24  H   UNL     1       3.040   6.361  21.429  0.00  0.00    +0.000 HD
ENDBRANCH  10  22
TORSDOF 2
ENDMDL
MODEL 7
REMARK VINA RESULT:      -7.2      2.604      3.154
REMARK  Name = 
REMARK  3 active torsions:
REMARK  status: ('A' for Active; 'I' for Inactive)
REMARK    1  A    between atoms: C_1  and  C_2
REMARK    2  A    between atoms: C_5  and  C_6
REMARK    3  A    between atoms: N_15  and  N_16
REMARK                            x       y       z     vdW  Elec       q    Type
REMARK                         _______ _______ _______ _____ _____    ______ ____
ROOT
ATOM      1  C   UNL     1       1.956   7.126  19.481  0.00  0.00    +0.000 A 
ATOM      2  N   UNL     1       1.370   7.301  20.633  0.00  0.00    +0.000 NA
ATOM      3  C   UNL     1       0.911   8.554  20.886  0.00  0.00    +0.000 A 
ATOM      4  S   UNL     1       0.061   8.926  22.325  0.00  0.00    +0.000 S 
ATOM      5  C   UNL     1      -0.138  10.554  21.861  0.00  0.00    +0.000 A 
ATOM      6  C   UNL     1       0.428  10.828  20.631  0.00  0.00    +0.000 A 
ATOM      7  C   UNL     1       1.038   9.661  20.079  0.00  0.00    +0.000 A 
ATOM      8  C   UNL     1       1.748   9.512  18.833  0.00  0.00    +0.000 A 
ATOM      9  O   UNL     1       2.010  10.452  18.085  0.00  0.00    +0.000 OA
ATOM     10  N   UNL     1       2.150   8.186  18.557  0.00  0.00    +0.000 N 
ATOM     11  C   UNL     1       0.386  12.197  20.018  0.00  0.00    +0.000 C 
ATOM     12  C   UNL     1      -0.659  13.094  20.697  0.00  0.00    +0.000 C 
ATOM     13  C   UNL     1      -0.594  12.977  22.226  0.00  0.00    +0.000 C 
ATOM     14  C   UNL     1      -0.889  11.543  22.699  0.00  0.00    +0.000 C 
ENDROOT
BRANCH   1  19
ATOM     15  C   UNL     1       3.765   1.694  18.416  0.00  0.00    +0.000 C 
ATOM     16  C   UNL     1       3.324   3.108  18.656  0.00  0.00    +0.000 A 
ATOM     17  C   UNL     1       4.113   3.969  19.420  0.00  0.00    +0.000 A 
ATOM     18  C   UNL     1       3.715   5.290  19.632  0.00  0.00    +0.000 A 
ATOM     19  C   UNL     1       2.481   5.754  19.164  0.00  0.00    +0.000 A 
ATOM     20  C   UNL     1       1.710   4.901  18.360  0.00  0.00    +0.000 A 
ATOM     21  C   UNL     1       2.134   3.591  18.104  0.00  0.00    +0.000 A 
ENDBRANCH   1  19
BRANCH  10  22
ATOM     22  N   UNL     1       2.848   8.010  17.314  0.00  0.00    +0.000 N 
ATOM     23  H   UNL     1       2.140   7.739  16.620  0.00  0.00    +0.000 HD
ATOM     24  H   UNL     1       3.190   8.924  17.012  0.00  0.00    +0.000 HD
ENDBRANCH  10  22
TORSDOF 2
ENDMDL
MODEL 8
REMARK VINA RESULT:      -7.2      2.622      3.377
REMARK  Name = 
REMARK  3 active torsions:
REMARK  status: ('A' for Active; 'I' for Inactive)
REMARK    1  A    between atoms: C_1  and  C_2
REMARK    2  A    between atoms: C_5  and  C_6
REMARK    3  A    between atoms: N_15  and  N_16
REMARK                            x       y       z     vdW  Elec       q    Type
REMARK                         _______ _______ _______ _____ _____    ______ ____
ROOT
ATOM      1  C   UNL     1       1.744   7.394  20.153  0.00  0.00    +0.000 A 
ATOM      2  N   UNL     1       1.221   7.715  21.304  0.00  0.00    +0.000 NA
ATOM      3  C   UNL     1       0.707   8.968  21.400  0.00  0.00    +0.000 A 
ATOM      4  S   UNL     1      -0.072   9.514  22.824  0.00  0.00    +0.000 S 
ATOM      5  C   UNL     1      -0.395  11.040  22.137  0.00  0.00    +0.000 A 
ATOM      6  C   UNL     1       0.076  11.150  20.843  0.00  0.00    +0.000 A 
ATOM      7  C   UNL     1       0.717   9.943  20.430  0.00  0.00    +0.000 A 
ATOM      8  C   UNL     1       1.356   9.640  19.173  0.00  0.00    +0.000 A 
ATOM      9  O   UNL     1       1.515  10.466  18.276  0.00  0.00    +0.000 OA
ATOM     10  N   UNL     1       1.816   8.309  19.070  0.00  0.00    +0.000 N 
ATOM     11  C   UNL     1      -0.084  12.405  20.037  0.00  0.00    +0.000 C 
ATOM     12  C   UNL     1      -1.135  13.344  20.647  0.00  0.00    +0.000 C 
ATOM     13  C   UNL     1      -0.968  13.465  22.168  0.00  0.00    +0.000 C 
ATOM     14  C   UNL     1      -1.148  12.108  22.870  0.00  0.00    +0.000 C 
ENDROOT
BRANCH   1  19
ATOM     15  C   UNL     1       3.996   2.094  19.291  0.00  0.00    +0.000 C 
ATOM     16  C   UNL     1       3.430   3.458  19.556  0.00  0.00    +0.000 A 
ATOM     17  C   UNL     1       2.152   3.593  20.103  0.00  0.00    +0.000 A 
ATOM     18  C   UNL     1       1.628   4.858  20.366  0.00  0.00    +0.000 A 
ATOM     19  C   UNL     1       2.326   6.017  20.008  0.00  0.00    +0.000 A 
ATOM     20  C   UNL     1       3.627   5.879  19.499  0.00  0.00    +0.000 A 
ATOM     21  C   UNL     1       4.174   4.609  19.283  0.00  0.00    +0.000 A 
ENDBRANCH   1  19
BRANCH  10  22
ATOM     22  N   UNL     1       2.444   7.979  17.821  0.00  0.00    +0.000 N 
ATOM     23  H   UNL     1       1.768   8.215  17.085  0.00  0.00    +0.000 HD
ATOM     24  H   UNL     1       3.230   8.617  17.684  0.00  0.00    +0.000 HD
ENDBRANCH  10  22
TORSDOF 2
ENDMDL
MODEL 9
REMARK VINA RESULT:      -7.2      2.227      3.520
REMARK  Name = 
REMARK  3 active torsions:
REMARK  status: ('A' for Active; 'I' for Inactive)
REMARK    1  A    between atoms: C_1  and  C_2
REMARK    2  A    between atoms: C_5  and  C_6
REMARK    3  A    between atoms: N_15  and  N_16
REMARK                            x       y       z     vdW  Elec       q    Type
REMARK                         _______ _______ _______ _____ _____    ______ ____
ROOT
ATOM      1  C   UNL     1       0.907   9.305  20.065  0.00  0.00    +0.000 A 
ATOM      2  N   UNL     1       0.052   9.964  19.332  0.00  0.00    +0.000 NA
ATOM      3  C   UNL     1      -0.769  10.820  19.995  0.00  0.00    +0.000 A 
ATOM      4  S   UNL     1      -1.899  11.804  19.166  0.00  0.00    +0.000 S 
ATOM      5  C   UNL     1      -2.445  12.508  20.619  0.00  0.00    +0.000 A 
ATOM      6  C   UNL     1      -1.789  12.012  21.729  0.00  0.00    +0.000 A 
ATOM      7  C   UNL     1      -0.823  11.031  21.353  0.00  0.00    +0.000 A 
ATOM      8  C   UNL     1       0.060  10.259  22.193  0.00  0.00    +0.000 A 
ATOM      9  O   UNL     1       0.026  10.289  23.422  0.00  0.00    +0.000 OA
ATOM     10  N   UNL     1       0.955   9.433  21.478  0.00  0.00    +0.000 N 
ATOM     11  C   UNL     1      -2.107  12.476  23.120  0.00  0.00    +0.000 C 
ATOM     12  C   UNL     1      -2.909  13.785  23.115  0.00  0.00    +0.000 C 
ATOM     13  C   UNL     1      -4.040  13.750  22.078  0.00  0.00    +0.000 C 
ATOM     14  C   UNL     1      -3.496  13.576  20.649  0.00  0.00    +0.000 C 
ENDROOT
BRANCH   1  19
ATOM     15  C   UNL     1       4.285   5.561  17.154  0.00  0.00    +0.000 C 
ATOM     16  C   UNL     1       3.451   6.538  17.927  0.00  0.00    +0.000 A 
ATOM     17  C   UNL     1       2.916   6.179  19.166  0.00  0.00    +0.000 A 
ATOM     18  C   UNL     1       2.154   7.091  19.897  0.00  0.00    +0.000 A 
ATOM     19  C   UNL     1       1.832   8.346  19.370  0.00  0.00    +0.000 A 
ATOM     20  C   UNL     1       2.405   8.722  18.145  0.00  0.00    +0.000 A 
ATOM     21  C   UNL     1       3.214   7.826  17.436  0.00  0.00    +0.000 A 
ENDBRANCH   1  19
BRANCH  10  22
ATOM     22  N   UNL     1       1.854   8.664  22.293  0.00  0.00    +0.000 N 
ATOM     23  H   UNL     1       1.454   7.720  22.354  0.00  0.00    +0.000 HD
ATOM     24  H   UNL     1       2.731   8.556  21.780  0.00  0.00    +0.000 HD
ENDBRANCH  10  22
TORSDOF 2
ENDMDL
