MODEL 1
REMARK VINA RESULT:      -7.3      0.000      0.000
REMARK  Name = 
REMARK  8 active torsions:
REMARK  status: ('A' for Active; 'I' for Inactive)
REMARK    1  A    between atoms: C_2  and  C_4
REMARK    2  A    between atoms: C_4  and  C_5
REMARK    3  A    between atoms: C_7  and  C_8
REMARK    4  A    between atoms: C_8  and  C_9
REMARK    5  A    between atoms: C_9  and  C_10
REMARK    6  A    between atoms: C_10  and  N_11
REMARK    7  A    between atoms: N_16  and  C_17
REMARK    8  A    between atoms: C_17  and  C_18
REMARK                            x       y       z     vdW  Elec       q    Type
REMARK                         _______ _______ _______ _____ _____    ______ ____
ROOT
ATOM      1  C   UNL     1       6.569   4.471  14.428  0.00  0.00    +0.000 A 
ATOM      2  N   UNL     1       5.344   4.143  14.964  0.00  0.00    +0.000 NA
ATOM      3  C   UNL     1       5.549   4.156  16.268  0.00  0.00    +0.000 A 
ATOM      4  N   UNL     1       6.870   4.470  16.493  0.00  0.00    +0.000 N 
ATOM      5  N   UNL     1       7.519   4.703  15.338  0.00  0.00    +0.000 NA
ENDROOT
BRANCH   1   6
ATOM      6  C   UNL     1       6.813   4.564  12.967  0.00  0.00    +0.000 C 
BRANCH   6   8
ATOM      7  N   UNL     1       4.878   3.370  12.019  0.00  0.00    +0.000 N 
ATOM      8  C   UNL     1       6.230   3.392  12.201  0.00  0.00    +0.000 C 
ATOM      9  O   UNL     1       6.932   2.535  11.670  0.00  0.00    +0.000 OA
ATOM     10  H   UNL     1       4.477   2.558  11.569  0.00  0.00    +0.000 HD
ATOM     11  H   UNL     1       4.278   3.965  12.582  0.00  0.00    +0.000 HD
ENDBRANCH   6   8
ENDBRANCH   1   6
BRANCH   3  12
ATOM     12  C   UNL     1       4.554   3.870  17.345  0.00  0.00    +0.000 C 
BRANCH  12  13
ATOM     13  C   UNL     1       3.549   4.997  17.605  0.00  0.00    +0.000 C 
BRANCH  13  14
ATOM     14  C   UNL     1       2.114   4.518  17.835  0.00  0.00    +0.000 C 
BRANCH  14  15
ATOM     15  N   UNL     1       1.911   4.078  19.207  0.00  0.00    +0.000 N 
ATOM     16  C   UNL     1       1.167   3.011  19.623  0.00  0.00    +0.000 A 
ATOM     17  C   UNL     1       1.271   2.987  20.995  0.00  0.00    +0.000 A 
ATOM     18  C   UNL     1       2.102   4.079  21.307  0.00  0.00    +0.000 A 
ATOM     19  N   UNL     1       2.490   4.751  20.220  0.00  0.00    +0.000 NA
ENDBRANCH  14  15
ENDBRANCH  13  14
ENDBRANCH  12  13
ENDBRANCH   3  12
BRANCH   4  20
ATOM     20  C   UNL     1       7.579   4.657  17.734  0.00  0.00    +0.000 C 
BRANCH  20  21
ATOM     21  C   UNL     1       7.275   5.974  18.402  0.00  0.00    +0.000 C 
ATOM     22  F   UNL     1       8.355   6.566  18.954  0.00  0.00    +0.000 F 
ATOM     23  F   UNL     1       6.728   6.853  17.534  0.00  0.00    +0.000 F 
ATOM     24  F   UNL     1       6.377   5.786  19.401  0.00  0.00    +0.000 F 
ENDBRANCH  20  21
ENDBRANCH   4  20
TORSDOF 8
ENDMDL
MODEL 2
REMARK VINA RESULT:      -7.3      0.398      1.153
REMARK  Name = 
REMARK  8 active torsions:
REMARK  status: ('A' for Active; 'I' for Inactive)
REMARK    1  A    between atoms: C_2  and  C_4
REMARK    2  A    between atoms: C_4  and  C_5
REMARK    3  A    between atoms: C_7  and  C_8
REMARK    4  A    between atoms: C_8  and  C_9
REMARK    5  A    between atoms: C_9  and  C_10
REMARK    6  A    between atoms: C_10  and  N_11
REMARK    7  A    between atoms: N_16  and  C_17
REMARK    8  A    between atoms: C_17  and  C_18
REMARK                            x       y       z     vdW  Elec       q    Type
REMARK                         _______ _______ _______ _____ _____    ______ ____
ROOT
ATOM      1  C   UNL     1       6.630   4.487  14.470  0.00  0.00    +0.000 A 
ATOM      2  N   UNL     1       5.392   4.163  14.975  0.00  0.00    +0.000 NA
ATOM      3  C   UNL     1       5.566   4.163  16.282  0.00  0.00    +0.000 A 
ATOM      4  N   UNL     1       6.883   4.466  16.541  0.00  0.00    +0.000 N 
ATOM      5  N   UNL     1       7.560   4.704  15.404  0.00  0.00    +0.000 NA
ENDROOT
BRANCH   1   6
ATOM      6  C   UNL     1       6.909   4.592  13.016  0.00  0.00    +0.000 C 
BRANCH   6   8
ATOM      7  N   UNL     1       4.963   3.415  12.071  0.00  0.00    +0.000 N 
ATOM      8  C   UNL     1       6.318   3.442  12.223  0.00  0.00    +0.000 C 
ATOM      9  O   UNL     1       7.015   2.610  11.647  0.00  0.00    +0.000 OA
ATOM     10  H   UNL     1       4.558   2.616  11.602  0.00  0.00    +0.000 HD
ATOM     11  H   UNL     1       4.371   3.985  12.667  0.00  0.00    +0.000 HD
ENDBRANCH   6   8
ENDBRANCH   1   6
BRANCH   3  12
ATOM     12  C   UNL     1       4.544   3.874  17.334  0.00  0.00    +0.000 C 
BRANCH  12  13
ATOM     13  C   UNL     1       3.574   5.026  17.618  0.00  0.00    +0.000 C 
BRANCH  13  14
ATOM     14  C   UNL     1       2.133   4.582  17.883  0.00  0.00    +0.000 C 
BRANCH  14  15
ATOM     15  N   UNL     1       1.973   4.068  19.234  0.00  0.00    +0.000 N 
ATOM     16  C   UNL     1       2.457   4.623  20.385  0.00  0.00    +0.000 A 
ATOM     17  C   UNL     1       2.058   3.791  21.406  0.00  0.00    +0.000 A 
ATOM     18  C   UNL     1       1.336   2.766  20.767  0.00  0.00    +0.000 A 
ATOM     19  N   UNL     1       1.286   2.927  19.442  0.00  0.00    +0.000 NA
ENDBRANCH  14  15
ENDBRANCH  13  14
ENDBRANCH  12  13
ENDBRANCH   3  12
BRANCH   4  20
ATOM     20  C   UNL     1       7.564   4.637  17.801  0.00  0.00    +0.000 C 
BRANCH  20  21
ATOM     21  C   UNL     1       7.216   5.929  18.496  0.00  0.00    +0.000 C 
ATOM     22  F   UNL     1       6.594   6.824  17.700  0.00  0.00    +0.000 F 
ATOM     23  F   UNL     1       6.422   5.715  19.567  0.00  0.00    +0.000 F 
ATOM     24  F   UNL     1       8.347   6.526  18.948  0.00  0.00    +0.000 F 
ENDBRANCH  20  21
ENDBRANCH   4  20
TORSDOF 8
ENDMDL
MODEL 3
REMARK VINA RESULT:      -7.2      0.955      1.291
REMARK  Name = 
REMARK  8 active torsions:
REMARK  status: ('A' for Active; 'I' for Inactive)
REMARK    1  A    between atoms: C_2  and  C_4
REMARK    2  A    between atoms: C_4  and  C_5
REMARK    3  A    between atoms: C_7  and  C_8
REMARK    4  A    between atoms: C_8  and  C_9
REMARK    5  A    between atoms: C_9  and  C_10
REMARK    6  A    between atoms: C_10  and  N_11
REMARK    7  A    between atoms: N_16  and  C_17
REMARK    8  A    between atoms: C_17  and  C_18
REMARK                            x       y       z     vdW  Elec       q    Type
REMARK                         _______ _______ _______ _____ _____    ______ ____
ROOT
ATOM      1  C   UNL     1       6.545   4.382  14.463  0.00  0.00    +0.000 A 
ATOM      2  N   UNL     1       5.366   3.978  15.047  0.00  0.00    +0.000 NA
ATOM      3  C   UNL     1       5.612   4.032  16.342  0.00  0.00    +0.000 A 
ATOM      4  N   UNL     1       6.914   4.443  16.516  0.00  0.00    +0.000 N 
ATOM      5  N   UNL     1       7.505   4.699  15.336  0.00  0.00    +0.000 NA
ENDROOT
BRANCH   1   6
ATOM      6  C   UNL     1       6.732   4.463  12.994  0.00  0.00    +0.000 C 
BRANCH   6   8
ATOM      7  N   UNL     1       6.596   2.258  11.907  0.00  0.00    +0.000 N 
ATOM      8  C   UNL     1       5.944   3.407  12.244  0.00  0.00    +0.000 C 
ATOM      9  O   UNL     1       4.740   3.514  12.022  0.00  0.00    +0.000 OA
ATOM     10  H   UNL     1       6.096   1.579  11.348  0.00  0.00    +0.000 HD
ATOM     11  H   UNL     1       7.610   2.221  11.930  0.00  0.00    +0.000 HD
ENDBRANCH   6   8
ENDBRANCH   1   6
BRANCH   3  12
ATOM     12  C   UNL     1       4.676   3.696  17.459  0.00  0.00    +0.000 C 
BRANCH  12  13
ATOM     13  C   UNL     1       3.194   3.694  17.073  0.00  0.00    +0.000 C 
BRANCH  13  14
ATOM     14  C   UNL     1       2.366   2.610  17.768  0.00  0.00    +0.000 C 
BRANCH  14  15
ATOM     15  N   UNL     1       1.903   3.049  19.076  0.00  0.00    +0.000 N 
ATOM     16  C   UNL     1       1.773   2.281  20.198  0.00  0.00    +0.000 A 
ATOM     17  C   UNL     1       1.308   3.122  21.183  0.00  0.00    +0.000 A 
ATOM     18  C   UNL     1       1.192   4.375  20.553  0.00  0.00    +0.000 A 
ATOM     19  N   UNL     1       1.549   4.335  19.267  0.00  0.00    +0.000 NA
ENDBRANCH  14  15
ENDBRANCH  13  14
ENDBRANCH  12  13
ENDBRANCH   3  12
BRANCH   4  20
ATOM     20  C   UNL     1       7.649   4.705  17.729  0.00  0.00    +0.000 C 
BRANCH  20  21
ATOM     21  C   UNL     1       7.262   6.002  18.393  0.00  0.00    +0.000 C 
ATOM     22  F   UNL     1       6.651   6.875  17.564  0.00  0.00    +0.000 F 
ATOM     23  F   UNL     1       6.438   5.793  19.443  0.00  0.00    +0.000 F 
ATOM     24  F   UNL     1       8.369   6.622  18.870  0.00  0.00    +0.000 F 
ENDBRANCH  20  21
ENDBRANCH   4  20
TORSDOF 8
ENDMDL
MODEL 4
REMARK VINA RESULT:      -7.2      1.059      1.407
REMARK  Name = 
REMARK  8 active torsions:
REMARK  status: ('A' for Active; 'I' for Inactive)
REMARK    1  A    between atoms: C_2  and  C_4
REMARK    2  A    between atoms: C_4  and  C_5
REMARK    3  A    between atoms: C_7  and  C_8
REMARK    4  A    between atoms: C_8  and  C_9
REMARK    5  A    between atoms: C_9  and  C_10
REMARK    6  A    between atoms: C_10  and  N_11
REMARK    7  A    between atoms: N_16  and  C_17
REMARK    8  A    between atoms: C_17  and  C_18
REMARK                            x       y       z     vdW  Elec       q    Type
REMARK                         _______ _______ _______ _____ _____    ______ ____
ROOT
ATOM      1  C   UNL     1       6.474   4.416  14.119  0.00  0.00    +0.000 A 
ATOM      2  N   UNL     1       5.305   3.992  14.708  0.00  0.00    +0.000 NA
ATOM      3  C   UNL     1       5.308   4.579  15.890  0.00  0.00    +0.000 A 
ATOM      4  N   UNL     1       6.461   5.321  16.000  0.00  0.00    +0.000 N 
ATOM      5  N   UNL     1       7.193   5.252  14.874  0.00  0.00    +0.000 NA
ENDROOT
BRANCH   1   6
ATOM      6  C   UNL     1       6.898   3.988  12.763  0.00  0.00    +0.000 C 
BRANCH   6   8
ATOM      7  N   UNL     1       4.635   3.593  11.875  0.00  0.00    +0.000 N 
ATOM      8  C   UNL     1       5.882   3.085  12.091  0.00  0.00    +0.000 C 
ATOM      9  O   UNL     1       6.172   1.970  11.660  0.00  0.00    +0.000 OA
ATOM     10  H   UNL     1       3.935   2.973  11.489  0.00  0.00    +0.000 HD
ATOM     11  H   UNL     1       4.334   4.429  12.364  0.00  0.00    +0.000 HD
ENDBRANCH   6   8
ENDBRANCH   1   6
BRANCH   3  12
ATOM     12  C   UNL     1       4.268   4.472  16.959  0.00  0.00    +0.000 C 
BRANCH  12  13
ATOM     13  C   UNL     1       4.100   3.069  17.551  0.00  0.00    +0.000 C 
BRANCH  13  14
ATOM     14  C   UNL     1       2.644   2.650  17.771  0.00  0.00    +0.000 C 
BRANCH  14  15
ATOM     15  N   UNL     1       2.164   3.061  19.081  0.00  0.00    +0.000 N 
ATOM     16  C   UNL     1       2.553   2.558  20.290  0.00  0.00    +0.000 A 
ATOM     17  C   UNL     1       1.834   3.250  21.239  0.00  0.00    +0.000 A 
ATOM     18  C   UNL     1       1.043   4.148  20.499  0.00  0.00    +0.000 A 
ATOM     19  N   UNL     1       1.236   4.033  19.182  0.00  0.00    +0.000 NA
ENDBRANCH  14  15
ENDBRANCH  13  14
ENDBRANCH  12  13
ENDBRANCH   3  12
BRANCH   4  20
ATOM     20  C   UNL     1       6.913   6.180  17.066  0.00  0.00    +0.000 C 
BRANCH  20  21
ATOM     21  C   UNL     1       7.481   5.425  18.241  0.00  0.00    +0.000 C 
ATOM     22  F   UNL     1       6.553   5.049  19.146  0.00  0.00    +0.000 F 
ATOM     23  F   UNL     1       8.135   4.312  17.842  0.00  0.00    +0.000 F 
ATOM     24  F   UNL     1       8.377   6.202  18.897  0.00  0.00    +0.000 F 
ENDBRANCH  20  21
ENDBRANCH   4  20
TORSDOF 8
ENDMDL
MODEL 5
REMARK VINA RESULT:      -7.2      1.307      1.537
REMARK  Name = 
REMARK  8 active torsions:
REMARK  status: ('A' for Active; 'I' for Inactive)
REMARK    1  A    between atoms: C_2  and  C_4
REMARK    2  A    between atoms: C_4  and  C_5
REMARK    3  A    between atoms: C_7  and  C_8
REMARK    4  A    between atoms: C_8  and  C_9
REMARK    5  A    between atoms: C_9  and  C_10
REMARK    6  A    between atoms: C_10  and  N_11
REMARK    7  A    between atoms: N_16  and  C_17
REMARK    8  A    between atoms: C_17  and  C_18
REMARK                            x       y       z     vdW  Elec       q    Type
REMARK                         _______ _______ _______ _____ _____    ______ ____
ROOT
ATOM      1  C   UNL     1       6.410   4.399  14.221  0.00  0.00    +0.000 A 
ATOM      2  N   UNL     1       5.536   3.646  14.972  0.00  0.00    +0.000 NA
ATOM      3  C   UNL     1       5.494   4.266  16.136  0.00  0.00    +0.000 A 
ATOM      4  N   UNL     1       6.338   5.351  16.076  0.00  0.00    +0.000 N 
ATOM      5  N   UNL     1       6.899   5.465  14.859  0.00  0.00    +0.000 NA
ENDROOT
BRANCH   1   6
ATOM      6  C   UNL     1       6.775   4.059  12.823  0.00  0.00    +0.000 C 
BRANCH   6   8
ATOM      7  N   UNL     1       6.051   1.896  11.894  0.00  0.00    +0.000 N 
ATOM      8  C   UNL     1       5.730   3.199  12.139  0.00  0.00    +0.000 C 
ATOM      9  O   UNL     1       4.597   3.606  11.892  0.00  0.00    +0.000 OA
ATOM     10  H   UNL     1       5.386   1.336  11.377  0.00  0.00    +0.000 HD
ATOM     11  H   UNL     1       7.019   1.593  11.935  0.00  0.00    +0.000 HD
ENDBRANCH   6   8
ENDBRANCH   1   6
BRANCH   3  12
ATOM     12  C   UNL     1       4.697   3.882  17.340  0.00  0.00    +0.000 C 
BRANCH  12  13
ATOM     13  C   UNL     1       3.287   3.364  17.037  0.00  0.00    +0.000 C 
BRANCH  13  14
ATOM     14  C   UNL     1       2.834   2.212  17.938  0.00  0.00    +0.000 C 
BRANCH  14  15
ATOM     15  N   UNL     1       2.351   2.698  19.222  0.00  0.00    +0.000 N 
ATOM     16  C   UNL     1       1.183   3.368  19.457  0.00  0.00    +0.000 A 
ATOM     17  C   UNL     1       1.155   3.619  20.810  0.00  0.00    +0.000 A 
ATOM     18  C   UNL     1       2.350   3.060  21.300  0.00  0.00    +0.000 A 
ATOM     19  N   UNL     1       3.085   2.502  20.334  0.00  0.00    +0.000 NA
ENDBRANCH  14  15
ENDBRANCH  13  14
ENDBRANCH  12  13
ENDBRANCH   3  12
BRANCH   4  20
ATOM     20  C   UNL     1       6.609   6.370  17.061  0.00  0.00    +0.000 C 
BRANCH  20  21
ATOM     21  C   UNL     1       7.412   5.866  18.233  0.00  0.00    +0.000 C 
ATOM     22  F   UNL     1       6.667   5.601  19.328  0.00  0.00    +0.000 F 
ATOM     23  F   UNL     1       8.090   4.741  17.920  0.00  0.00    +0.000 F 
ATOM     24  F   UNL     1       8.327   6.797  18.598  0.00  0.00    +0.000 F 
ENDBRANCH  20  21
ENDBRANCH   4  20
TORSDOF 8
ENDMDL
MODEL 6
REMARK VINA RESULT:      -7.1      1.064      1.289
REMARK  Name = 
REMARK  8 active torsions:
REMARK  status: ('A' for Active; 'I' for Inactive)
REMARK    1  A    between atoms: C_2  and  C_4
REMARK    2  A    between atoms: C_4  and  C_5
REMARK    3  A    between atoms: C_7  and  C_8
REMARK    4  A    between atoms: C_8  and  C_9
REMARK    5  A    between atoms: C_9  and  C_10
REMARK    6  A    between atoms: C_10  and  N_11
REMARK    7  A    between atoms: N_16  and  C_17
REMARK    8  A    between atoms: C_17  and  C_18
REMARK                            x       y       z     vdW  Elec       q    Type
REMARK                         _______ _______ _______ _____ _____    ______ ____
ROOT
ATOM      1  C   UNL     1       6.531   4.463  14.316  0.00  0.00    +0.000 A 
ATOM      2  N   UNL     1       5.525   3.818  14.999  0.00  0.00    +0.000 NA
ATOM      3  C   UNL     1       5.506   4.409  16.179  0.00  0.00    +0.000 A 
ATOM      4  N   UNL     1       6.490   5.371  16.195  0.00  0.00    +0.000 N 
ATOM      5  N   UNL     1       7.125   5.437  15.011  0.00  0.00    +0.000 NA
ENDROOT
BRANCH   1   6
ATOM      6  C   UNL     1       6.920   4.112  12.928  0.00  0.00    +0.000 C 
BRANCH   6   8
ATOM      7  N   UNL     1       6.237   1.998  11.863  0.00  0.00    +0.000 N 
ATOM      8  C   UNL     1       5.878   3.263  12.225  0.00  0.00    +0.000 C 
ATOM      9  O   UNL     1       4.718   3.639  12.064  0.00  0.00    +0.000 OA
ATOM     10  H   UNL     1       5.570   1.452  11.335  0.00  0.00    +0.000 HD
ATOM     11  H   UNL     1       7.217   1.735  11.836  0.00  0.00    +0.000 HD
ENDBRANCH   6   8
ENDBRANCH   1   6
BRANCH   3  12
ATOM     12  C   UNL     1       4.602   4.107  17.330  0.00  0.00    +0.000 C 
BRANCH  12  13
ATOM     13  C   UNL     1       3.503   5.147  17.572  0.00  0.00    +0.000 C 
BRANCH  13  14
ATOM     14  C   UNL     1       3.278   5.490  19.047  0.00  0.00    +0.000 C 
BRANCH  14  15
ATOM     15  N   UNL     1       2.372   4.544  19.682  0.00  0.00    +0.000 N 
ATOM     16  C   UNL     1       1.401   3.803  19.070  0.00  0.00    +0.000 A 
ATOM     17  C   UNL     1       0.808   3.059  20.064  0.00  0.00    +0.000 A 
ATOM     18  C   UNL     1       1.495   3.422  21.237  0.00  0.00    +0.000 A 
ATOM     19  N   UNL     1       2.446   4.332  21.010  0.00  0.00    +0.000 NA
ENDBRANCH  14  15
ENDBRANCH  13  14
ENDBRANCH  12  13
ENDBRANCH   3  12
BRANCH   4  20
ATOM     20  C   UNL     1       6.843   6.318  17.223  0.00  0.00    +0.000 C 
BRANCH  20  21
ATOM     21  C   UNL     1       7.531   5.684  18.406  0.00  0.00    +0.000 C 
ATOM     22  F   UNL     1       8.490   6.458  18.955  0.00  0.00    +0.000 F 
ATOM     23  F   UNL     1       6.649   5.375  19.382  0.00  0.00    +0.000 F 
ATOM     24  F   UNL     1       8.128   4.529  18.025  0.00  0.00    +0.000 F 
ENDBRANCH  20  21
ENDBRANCH   4  20
TORSDOF 8
ENDMDL
MODEL 7
REMARK VINA RESULT:      -7.1      3.068      4.354
REMARK  Name = 
REMARK  8 active torsions:
REMARK  status: ('A' for Active; 'I' for Inactive)
REMARK    1  A    between atoms: C_2  and  C_4
REMARK    2  A    between atoms: C_4  and  C_5
REMARK    3  A    between atoms: C_7  and  C_8
REMARK    4  A    between atoms: C_8  and  C_9
REMARK    5  A    between atoms: C_9  and  C_10
REMARK    6  A    between atoms: C_10  and  N_11
REMARK    7  A    between atoms: N_16  and  C_17
REMARK    8  A    between atoms: C_17  and  C_18
REMARK                            x       y       z     vdW  Elec       q    Type
REMARK                         _______ _______ _______ _____ _____    ______ ____
ROOT
ATOM      1  C   UNL     1       7.171   5.594  18.191  0.00  0.00    +0.000 A 
ATOM      2  N   UNL     1       6.041   5.087  18.792  0.00  0.00    +0.000 NA
ATOM      3  C   UNL     1       5.507   4.309  17.870  0.00  0.00    +0.000 A 
ATOM      4  N   UNL     1       6.297   4.369  16.745  0.00  0.00    +0.000 N 
ATOM      5  N   UNL     1       7.371   5.153  16.946  0.00  0.00    +0.000 NA
ENDROOT
BRANCH   1   6
ATOM      6  C   UNL     1       8.090   6.542  18.867  0.00  0.00    +0.000 C 
BRANCH   6   8
ATOM      7  N   UNL     1       7.425   8.047  17.035  0.00  0.00    +0.000 N 
ATOM      8  C   UNL     1       8.132   7.899  18.192  0.00  0.00    +0.000 C 
ATOM      9  O   UNL     1       8.690   8.871  18.696  0.00  0.00    +0.000 OA
ATOM     10  H   UNL     1       7.504   8.928  16.545  0.00  0.00    +0.000 HD
ATOM     11  H   UNL     1       7.104   7.230  16.525  0.00  0.00    +0.000 HD
ENDBRANCH   6   8
ENDBRANCH   1   6
BRANCH   3  12
ATOM     12  C   UNL     1       4.254   3.500  17.980  0.00  0.00    +0.000 C 
BRANCH  12  13
ATOM     13  C   UNL     1       3.044   4.091  17.250  0.00  0.00    +0.000 C 
BRANCH  13  14
ATOM     14  C   UNL     1       2.057   4.824  18.162  0.00  0.00    +0.000 C 
BRANCH  14  15
ATOM     15  N   UNL     1       1.935   4.165  19.453  0.00  0.00    +0.000 N 
ATOM     16  C   UNL     1       2.515   4.552  20.628  0.00  0.00    +0.000 A 
ATOM     17  C   UNL     1       2.116   3.632  21.571  0.00  0.00    +0.000 A 
ATOM     18  C   UNL     1       1.296   2.733  20.864  0.00  0.00    +0.000 A 
ATOM     19  N   UNL     1       1.186   3.051  19.571  0.00  0.00    +0.000 NA
ENDBRANCH  14  15
ENDBRANCH  13  14
ENDBRANCH  12  13
ENDBRANCH   3  12
BRANCH   4  20
ATOM     20  C   UNL     1       6.176   3.670  15.489  0.00  0.00    +0.000 C 
BRANCH  20  21
ATOM     21  C   UNL     1       5.869   4.580  14.328  0.00  0.00    +0.000 C 
ATOM     22  F   UNL     1       5.205   5.702  14.677  0.00  0.00    +0.000 F 
ATOM     23  F   UNL     1       6.995   4.956  13.684  0.00  0.00    +0.000 F 
ATOM     24  F   UNL     1       5.091   3.929  13.427  0.00  0.00    +0.000 F 
ENDBRANCH  20  21
ENDBRANCH   4  20
TORSDOF 8
ENDMDL
MODEL 8
REMARK VINA RESULT:      -7.1      3.701      6.379
REMARK  Name = 
REMARK  8 active torsions:
REMARK  status: ('A' for Active; 'I' for Inactive)
REMARK    1  A    between atoms: C_2  and  C_4
REMARK    2  A    between atoms: C_4  and  C_5
REMARK    3  A    between atoms: C_7  and  C_8
REMARK    4  A    between atoms: C_8  and  C_9
REMARK    5  A    between atoms: C_9  and  C_10
REMARK    6  A    between atoms: C_10  and  N_11
REMARK    7  A    between atoms: N_16  and  C_17
REMARK    8  A    between atoms: C_17  and  C_18
REMARK                            x       y       z     vdW  Elec       q    Type
REMARK                         _______ _______ _______ _____ _____    ______ ____
ROOT
ATOM      1  C   UNL     1       3.417   3.425  19.195  0.00  0.00    +0.000 A 
ATOM      2  N   UNL     1       3.852   3.069  17.939  0.00  0.00    +0.000 NA
ATOM      3  C   UNL     1       4.102   4.221  17.346  0.00  0.00    +0.000 A 
ATOM      4  N   UNL     1       3.805   5.234  18.229  0.00  0.00    +0.000 N 
ATOM      5  N   UNL     1       3.401   4.742  19.414  0.00  0.00    +0.000 NA
ENDROOT
BRANCH   1   6
ATOM      6  C   UNL     1       3.006   2.433  20.219  0.00  0.00    +0.000 C 
BRANCH   6   8
ATOM      7  N   UNL     1       0.689   3.207  20.525  0.00  0.00    +0.000 N 
ATOM      8  C   UNL     1       1.890   2.940  21.112  0.00  0.00    +0.000 C 
ATOM      9  O   UNL     1       2.007   3.023  22.333  0.00  0.00    +0.000 OA
ATOM     10  H   UNL     1      -0.037   3.610  21.103  0.00  0.00    +0.000 HD
ATOM     11  H   UNL     1       0.624   3.305  19.517  0.00  0.00    +0.000 HD
ENDBRANCH   6   8
ENDBRANCH   1   6
BRANCH   3  12
ATOM     12  C   UNL     1       4.604   4.436  15.954  0.00  0.00    +0.000 C 
BRANCH  12  13
ATOM     13  C   UNL     1       5.944   3.760  15.646  0.00  0.00    +0.000 C 
BRANCH  13  14
ATOM     14  C   UNL     1       7.130   4.724  15.571  0.00  0.00    +0.000 C 
BRANCH  14  15
ATOM     15  N   UNL     1       7.396   5.343  16.861  0.00  0.00    +0.000 N 
ATOM     16  C   UNL     1       7.438   6.681  17.134  0.00  0.00    +0.000 A 
ATOM     17  C   UNL     1       7.720   6.787  18.477  0.00  0.00    +0.000 A 
ATOM     18  C   UNL     1       7.826   5.456  18.923  0.00  0.00    +0.000 A 
ATOM     19  N   UNL     1       7.635   4.572  17.940  0.00  0.00    +0.000 NA
ENDBRANCH  14  15
ENDBRANCH  13  14
ENDBRANCH  12  13
ENDBRANCH   3  12
BRANCH   4  20
ATOM     20  C   UNL     1       3.949   6.661  18.085  0.00  0.00    +0.000 C 
BRANCH  20  21
ATOM     21  C   UNL     1       2.633   7.398  18.100  0.00  0.00    +0.000 C 
ATOM     22  F   UNL     1       2.607   8.480  17.294  0.00  0.00    +0.000 F 
ATOM     23  F   UNL     1       1.613   6.592  17.734  0.00  0.00    +0.000 F 
ATOM     24  F   UNL     1       2.366   7.836  19.355  0.00  0.00    +0.000 F 
ENDBRANCH  20  21
ENDBRANCH   4  20
TORSDOF 8
ENDMDL
MODEL 9
REMARK VINA RESULT:      -7.1      1.054      1.517
REMARK  Name = 
REMARK  8 active torsions:
REMARK  status: ('A' for Active; 'I' for Inactive)
REMARK    1  A    between atoms: C_2  and  C_4
REMARK    2  A    between atoms: C_4  and  C_5
REMARK    3  A    between atoms: C_7  and  C_8
REMARK    4  A    between atoms: C_8  and  C_9
REMARK    5  A    between atoms: C_9  and  C_10
REMARK    6  A    between atoms: C_10  and  N_11
REMARK    7  A    between atoms: N_16  and  C_17
REMARK    8  A    between atoms: C_17  and  C_18
REMARK                            x       y       z     vdW  Elec       q    Type
REMARK                         _______ _______ _______ _____ _____    ______ ____
ROOT
ATOM      1  C   UNL     1       6.531   4.518  14.161  0.00  0.00    +0.000 A 
ATOM      2  N   UNL     1       5.388   4.039  14.760  0.00  0.00    +0.000 NA
ATOM      3  C   UNL     1       5.358   4.650  15.930  0.00  0.00    +0.000 A 
ATOM      4  N   UNL     1       6.467   5.459  16.023  0.00  0.00    +0.000 N 
ATOM      5  N   UNL     1       7.201   5.409  14.897  0.00  0.00    +0.000 NA
ENDROOT
BRANCH   1   6
ATOM      6  C   UNL     1       6.978   4.087  12.813  0.00  0.00    +0.000 C 
BRANCH   6   8
ATOM      7  N   UNL     1       4.709   3.622  11.974  0.00  0.00    +0.000 N 
ATOM      8  C   UNL     1       5.984   3.164  12.135  0.00  0.00    +0.000 C 
ATOM      9  O   UNL     1       6.310   2.082  11.651  0.00  0.00    +0.000 OA
ATOM     10  H   UNL     1       4.026   2.987  11.584  0.00  0.00    +0.000 HD
ATOM     11  H   UNL     1       4.385   4.425  12.505  0.00  0.00    +0.000 HD
ENDBRANCH   6   8
ENDBRANCH   1   6
BRANCH   3  12
ATOM     12  C   UNL     1       4.327   4.505  17.002  0.00  0.00    +0.000 C 
BRANCH  12  13
ATOM     13  C   UNL     1       4.222   3.100  17.605  0.00  0.00    +0.000 C 
BRANCH  13  14
ATOM     14  C   UNL     1       4.208   3.073  19.135  0.00  0.00    +0.000 C 
BRANCH  14  15
ATOM     15  N   UNL     1       2.916   3.481  19.664  0.00  0.00    +0.000 N 
ATOM     16  C   UNL     1       2.635   4.635  20.340  0.00  0.00    +0.000 A 
ATOM     17  C   UNL     1       1.293   4.585  20.638  0.00  0.00    +0.000 A 
ATOM     18  C   UNL     1       0.855   3.362  20.097  0.00  0.00    +0.000 A 
ATOM     19  N   UNL     1       1.842   2.683  19.507  0.00  0.00    +0.000 NA
ENDBRANCH  14  15
ENDBRANCH  13  14
ENDBRANCH  12  13
ENDBRANCH   3  12
BRANCH   4  20
ATOM     20  C   UNL     1       6.869   6.364  17.070  0.00  0.00    +0.000 C 
BRANCH  20  21
ATOM     21  C   UNL     1       7.469   5.666  18.264  0.00  0.00    +0.000 C 
ATOM     22  F   UNL     1       8.439   6.376  18.878  0.00  0.00    +0.000 F 
ATOM     23  F   UNL     1       6.530   5.374  19.189  0.00  0.00    +0.000 F 
ATOM     24  F   UNL     1       8.028   4.493  17.877  0.00  0.00    +0.000 F 
ENDBRANCH  20  21
ENDBRANCH   4  20
TORSDOF 8
ENDMDL
