MODEL 1
REMARK VINA RESULT:      -7.3      0.000      0.000
REMARK  Name = 
REMARK  4 active torsions:
REMARK  status: ('A' for Active; 'I' for Inactive)
REMARK    1  A    between atoms: C_1  and  C_2
REMARK    2  A    between atoms: C_2  and  C_3
REMARK    3  A    between atoms: C_4  and  C_5
REMARK    4  A    between atoms: C_5  and  N_6
REMARK                            x       y       z     vdW  Elec       q    Type
REMARK                         _______ _______ _______ _____ _____    ______ ____
ROOT
ATOM      1  N   UNL     1       4.437   5.841  17.847  0.00  0.00    +0.000 N 
ATOM      2  C   UNL     1       3.075   6.273  18.123  0.00  0.00    +0.000 C 
ATOM      3  C   UNL     1       2.070   5.160  17.830  0.00  0.00    +0.000 C 
ATOM      4  C   UNL     1       2.365   3.799  18.503  0.00  0.00    +0.000 C 
ATOM      5  C   UNL     1       2.385   3.854  20.036  0.00  0.00    +0.000 C 
ATOM      6  C   UNL     1       0.941   3.636  20.402  0.00  0.00    +0.000 C 
ATOM      7  C   UNL     1       0.533   2.607  19.375  0.00  0.00    +0.000 C 
ATOM      8  O   UNL     1       1.236   2.944  18.168  0.00  0.00    +0.000 OA
ATOM      9  C   UNL     1       3.620   3.139  17.895  0.00  0.00    +0.000 C 
ATOM     10  C   UNL     1       4.959   3.578  18.483  0.00  0.00    +0.000 C 
ATOM     11  C   UNL     1       5.072   5.053  18.783  0.00  0.00    +0.000 C 
ATOM     12  O   UNL     1       5.756   5.489  19.703  0.00  0.00    +0.000 OA
ENDROOT
BRANCH   1  13
ATOM     13  C   UNL     1       5.246   6.546  16.883  0.00  0.00    +0.000 C 
BRANCH  13  17
ATOM     14  C   UNL     1       6.290   4.319  13.861  0.00  0.00    +0.000 C 
ATOM     15  C   UNL     1       6.300   4.931  15.234  0.00  0.00    +0.000 C 
ATOM     16  C   UNL     1       7.426   4.565  16.153  0.00  0.00    +0.000 C 
ATOM     17  C   UNL     1       5.332   5.804  15.587  0.00  0.00    +0.000 C 
ENDBRANCH  13  17
ENDBRANCH   1  13
TORSDOF 2
ENDMDL
MODEL 2
REMARK VINA RESULT:      -6.8      1.788      2.504
REMARK  Name = 
REMARK  4 active torsions:
REMARK  status: ('A' for Active; 'I' for Inactive)
REMARK    1  A    between atoms: C_1  and  C_2
REMARK    2  A    between atoms: C_2  and  C_3
REMARK    3  A    between atoms: C_4  and  C_5
REMARK    4  A    between atoms: C_5  and  N_6
REMARK                            x       y       z     vdW  Elec       q    Type
REMARK                         _______ _______ _______ _____ _____    ______ ____
ROOT
ATOM      1  N   UNL     1       4.006   5.248  17.833  0.00  0.00    +0.000 N 
ATOM      2  C   UNL     1       4.240   5.415  19.259  0.00  0.00    +0.000 C 
ATOM      3  C   UNL     1       2.950   5.240  20.058  0.00  0.00    +0.000 C 
ATOM      4  C   UNL     1       2.161   3.939  19.776  0.00  0.00    +0.000 C 
ATOM      5  C   UNL     1       2.941   2.656  20.092  0.00  0.00    +0.000 C 
ATOM      6  C   UNL     1       2.645   2.430  21.550  0.00  0.00    +0.000 C 
ATOM      7  C   UNL     1       1.195   2.842  21.619  0.00  0.00    +0.000 C 
ATOM      8  O   UNL     1       1.047   3.945  20.712  0.00  0.00    +0.000 OA
ATOM      9  C   UNL     1       1.552   3.954  18.358  0.00  0.00    +0.000 C 
ATOM     10  C   UNL     1       2.471   3.494  17.229  0.00  0.00    +0.000 C 
ATOM     11  C   UNL     1       3.901   3.966  17.336  0.00  0.00    +0.000 C 
ATOM     12  O   UNL     1       4.847   3.309  16.915  0.00  0.00    +0.000 OA
ENDROOT
BRANCH   1  13
ATOM     13  C   UNL     1       4.310   6.316  16.913  0.00  0.00    +0.000 C 
BRANCH  13  17
ATOM     14  C   UNL     1       7.848   7.714  17.754  0.00  0.00    +0.000 C 
ATOM     15  C   UNL     1       6.781   6.837  17.163  0.00  0.00    +0.000 C 
ATOM     16  C   UNL     1       7.219   5.634  16.383  0.00  0.00    +0.000 C 
ATOM     17  C   UNL     1       5.479   7.128  17.373  0.00  0.00    +0.000 C 
ENDBRANCH  13  17
ENDBRANCH   1  13
TORSDOF 2
ENDMDL
MODEL 3
REMARK VINA RESULT:      -6.7      1.810      2.834
REMARK  Name = 
REMARK  4 active torsions:
REMARK  status: ('A' for Active; 'I' for Inactive)
REMARK    1  A    between atoms: C_1  and  C_2
REMARK    2  A    between atoms: C_2  and  C_3
REMARK    3  A    between atoms: C_4  and  C_5
REMARK    4  A    between atoms: C_5  and  N_6
REMARK                            x       y       z     vdW  Elec       q    Type
REMARK                         _______ _______ _______ _____ _____    ______ ____
ROOT
ATOM      1  N   UNL     1       6.078   5.232  16.346  0.00  0.00    +0.000 N 
ATOM      2  C   UNL     1       4.644   5.051  16.179  0.00  0.00    +0.000 C 
ATOM      3  C   UNL     1       4.042   4.277  17.352  0.00  0.00    +0.000 C 
ATOM      4  C   UNL     1       4.370   4.834  18.758  0.00  0.00    +0.000 C 
ATOM      5  C   UNL     1       3.870   6.266  18.993  0.00  0.00    +0.000 C 
ATOM      6  C   UNL     1       2.463   6.056  19.486  0.00  0.00    +0.000 C 
ATOM      7  C   UNL     1       2.638   4.830  20.350  0.00  0.00    +0.000 C 
ATOM      8  O   UNL     1       3.616   4.011  19.691  0.00  0.00    +0.000 OA
ATOM      9  C   UNL     1       5.862   4.641  19.098  0.00  0.00    +0.000 C 
ATOM     10  C   UNL     1       6.811   5.722  18.586  0.00  0.00    +0.000 C 
ATOM     11  C   UNL     1       6.515   6.226  17.195  0.00  0.00    +0.000 C 
ATOM     12  O   UNL     1       6.751   7.378  16.846  0.00  0.00    +0.000 OA
ENDROOT
BRANCH   1  13
ATOM     13  C   UNL     1       6.998   4.721  15.360  0.00  0.00    +0.000 C 
BRANCH  13  17
ATOM     14  C   UNL     1       5.665   3.103  12.076  0.00  0.00    +0.000 C 
ATOM     15  C   UNL     1       6.499   3.951  12.994  0.00  0.00    +0.000 C 
ATOM     16  C   UNL     1       7.506   4.870  12.372  0.00  0.00    +0.000 C 
ATOM     17  C   UNL     1       6.301   3.892  14.329  0.00  0.00    +0.000 C 
ENDBRANCH  13  17
ENDBRANCH   1  13
TORSDOF 2
ENDMDL
MODEL 4
REMARK VINA RESULT:      -6.6      1.046      1.201
REMARK  Name = 
REMARK  4 active torsions:
REMARK  status: ('A' for Active; 'I' for Inactive)
REMARK    1  A    between atoms: C_1  and  C_2
REMARK    2  A    between atoms: C_2  and  C_3
REMARK    3  A    between atoms: C_4  and  C_5
REMARK    4  A    between atoms: C_5  and  N_6
REMARK                            x       y       z     vdW  Elec       q    Type
REMARK                         _______ _______ _______ _____ _____    ______ ____
ROOT
ATOM      1  N   UNL     1       5.071   4.823  17.704  0.00  0.00    +0.000 N 
ATOM      2  C   UNL     1       3.795   5.509  17.577  0.00  0.00    +0.000 C 
ATOM      3  C   UNL     1       2.625   4.533  17.690  0.00  0.00    +0.000 C 
ATOM      4  C   UNL     1       2.638   3.617  18.937  0.00  0.00    +0.000 C 
ATOM      5  C   UNL     1       2.586   4.377  20.269  0.00  0.00    +0.000 C 
ATOM      6  C   UNL     1       1.108   4.548  20.503  0.00  0.00    +0.000 C 
ATOM      7  C   UNL     1       0.581   3.224  20.008  0.00  0.00    +0.000 C 
ATOM      8  O   UNL     1       1.395   2.862  18.881  0.00  0.00    +0.000 OA
ATOM      9  C   UNL     1       3.787   2.590  18.860  0.00  0.00    +0.000 C 
ATOM     10  C   UNL     1       5.149   3.071  19.354  0.00  0.00    +0.000 C 
ATOM     11  C   UNL     1       5.506   4.485  18.968  0.00  0.00    +0.000 C 
ATOM     12  O   UNL     1       6.206   5.205  19.672  0.00  0.00    +0.000 OA
ENDROOT
BRANCH   1  13
ATOM     13  C   UNL     1       6.042   4.882  16.639  0.00  0.00    +0.000 C 
BRANCH  13  17
ATOM     14  C   UNL     1       5.480   3.535  13.027  0.00  0.00    +0.000 C 
ATOM     15  C   UNL     1       6.127   4.239  14.186  0.00  0.00    +0.000 C 
ATOM     16  C   UNL     1       7.377   5.021  13.917  0.00  0.00    +0.000 C 
ATOM     17  C   UNL     1       5.559   4.181  15.410  0.00  0.00    +0.000 C 
ENDBRANCH  13  17
ENDBRANCH   1  13
TORSDOF 2
ENDMDL
MODEL 5
REMARK VINA RESULT:      -6.5      1.509      2.130
REMARK  Name = 
REMARK  4 active torsions:
REMARK  status: ('A' for Active; 'I' for Inactive)
REMARK    1  A    between atoms: C_1  and  C_2
REMARK    2  A    between atoms: C_2  and  C_3
REMARK    3  A    between atoms: C_4  and  C_5
REMARK    4  A    between atoms: C_5  and  N_6
REMARK                            x       y       z     vdW  Elec       q    Type
REMARK                         _______ _______ _______ _____ _____    ______ ____
ROOT
ATOM      1  N   UNL     1       4.911   4.484  16.953  0.00  0.00    +0.000 N 
ATOM      2  C   UNL     1       3.746   3.656  16.682  0.00  0.00    +0.000 C 
ATOM      3  C   UNL     1       3.436   2.731  17.858  0.00  0.00    +0.000 C 
ATOM      4  C   UNL     1       3.314   3.423  19.237  0.00  0.00    +0.000 C 
ATOM      5  C   UNL     1       2.193   4.468  19.312  0.00  0.00    +0.000 C 
ATOM      6  C   UNL     1       0.991   3.649  19.701  0.00  0.00    +0.000 C 
ATOM      7  C   UNL     1       1.607   2.672  20.672  0.00  0.00    +0.000 C 
ATOM      8  O   UNL     1       2.919   2.376  20.167  0.00  0.00    +0.000 OA
ATOM      9  C   UNL     1       4.681   3.953  19.716  0.00  0.00    +0.000 C 
ATOM     10  C   UNL     1       5.084   5.332  19.200  0.00  0.00    +0.000 C 
ATOM     11  C   UNL     1       4.748   5.595  17.752  0.00  0.00    +0.000 C 
ATOM     12  O   UNL     1       4.471   6.713  17.332  0.00  0.00    +0.000 OA
ENDROOT
BRANCH   1  13
ATOM     13  C   UNL     1       6.067   4.423  16.093  0.00  0.00    +0.000 C 
BRANCH  13  17
ATOM     14  C   UNL     1       5.868   3.319  12.362  0.00  0.00    +0.000 C 
ATOM     15  C   UNL     1       6.345   4.018  13.604  0.00  0.00    +0.000 C 
ATOM     16  C   UNL     1       7.453   5.017  13.459  0.00  0.00    +0.000 C 
ATOM     17  C   UNL     1       5.753   3.760  14.790  0.00  0.00    +0.000 C 
ENDBRANCH  13  17
ENDBRANCH   1  13
TORSDOF 2
ENDMDL
MODEL 6
REMARK VINA RESULT:      -6.4      1.816      2.570
REMARK  Name = 
REMARK  4 active torsions:
REMARK  status: ('A' for Active; 'I' for Inactive)
REMARK    1  A    between atoms: C_1  and  C_2
REMARK    2  A    between atoms: C_2  and  C_3
REMARK    3  A    between atoms: C_4  and  C_5
REMARK    4  A    between atoms: C_5  and  N_6
REMARK                            x       y       z     vdW  Elec       q    Type
REMARK                         _______ _______ _______ _____ _____    ______ ____
ROOT
ATOM      1  N   UNL     1       3.922   4.950  17.205  0.00  0.00    +0.000 N 
ATOM      2  C   UNL     1       3.151   3.717  17.150  0.00  0.00    +0.000 C 
ATOM      3  C   UNL     1       3.311   2.905  18.434  0.00  0.00    +0.000 C 
ATOM      4  C   UNL     1       3.035   3.672  19.749  0.00  0.00    +0.000 C 
ATOM      5  C   UNL     1       1.606   4.221  19.861  0.00  0.00    +0.000 C 
ATOM      6  C   UNL     1       0.847   3.068  20.463  0.00  0.00    +0.000 C 
ATOM      7  C   UNL     1       1.863   2.529  21.439  0.00  0.00    +0.000 C 
ATOM      8  O   UNL     1       3.146   2.684  20.811  0.00  0.00    +0.000 OA
ATOM      9  C   UNL     1       4.123   4.734  20.013  0.00  0.00    +0.000 C 
ATOM     10  C   UNL     1       3.921   6.084  19.329  0.00  0.00    +0.000 C 
ATOM     11  C   UNL     1       3.403   6.012  17.913  0.00  0.00    +0.000 C 
ATOM     12  O   UNL     1       2.684   6.880  17.429  0.00  0.00    +0.000 OA
ENDROOT
BRANCH   1  13
ATOM     13  C   UNL     1       4.944   5.216  16.222  0.00  0.00    +0.000 C 
BRANCH  13  17
ATOM     14  C   UNL     1       7.782   7.384  17.781  0.00  0.00    +0.000 C 
ATOM     15  C   UNL     1       7.008   6.171  17.348  0.00  0.00    +0.000 C 
ATOM     16  C   UNL     1       7.541   4.827  17.743  0.00  0.00    +0.000 C 
ATOM     17  C   UNL     1       5.857   6.318  16.659  0.00  0.00    +0.000 C 
ENDBRANCH  13  17
ENDBRANCH   1  13
TORSDOF 2
ENDMDL
MODEL 7
REMARK VINA RESULT:      -6.4      1.627      5.454
REMARK  Name = 
REMARK  4 active torsions:
REMARK  status: ('A' for Active; 'I' for Inactive)
REMARK    1  A    between atoms: C_1  and  C_2
REMARK    2  A    between atoms: C_2  and  C_3
REMARK    3  A    between atoms: C_4  and  C_5
REMARK    4  A    between atoms: C_5  and  N_6
REMARK                            x       y       z     vdW  Elec       q    Type
REMARK                         _______ _______ _______ _____ _____    ______ ____
ROOT
ATOM      1  N   UNL     1       2.442   4.357  18.058  0.00  0.00    +0.000 N 
ATOM      2  C   UNL     1       3.087   5.637  17.809  0.00  0.00    +0.000 C 
ATOM      3  C   UNL     1       4.374   5.777  18.621  0.00  0.00    +0.000 C 
ATOM      4  C   UNL     1       5.383   4.612  18.479  0.00  0.00    +0.000 C 
ATOM      5  C   UNL     1       5.896   4.402  17.048  0.00  0.00    +0.000 C 
ATOM      6  C   UNL     1       7.076   5.334  16.971  0.00  0.00    +0.000 C 
ATOM      7  C   UNL     1       7.665   5.171  18.351  0.00  0.00    +0.000 C 
ATOM      8  O   UNL     1       6.553   5.012  19.247  0.00  0.00    +0.000 OA
ATOM      9  C   UNL     1       4.840   3.324  19.132  0.00  0.00    +0.000 C 
ATOM     10  C   UNL     1       3.922   2.468  18.263  0.00  0.00    +0.000 C 
ATOM     11  C   UNL     1       2.938   3.241  17.419  0.00  0.00    +0.000 C 
ATOM     12  O   UNL     1       2.550   2.842  16.326  0.00  0.00    +0.000 OA
ENDROOT
BRANCH   1  13
ATOM     13  C   UNL     1       1.098   4.305  18.580  0.00  0.00    +0.000 C 
BRANCH  13  17
ATOM     14  C   UNL     1       1.352   2.402  21.970  0.00  0.00    +0.000 C 
ATOM     15  C   UNL     1       1.489   3.502  20.954  0.00  0.00    +0.000 C 
ATOM     16  C   UNL     1       2.230   4.739  21.362  0.00  0.00    +0.000 C 
ATOM     17  C   UNL     1       0.981   3.337  19.714  0.00  0.00    +0.000 C 
ENDBRANCH  13  17
ENDBRANCH   1  13
TORSDOF 2
ENDMDL
MODEL 8
REMARK VINA RESULT:      -6.4      2.971      4.225
REMARK  Name = 
REMARK  4 active torsions:
REMARK  status: ('A' for Active; 'I' for Inactive)
REMARK    1  A    between atoms: C_1  and  C_2
REMARK    2  A    between atoms: C_2  and  C_3
REMARK    3  A    between atoms: C_4  and  C_5
REMARK    4  A    between atoms: C_5  and  N_6
REMARK                            x       y       z     vdW  Elec       q    Type
REMARK                         _______ _______ _______ _____ _____    ______ ____
ROOT
ATOM      1  N   UNL     1       6.994   6.287  17.982  0.00  0.00    +0.000 N 
ATOM      2  C   UNL     1       6.563   5.213  18.863  0.00  0.00    +0.000 C 
ATOM      3  C   UNL     1       5.072   5.320  19.180  0.00  0.00    +0.000 C 
ATOM      4  C   UNL     1       4.135   5.440  17.954  0.00  0.00    +0.000 C 
ATOM      5  C   UNL     1       4.201   4.240  16.999  0.00  0.00    +0.000 C 
ATOM      6  C   UNL     1       3.192   3.287  17.582  0.00  0.00    +0.000 C 
ATOM      7  C   UNL     1       2.111   4.243  18.022  0.00  0.00    +0.000 C 
ATOM      8  O   UNL     1       2.783   5.423  18.491  0.00  0.00    +0.000 OA
ATOM      9  C   UNL     1       4.317   6.799  17.246  0.00  0.00    +0.000 C 
ATOM     10  C   UNL     1       5.453   6.878  16.229  0.00  0.00    +0.000 C 
ATOM     11  C   UNL     1       6.724   6.173  16.634  0.00  0.00    +0.000 C 
ATOM     12  O   UNL     1       7.481   5.656  15.820  0.00  0.00    +0.000 OA
ENDROOT
BRANCH   1  13
ATOM     13  C   UNL     1       8.030   7.201  18.397  0.00  0.00    +0.000 C 
BRANCH  13  17
ATOM     14  C   UNL     1       8.099  10.989  17.490  0.00  0.00    +0.000 C 
ATOM     15  C   UNL     1       8.412   9.701  18.198  0.00  0.00    +0.000 C 
ATOM     16  C   UNL     1       9.299   9.767  19.404  0.00  0.00    +0.000 C 
ATOM     17  C   UNL     1       7.870   8.545  17.760  0.00  0.00    +0.000 C 
ENDBRANCH  13  17
ENDBRANCH   1  13
TORSDOF 2
ENDMDL
MODEL 9
REMARK VINA RESULT:      -6.4      1.438      5.505
REMARK  Name = 
REMARK  4 active torsions:
REMARK  status: ('A' for Active; 'I' for Inactive)
REMARK    1  A    between atoms: C_1  and  C_2
REMARK    2  A    between atoms: C_2  and  C_3
REMARK    3  A    between atoms: C_4  and  C_5
REMARK    4  A    between atoms: C_5  and  N_6
REMARK                            x       y       z     vdW  Elec       q    Type
REMARK                         _______ _______ _______ _____ _____    ______ ____
ROOT
ATOM      1  N   UNL     1       2.832   5.446  18.474  0.00  0.00    +0.000 N 
ATOM      2  C   UNL     1       3.625   6.493  17.850  0.00  0.00    +0.000 C 
ATOM      3  C   UNL     1       5.091   6.082  17.729  0.00  0.00    +0.000 C 
ATOM      4  C   UNL     1       5.348   4.715  17.050  0.00  0.00    +0.000 C 
ATOM      5  C   UNL     1       4.843   4.634  15.603  0.00  0.00    +0.000 C 
ATOM      6  C   UNL     1       6.008   5.162  14.808  0.00  0.00    +0.000 C 
ATOM      7  C   UNL     1       7.170   4.571  15.569  0.00  0.00    +0.000 C 
ATOM      8  O   UNL     1       6.794   4.590  16.955  0.00  0.00    +0.000 OA
ATOM      9  C   UNL     1       4.856   3.553  17.937  0.00  0.00    +0.000 C 
ATOM     10  C   UNL     1       3.377   3.195  17.815  0.00  0.00    +0.000 C 
ATOM     11  C   UNL     1       2.442   4.374  17.700  0.00  0.00    +0.000 C 
ATOM     12  O   UNL     1       1.392   4.325  17.067  0.00  0.00    +0.000 OA
ENDROOT
BRANCH   1  13
ATOM     13  C   UNL     1       2.109   5.706  19.696  0.00  0.00    +0.000 C 
BRANCH  13  17
ATOM     14  C   UNL     1       2.070   2.659  22.123  0.00  0.00    +0.000 C 
ATOM     15  C   UNL     1       1.689   3.560  20.983  0.00  0.00    +0.000 C 
ATOM     16  C   UNL     1       0.485   3.188  20.172  0.00  0.00    +0.000 C 
ATOM     17  C   UNL     1       2.405   4.680  20.743  0.00  0.00    +0.000 C 
ENDBRANCH  13  17
ENDBRANCH   1  13
TORSDOF 2
ENDMDL
