MODEL 1
REMARK VINA RESULT:      -6.5      0.000      0.000
REMARK  Name = 
REMARK  8 active torsions:
REMARK  status: ('A' for Active; 'I' for Inactive)
REMARK    1  A    between atoms: C_1  and  O_2
REMARK    2  A    between atoms: O_2  and  C_3
REMARK    3  A    between atoms: C_3  and  C_5
REMARK    4  A    between atoms: C_8  and  N_9
REMARK    5  A    between atoms: N_9  and  C_10
REMARK    6  A    between atoms: C_10  and  N_12
REMARK    7  A    between atoms: C_13  and  C_15
REMARK    8  A    between atoms: N_20  and  C_21
REMARK                            x       y       z     vdW  Elec       q    Type
REMARK                         _______ _______ _______ _____ _____    ______ ____
ROOT
ATOM      1  C   UNL     1       7.027   6.830  17.645  0.00  0.00    +0.000 C 
ATOM      2  S   UNL     1       7.721   8.350  17.711  0.00  0.00    +0.000 S 
ENDROOT
BRANCH   1   3
ATOM      3  N   UNL     1       6.966   6.254  16.382  0.00  0.00    +0.000 N 
ATOM      4  C   UNL     1       7.391   5.000  15.966  0.00  0.00    +0.000 C 
ATOM      5  O   UNL     1       8.057   4.280  16.708  0.00  0.00    +0.000 OA
ATOM      6  H   UNL     1       6.471   6.828  15.709  0.00  0.00    +0.000 HD
BRANCH   4   7
ATOM      7  C   UNL     1       7.014   4.604  14.629  0.00  0.00    +0.000 A 
ATOM      8  C   UNL     1       7.548   4.903  13.387  0.00  0.00    +0.000 A 
ATOM      9 CL   UNL     1       8.903   5.842  12.987  0.00  0.00    +0.000 Cl
ATOM     10  C   UNL     1       6.698   4.296  12.446  0.00  0.00    +0.000 A 
ATOM     11  N   UNL     1       5.705   3.625  13.026  0.00  0.00    +0.000 NA
ATOM     12  N   UNL     1       5.907   3.829  14.343  0.00  0.00    +0.000 N 
ATOM     13  C   UNL     1       4.981   3.233  15.283  0.00  0.00    +0.000 C 
ENDBRANCH   4   7
ENDBRANCH   1   3
BRANCH   1  14
ATOM     14  N   UNL     1       6.439   6.093  18.652  0.00  0.00    +0.000 N 
ATOM     15  H   UNL     1       7.051   5.928  19.452  0.00  0.00    +0.000 HD
BRANCH  14  19
ATOM     16  C   UNL     1       2.687   4.145  18.854  0.00  0.00    +0.000 A 
ATOM     17  C   UNL     1       2.782   5.511  18.571  0.00  0.00    +0.000 A 
ATOM     18  C   UNL     1       4.042   6.119  18.473  0.00  0.00    +0.000 A 
ATOM     19  C   UNL     1       5.217   5.385  18.695  0.00  0.00    +0.000 A 
ATOM     20  C   UNL     1       5.113   4.012  18.917  0.00  0.00    +0.000 A 
ATOM     21  C   UNL     1       3.859   3.394  18.996  0.00  0.00    +0.000 A 
BRANCH  16  22
ATOM     22  C   UNL     1       1.386   3.445  19.010  0.00  0.00    +0.000 C 
ATOM     23  O   UNL     1       0.949   2.649  18.194  0.00  0.00    +0.000 OA
BRANCH  22  25
ATOM     24  C   UNL     1       1.262   2.966  21.290  0.00  0.00    +0.000 C 
ATOM     25  O   UNL     1       0.813   3.769  20.195  0.00  0.00    +0.000 OA
ENDBRANCH  22  25
ENDBRANCH  16  22
ENDBRANCH  14  19
ENDBRANCH   1  14
TORSDOF 6
ENDMDL
MODEL 2
REMARK VINA RESULT:      -6.4      4.951      7.897
REMARK  Name = 
REMARK  8 active torsions:
REMARK  status: ('A' for Active; 'I' for Inactive)
REMARK    1  A    between atoms: C_1  and  O_2
REMARK    2  A    between atoms: O_2  and  C_3
REMARK    3  A    between atoms: C_3  and  C_5
REMARK    4  A    between atoms: C_8  and  N_9
REMARK    5  A    between atoms: N_9  and  C_10
REMARK    6  A    between atoms: C_10  and  N_12
REMARK    7  A    between atoms: C_13  and  C_15
REMARK    8  A    between atoms: N_20  and  C_21
REMARK                            x       y       z     vdW  Elec       q    Type
REMARK                         _______ _______ _______ _____ _____    ______ ____
ROOT
ATOM      1  C   UNL     1       2.715   6.003  19.822  0.00  0.00    +0.000 C 
ATOM      2  S   UNL     1       1.617   4.767  20.072  0.00  0.00    +0.000 S 
ENDROOT
BRANCH   1   3
ATOM      3  N   UNL     1       2.231   7.287  20.042  0.00  0.00    +0.000 N 
ATOM      4  C   UNL     1       1.728   8.206  19.131  0.00  0.00    +0.000 C 
ATOM      5  O   UNL     1       1.816   8.007  17.920  0.00  0.00    +0.000 OA
ATOM      6  H   UNL     1       2.185   7.529  21.025  0.00  0.00    +0.000 HD
BRANCH   4   7
ATOM      7  C   UNL     1       1.114   9.391  19.684  0.00  0.00    +0.000 A 
ATOM      8  C   UNL     1       0.210   9.572  20.717  0.00  0.00    +0.000 A 
ATOM      9 CL   UNL     1      -0.490   8.430  21.758  0.00  0.00    +0.000 Cl
ATOM     10  C   UNL     1      -0.087  10.946  20.733  0.00  0.00    +0.000 A 
ATOM     11  N   UNL     1       0.594  11.617  19.805  0.00  0.00    +0.000 NA
ATOM     12  N   UNL     1       1.307  10.660  19.176  0.00  0.00    +0.000 N 
ATOM     13  C   UNL     1       2.170  11.052  18.082  0.00  0.00    +0.000 C 
ENDBRANCH   4   7
ENDBRANCH   1   3
BRANCH   1  14
ATOM     14  N   UNL     1       4.012   5.939  19.359  0.00  0.00    +0.000 N 
ATOM     15  H   UNL     1       4.708   6.247  20.038  0.00  0.00    +0.000 HD
BRANCH  14  19
ATOM     16  C   UNL     1       5.663   5.049  15.564  0.00  0.00    +0.000 A 
ATOM     17  C   UNL     1       5.402   4.040  16.497  0.00  0.00    +0.000 A 
ATOM     18  C   UNL     1       4.819   4.364  17.731  0.00  0.00    +0.000 A 
ATOM     19  C   UNL     1       4.527   5.695  18.065  0.00  0.00    +0.000 A 
ATOM     20  C   UNL     1       4.735   6.684  17.104  0.00  0.00    +0.000 A 
ATOM     21  C   UNL     1       5.299   6.366  15.862  0.00  0.00    +0.000 A 
BRANCH  16  22
ATOM     22  C   UNL     1       6.313   4.783  14.256  0.00  0.00    +0.000 C 
ATOM     23  O   UNL     1       7.395   5.248  13.935  0.00  0.00    +0.000 OA
BRANCH  22  25
ATOM     24  C   UNL     1       6.248   3.404  12.375  0.00  0.00    +0.000 C 
ATOM     25  O   UNL     1       5.570   3.915  13.525  0.00  0.00    +0.000 OA
ENDBRANCH  22  25
ENDBRANCH  16  22
ENDBRANCH  14  19
ENDBRANCH   1  14
TORSDOF 6
ENDMDL
MODEL 3
REMARK VINA RESULT:      -6.4      4.620      5.770
REMARK  Name = 
REMARK  8 active torsions:
REMARK  status: ('A' for Active; 'I' for Inactive)
REMARK    1  A    between atoms: C_1  and  O_2
REMARK    2  A    between atoms: O_2  and  C_3
REMARK    3  A    between atoms: C_3  and  C_5
REMARK    4  A    between atoms: C_8  and  N_9
REMARK    5  A    between atoms: N_9  and  C_10
REMARK    6  A    between atoms: C_10  and  N_12
REMARK    7  A    between atoms: C_13  and  C_15
REMARK    8  A    between atoms: N_20  and  C_21
REMARK                            x       y       z     vdW  Elec       q    Type
REMARK                         _______ _______ _______ _____ _____    ______ ____
ROOT
ATOM      1  C   UNL     1       2.914   5.752  19.462  0.00  0.00    +0.000 C 
ATOM      2  S   UNL     1       2.234   4.263  19.800  0.00  0.00    +0.000 S 
ENDROOT
BRANCH   1   3
ATOM      3  N   UNL     1       3.872   5.757  18.455  0.00  0.00    +0.000 N 
ATOM      4  C   UNL     1       5.243   5.566  18.546  0.00  0.00    +0.000 C 
ATOM      5  O   UNL     1       5.804   5.524  19.640  0.00  0.00    +0.000 OA
ATOM      6  H   UNL     1       3.471   5.844  17.529  0.00  0.00    +0.000 HD
BRANCH   4   7
ATOM      7  C   UNL     1       5.958   5.431  17.297  0.00  0.00    +0.000 A 
ATOM      8  C   UNL     1       5.866   4.507  16.270  0.00  0.00    +0.000 A 
ATOM      9 CL   UNL     1       4.819   3.184  16.093  0.00  0.00    +0.000 Cl
ATOM     10  C   UNL     1       6.882   4.841  15.359  0.00  0.00    +0.000 A 
ATOM     11  N   UNL     1       7.565   5.919  15.741  0.00  0.00    +0.000 NA
ATOM     12  N   UNL     1       6.998   6.256  16.918  0.00  0.00    +0.000 N 
ATOM     13  C   UNL     1       7.517   7.406  17.628  0.00  0.00    +0.000 C 
ENDBRANCH   4   7
ENDBRANCH   1   3
BRANCH   1  14
ATOM     14  N   UNL     1       2.715   6.966  20.086  0.00  0.00    +0.000 N 
ATOM     15  H   UNL     1       3.162   7.038  21.000  0.00  0.00    +0.000 HD
BRANCH  14  19
ATOM     16  C   UNL     1       0.029  10.133  19.266  0.00  0.00    +0.000 A 
ATOM     17  C   UNL     1       0.137   9.587  20.548  0.00  0.00    +0.000 A 
ATOM     18  C   UNL     1       1.065   8.564  20.797  0.00  0.00    +0.000 A 
ATOM     19  C   UNL     1       1.863   8.048  19.765  0.00  0.00    +0.000 A 
ATOM     20  C   UNL     1       1.790   8.640  18.504  0.00  0.00    +0.000 A 
ATOM     21  C   UNL     1       0.880   9.676  18.254  0.00  0.00    +0.000 A 
BRANCH  16  22
ATOM     22  C   UNL     1      -0.957  11.190  18.924  0.00  0.00    +0.000 C 
ATOM     23  O   UNL     1      -0.761  12.380  19.116  0.00  0.00    +0.000 OA
BRANCH  22  25
ATOM     24  C   UNL     1      -2.349  11.231  17.053  0.00  0.00    +0.000 C 
ATOM     25  O   UNL     1      -2.045  10.648  18.322  0.00  0.00    +0.000 OA
ENDBRANCH  22  25
ENDBRANCH  16  22
ENDBRANCH  14  19
ENDBRANCH   1  14
TORSDOF 6
ENDMDL
MODEL 4
REMARK VINA RESULT:      -6.3      6.144      7.399
REMARK  Name = 
REMARK  8 active torsions:
REMARK  status: ('A' for Active; 'I' for Inactive)
REMARK    1  A    between atoms: C_1  and  O_2
REMARK    2  A    between atoms: O_2  and  C_3
REMARK    3  A    between atoms: C_3  and  C_5
REMARK    4  A    between atoms: C_8  and  N_9
REMARK    5  A    between atoms: N_9  and  C_10
REMARK    6  A    between atoms: C_10  and  N_12
REMARK    7  A    between atoms: C_13  and  C_15
REMARK    8  A    between atoms: N_20  and  C_21
REMARK                            x       y       z     vdW  Elec       q    Type
REMARK                         _______ _______ _______ _____ _____    ______ ____
ROOT
ATOM      1  C   UNL     1       2.127   7.678  19.156  0.00  0.00    +0.000 C 
ATOM      2  S   UNL     1       2.193   8.733  17.861  0.00  0.00    +0.000 S 
ENDROOT
BRANCH   1   3
ATOM      3  N   UNL     1       2.191   6.328  18.832  0.00  0.00    +0.000 N 
ATOM      4  C   UNL     1       3.147   5.385  19.181  0.00  0.00    +0.000 C 
ATOM      5  O   UNL     1       4.197   5.721  19.728  0.00  0.00    +0.000 OA
ATOM      6  H   UNL     1       1.373   6.003  18.331  0.00  0.00    +0.000 HD
BRANCH   4   7
ATOM      7  C   UNL     1       2.841   4.010  18.860  0.00  0.00    +0.000 A 
ATOM      8  C   UNL     1       2.052   3.063  19.491  0.00  0.00    +0.000 A 
ATOM      9 CL   UNL     1       1.104   3.200  20.891  0.00  0.00    +0.000 Cl
ATOM     10  C   UNL     1       2.213   1.876  18.756  0.00  0.00    +0.000 A 
ATOM     11  N   UNL     1       3.017   2.040  17.707  0.00  0.00    +0.000 NA
ATOM     12  N   UNL     1       3.394   3.332  17.792  0.00  0.00    +0.000 N 
ATOM     13  C   UNL     1       4.298   3.853  16.787  0.00  0.00    +0.000 C 
ENDBRANCH   4   7
ENDBRANCH   1   3
BRANCH   1  14
ATOM     14  N   UNL     1       1.946   7.950  20.496  0.00  0.00    +0.000 N 
ATOM     15  H   UNL     1       2.404   7.282  21.118  0.00  0.00    +0.000 HD
BRANCH  14  19
ATOM     16  C   UNL     1      -0.501  10.871  22.338  0.00  0.00    +0.000 A 
ATOM     17  C   UNL     1      -0.148  10.966  20.989  0.00  0.00    +0.000 A 
ATOM     18  C   UNL     1       0.633   9.961  20.398  0.00  0.00    +0.000 A 
ATOM     19  C   UNL     1       1.102   8.875  21.152  0.00  0.00    +0.000 A 
ATOM     20  C   UNL     1       0.694   8.759  22.480  0.00  0.00    +0.000 A 
ATOM     21  C   UNL     1      -0.102   9.749  23.071  0.00  0.00    +0.000 A 
BRANCH  16  22
ATOM     22  C   UNL     1      -1.292  11.916  23.036  0.00  0.00    +0.000 C 
ATOM     23  O   UNL     1      -0.879  13.046  23.244  0.00  0.00    +0.000 OA
BRANCH  22  25
ATOM     24  C   UNL     1      -3.445  12.475  23.740  0.00  0.00    +0.000 C 
ATOM     25  O   UNL     1      -2.531  11.453  23.334  0.00  0.00    +0.000 OA
ENDBRANCH  22  25
ENDBRANCH  16  22
ENDBRANCH  14  19
ENDBRANCH   1  14
TORSDOF 6
ENDMDL
MODEL 5
REMARK VINA RESULT:      -6.3      6.056      7.370
REMARK  Name = 
REMARK  8 active torsions:
REMARK  status: ('A' for Active; 'I' for Inactive)
REMARK    1  A    between atoms: C_1  and  O_2
REMARK    2  A    between atoms: O_2  and  C_3
REMARK    3  A    between atoms: C_3  and  C_5
REMARK    4  A    between atoms: C_8  and  N_9
REMARK    5  A    between atoms: N_9  and  C_10
REMARK    6  A    between atoms: C_10  and  N_12
REMARK    7  A    between atoms: C_13  and  C_15
REMARK    8  A    between atoms: N_20  and  C_21
REMARK                            x       y       z     vdW  Elec       q    Type
REMARK                         _______ _______ _______ _____ _____    ______ ____
ROOT
ATOM      1  C   UNL     1       2.195   7.552  19.222  0.00  0.00    +0.000 C 
ATOM      2  S   UNL     1       2.296   8.606  17.929  0.00  0.00    +0.000 S 
ENDROOT
BRANCH   1   3
ATOM      3  N   UNL     1       2.278   6.202  18.902  0.00  0.00    +0.000 N 
ATOM      4  C   UNL     1       3.276   5.286  19.204  0.00  0.00    +0.000 C 
ATOM      5  O   UNL     1       4.343   5.653  19.694  0.00  0.00    +0.000 OA
ATOM      6  H   UNL     1       1.443   5.852  18.446  0.00  0.00    +0.000 HD
BRANCH   4   7
ATOM      7  C   UNL     1       2.990   3.902  18.907  0.00  0.00    +0.000 A 
ATOM      8  C   UNL     1       2.170   2.970  19.520  0.00  0.00    +0.000 A 
ATOM      9 CL   UNL     1       1.146   3.144  20.862  0.00  0.00    +0.000 Cl
ATOM     10  C   UNL     1       2.373   1.763  18.829  0.00  0.00    +0.000 A 
ATOM     11  N   UNL     1       3.233   1.900  17.821  0.00  0.00    +0.000 NA
ATOM     12  N   UNL     1       3.601   3.196  17.890  0.00  0.00    +0.000 N 
ATOM     13  C   UNL     1       4.558   3.691  16.922  0.00  0.00    +0.000 C 
ENDBRANCH   4   7
ENDBRANCH   1   3
BRANCH   1  14
ATOM     14  N   UNL     1       1.968   7.823  20.556  0.00  0.00    +0.000 N 
ATOM     15  H   UNL     1       2.388   7.145  21.191  0.00  0.00    +0.000 HD
BRANCH  14  19
ATOM     16  C   UNL     1      -0.543  10.768  22.270  0.00  0.00    +0.000 A 
ATOM     17  C   UNL     1      -0.444  10.616  20.883  0.00  0.00    +0.000 A 
ATOM     18  C   UNL     1       0.367   9.605  20.347  0.00  0.00    +0.000 A 
ATOM     19  C   UNL     1       1.118   8.763  21.182  0.00  0.00    +0.000 A 
ATOM     20  C   UNL     1       0.965   8.884  22.563  0.00  0.00    +0.000 A 
ATOM     21  C   UNL     1       0.140   9.878  23.105  0.00  0.00    +0.000 A 
BRANCH  16  22
ATOM     22  C   UNL     1      -1.353  11.839  22.904  0.00  0.00    +0.000 C 
ATOM     23  O   UNL     1      -2.554  11.748  23.099  0.00  0.00    +0.000 OA
BRANCH  22  25
ATOM     24  C   UNL     1      -0.678  14.024  22.444  0.00  0.00    +0.000 C 
ATOM     25  O   UNL     1      -0.559  12.872  23.282  0.00  0.00    +0.000 OA
ENDBRANCH  22  25
ENDBRANCH  16  22
ENDBRANCH  14  19
ENDBRANCH   1  14
TORSDOF 6
ENDMDL
MODEL 6
REMARK VINA RESULT:      -6.3      5.008      7.921
REMARK  Name = 
REMARK  8 active torsions:
REMARK  status: ('A' for Active; 'I' for Inactive)
REMARK    1  A    between atoms: C_1  and  O_2
REMARK    2  A    between atoms: O_2  and  C_3
REMARK    3  A    between atoms: C_3  and  C_5
REMARK    4  A    between atoms: C_8  and  N_9
REMARK    5  A    between atoms: N_9  and  C_10
REMARK    6  A    between atoms: C_10  and  N_12
REMARK    7  A    between atoms: C_13  and  C_15
REMARK    8  A    between atoms: N_20  and  C_21
REMARK                            x       y       z     vdW  Elec       q    Type
REMARK                         _______ _______ _______ _____ _____    ______ ____
ROOT
ATOM      1  C   UNL     1       2.473   5.748  20.045  0.00  0.00    +0.000 C 
ATOM      2  S   UNL     1       1.430   4.441  20.069  0.00  0.00    +0.000 S 
ENDROOT
BRANCH   1   3
ATOM      3  N   UNL     1       1.907   6.972  20.383  0.00  0.00    +0.000 N 
ATOM      4  C   UNL     1       1.817   8.136  19.633  0.00  0.00    +0.000 C 
ATOM      5  O   UNL     1       2.418   8.248  18.566  0.00  0.00    +0.000 OA
ATOM      6  H   UNL     1       1.440   6.956  21.282  0.00  0.00    +0.000 HD
BRANCH   4   7
ATOM      7  C   UNL     1       0.994   9.190  20.179  0.00  0.00    +0.000 A 
ATOM      8  C   UNL     1       0.825   9.663  21.469  0.00  0.00    +0.000 A 
ATOM      9 CL   UNL     1       1.581   9.178  22.909  0.00  0.00    +0.000 Cl
ATOM     10  C   UNL     1      -0.175  10.647  21.392  0.00  0.00    +0.000 A 
ATOM     11  N   UNL     1      -0.606  10.828  20.145  0.00  0.00    +0.000 NA
ATOM     12  N   UNL     1       0.106   9.934  19.428  0.00  0.00    +0.000 N 
ATOM     13  C   UNL     1      -0.125   9.857  18.000  0.00  0.00    +0.000 C 
ENDBRANCH   4   7
ENDBRANCH   1   3
BRANCH   1  14
ATOM     14  N   UNL     1       3.799   5.802  19.669  0.00  0.00    +0.000 N 
ATOM     15  H   UNL     1       4.420   6.152  20.398  0.00  0.00    +0.000 HD
BRANCH  14  19
ATOM     16  C   UNL     1       5.641   5.071  15.929  0.00  0.00    +0.000 A 
ATOM     17  C   UNL     1       4.707   4.179  16.464  0.00  0.00    +0.000 A 
ATOM     18  C   UNL     1       4.085   4.469  17.688  0.00  0.00    +0.000 A 
ATOM     19  C   UNL     1       4.416   5.627  18.409  0.00  0.00    +0.000 A 
ATOM     20  C   UNL     1       5.304   6.538  17.837  0.00  0.00    +0.000 A 
ATOM     21  C   UNL     1       5.913   6.264  16.606  0.00  0.00    +0.000 A 
BRANCH  16  22
ATOM     22  C   UNL     1       6.364   4.809  14.658  0.00  0.00    +0.000 C 
ATOM     23  O   UNL     1       7.477   5.248  14.415  0.00  0.00    +0.000 OA
BRANCH  22  25
ATOM     24  C   UNL     1       6.322   3.596  12.666  0.00  0.00    +0.000 C 
ATOM     25  O   UNL     1       5.644   3.976  13.866  0.00  0.00    +0.000 OA
ENDBRANCH  22  25
ENDBRANCH  16  22
ENDBRANCH  14  19
ENDBRANCH   1  14
TORSDOF 6
ENDMDL
MODEL 7
REMARK VINA RESULT:      -6.3      3.394      6.544
REMARK  Name = 
REMARK  8 active torsions:
REMARK  status: ('A' for Active; 'I' for Inactive)
REMARK    1  A    between atoms: C_1  and  O_2
REMARK    2  A    between atoms: O_2  and  C_3
REMARK    3  A    between atoms: C_3  and  C_5
REMARK    4  A    between atoms: C_8  and  N_9
REMARK    5  A    between atoms: N_9  and  C_10
REMARK    6  A    between atoms: C_10  and  N_12
REMARK    7  A    between atoms: C_13  and  C_15
REMARK    8  A    between atoms: N_20  and  C_21
REMARK                            x       y       z     vdW  Elec       q    Type
REMARK                         _______ _______ _______ _____ _____    ______ ____
ROOT
ATOM      1  C   UNL     1       6.955   6.396  17.399  0.00  0.00    +0.000 C 
ATOM      2  S   UNL     1       7.588   7.936  17.547  0.00  0.00    +0.000 S 
ENDROOT
BRANCH   1   3
ATOM      3  N   UNL     1       5.876   6.110  18.227  0.00  0.00    +0.000 N 
ATOM      4  C   UNL     1       4.519   6.286  17.994  0.00  0.00    +0.000 C 
ATOM      5  O   UNL     1       4.122   6.905  17.008  0.00  0.00    +0.000 OA
ATOM      6  H   UNL     1       6.148   5.644  19.084  0.00  0.00    +0.000 HD
BRANCH   4   7
ATOM      7  C   UNL     1       3.620   5.711  18.968  0.00  0.00    +0.000 A 
ATOM      8  C   UNL     1       2.593   6.257  19.720  0.00  0.00    +0.000 A 
ATOM      9 CL   UNL     1       1.983   7.840  19.734  0.00  0.00    +0.000 Cl
ATOM     10  C   UNL     1       2.138   5.225  20.558  0.00  0.00    +0.000 A 
ATOM     11  N   UNL     1       2.792   4.084  20.350  0.00  0.00    +0.000 NA
ATOM     12  N   UNL     1       3.689   4.399  19.393  0.00  0.00    +0.000 N 
ATOM     13  C   UNL     1       4.589   3.366  18.925  0.00  0.00    +0.000 C 
ENDBRANCH   4   7
ENDBRANCH   1   3
BRANCH   1  14
ATOM     14  N   UNL     1       7.393   5.340  16.626  0.00  0.00    +0.000 N 
ATOM     15  H   UNL     1       8.291   4.956  16.924  0.00  0.00    +0.000 HD
BRANCH  14  19
ATOM     16  C   UNL     1       5.873   3.619  13.071  0.00  0.00    +0.000 A 
ATOM     17  C   UNL     1       5.212   3.462  14.294  0.00  0.00    +0.000 A 
ATOM     18  C   UNL     1       5.721   4.078  15.447  0.00  0.00    +0.000 A 
ATOM     19  C   UNL     1       6.911   4.820  15.404  0.00  0.00    +0.000 A 
ATOM     20  C   UNL     1       7.528   5.020  14.169  0.00  0.00    +0.000 A 
ATOM     21  C   UNL     1       7.014   4.425  13.010  0.00  0.00    +0.000 A 
BRANCH  16  22
ATOM     22  C   UNL     1       5.411   2.966  11.820  0.00  0.00    +0.000 C 
ATOM     23  O   UNL     1       4.302   3.140  11.340  0.00  0.00    +0.000 OA
BRANCH  22  25
ATOM     24  C   UNL     1       6.107   0.827  11.200  0.00  0.00    +0.000 C 
ATOM     25  O   UNL     1       6.407   2.223  11.277  0.00  0.00    +0.000 OA
ENDBRANCH  22  25
ENDBRANCH  16  22
ENDBRANCH  14  19
ENDBRANCH   1  14
TORSDOF 6
ENDMDL
MODEL 8
REMARK VINA RESULT:      -6.3      4.652      5.832
REMARK  Name = 
REMARK  8 active torsions:
REMARK  status: ('A' for Active; 'I' for Inactive)
REMARK    1  A    between atoms: C_1  and  O_2
REMARK    2  A    between atoms: O_2  and  C_3
REMARK    3  A    between atoms: C_3  and  C_5
REMARK    4  A    between atoms: C_8  and  N_9
REMARK    5  A    between atoms: N_9  and  C_10
REMARK    6  A    between atoms: C_10  and  N_12
REMARK    7  A    between atoms: C_13  and  C_15
REMARK    8  A    between atoms: N_20  and  C_21
REMARK                            x       y       z     vdW  Elec       q    Type
REMARK                         _______ _______ _______ _____ _____    ______ ____
ROOT
ATOM      1  C   UNL     1       2.884   5.539  19.388  0.00  0.00    +0.000 C 
ATOM      2  S   UNL     1       2.078   4.080  19.520  0.00  0.00    +0.000 S 
ENDROOT
BRANCH   1   3
ATOM      3  N   UNL     1       3.857   5.598  18.398  0.00  0.00    +0.000 N 
ATOM      4  C   UNL     1       5.236   5.485  18.514  0.00  0.00    +0.000 C 
ATOM      5  O   UNL     1       5.779   5.475  19.617  0.00  0.00    +0.000 OA
ATOM      6  H   UNL     1       3.468   5.660  17.465  0.00  0.00    +0.000 HD
BRANCH   4   7
ATOM      7  C   UNL     1       5.979   5.389  17.278  0.00  0.00    +0.000 A 
ATOM      8  C   UNL     1       5.937   4.475  16.238  0.00  0.00    +0.000 A 
ATOM      9 CL   UNL     1       4.938   3.121  16.024  0.00  0.00    +0.000 Cl
ATOM     10  C   UNL     1       6.959   4.854  15.351  0.00  0.00    +0.000 A 
ATOM     11  N   UNL     1       7.598   5.949  15.760  0.00  0.00    +0.000 NA
ATOM     12  N   UNL     1       6.998   6.252  16.929  0.00  0.00    +0.000 N 
ATOM     13  C   UNL     1       7.465   7.410  17.663  0.00  0.00    +0.000 C 
ENDBRANCH   4   7
ENDBRANCH   1   3
BRANCH   1  14
ATOM     14  N   UNL     1       2.773   6.672  20.167  0.00  0.00    +0.000 N 
ATOM     15  H   UNL     1       3.325   6.638  21.025  0.00  0.00    +0.000 HD
BRANCH  14  19
ATOM     16  C   UNL     1       0.302  10.084  19.758  0.00  0.00    +0.000 A 
ATOM     17  C   UNL     1       1.073   9.613  18.690  0.00  0.00    +0.000 A 
ATOM     18  C   UNL     1       1.852   8.457  18.846  0.00  0.00    +0.000 A 
ATOM     19  C   UNL     1       1.903   7.782  20.076  0.00  0.00    +0.000 A 
ATOM     20  C   UNL     1       1.084   8.225  21.114  0.00  0.00    +0.000 A 
ATOM     21  C   UNL     1       0.288   9.367  20.959  0.00  0.00    +0.000 A 
BRANCH  16  22
ATOM     22  C   UNL     1      -0.515  11.321  19.674  0.00  0.00    +0.000 C 
ATOM     23  O   UNL     1      -1.179  11.754  20.603  0.00  0.00    +0.000 OA
BRANCH  22  25
ATOM     24  C   UNL     1      -0.505  13.333  18.493  0.00  0.00    +0.000 C 
ATOM     25  O   UNL     1      -0.359  11.911  18.463  0.00  0.00    +0.000 OA
ENDBRANCH  22  25
ENDBRANCH  16  22
ENDBRANCH  14  19
ENDBRANCH   1  14
TORSDOF 6
ENDMDL
MODEL 9
REMARK VINA RESULT:      -6.2      3.391      6.747
REMARK  Name = 
REMARK  8 active torsions:
REMARK  status: ('A' for Active; 'I' for Inactive)
REMARK    1  A    between atoms: C_1  and  O_2
REMARK    2  A    between atoms: O_2  and  C_3
REMARK    3  A    between atoms: C_3  and  C_5
REMARK    4  A    between atoms: C_8  and  N_9
REMARK    5  A    between atoms: N_9  and  C_10
REMARK    6  A    between atoms: C_10  and  N_12
REMARK    7  A    between atoms: C_13  and  C_15
REMARK    8  A    between atoms: N_20  and  C_21
REMARK                            x       y       z     vdW  Elec       q    Type
REMARK                         _______ _______ _______ _____ _____    ______ ____
ROOT
ATOM      1  C   UNL     1       6.153   5.535  18.424  0.00  0.00    +0.000 C 
ATOM      2  S   UNL     1       7.536   5.565  19.362  0.00  0.00    +0.000 S 
ENDROOT
BRANCH   1   3
ATOM      3  N   UNL     1       5.074   4.852  18.971  0.00  0.00    +0.000 N 
ATOM      4  C   UNL     1       3.715   5.046  18.766  0.00  0.00    +0.000 C 
ATOM      5  O   UNL     1       3.303   6.025  18.146  0.00  0.00    +0.000 OA
ATOM      6  H   UNL     1       5.354   4.061  19.539  0.00  0.00    +0.000 HD
BRANCH   4   7
ATOM      7  C   UNL     1       2.831   4.047  19.323  0.00  0.00    +0.000 A 
ATOM      8  C   UNL     1       2.672   2.697  19.060  0.00  0.00    +0.000 A 
ATOM      9 CL   UNL     1       3.515   1.697  17.979  0.00  0.00    +0.000 Cl
ATOM     10  C   UNL     1       1.595   2.273  19.856  0.00  0.00    +0.000 A 
ATOM     11  N   UNL     1       1.107   3.259  20.607  0.00  0.00    +0.000 NA
ATOM     12  N   UNL     1       1.860   4.324  20.265  0.00  0.00    +0.000 N 
ATOM     13  C   UNL     1       1.585   5.595  20.902  0.00  0.00    +0.000 C 
ENDBRANCH   4   7
ENDBRANCH   1   3
BRANCH   1  14
ATOM     14  N   UNL     1       5.948   6.030  17.153  0.00  0.00    +0.000 N 
ATOM     15  H   UNL     1       5.472   6.932  17.133  0.00  0.00    +0.000 HD
BRANCH  14  19
ATOM     16  C   UNL     1       6.329   4.083  13.414  0.00  0.00    +0.000 A 
ATOM     17  C   UNL     1       5.135   4.034  14.139  0.00  0.00    +0.000 A 
ATOM     18  C   UNL     1       5.028   4.722  15.357  0.00  0.00    +0.000 A 
ATOM     19  C   UNL     1       6.118   5.431  15.884  0.00  0.00    +0.000 A 
ATOM     20  C   UNL     1       7.284   5.523  15.124  0.00  0.00    +0.000 A 
ATOM     21  C   UNL     1       7.390   4.855  13.897  0.00  0.00    +0.000 A 
BRANCH  16  22
ATOM     22  C   UNL     1       6.523   3.349  12.138  0.00  0.00    +0.000 C 
ATOM     23  O   UNL     1       7.482   3.522  11.401  0.00  0.00    +0.000 OA
BRANCH  22  25
ATOM     24  C   UNL     1       5.962   1.252  11.283  0.00  0.00    +0.000 C 
ATOM     25  O   UNL     1       5.535   2.437  11.960  0.00  0.00    +0.000 OA
ENDBRANCH  22  25
ENDBRANCH  16  22
ENDBRANCH  14  19
ENDBRANCH   1  14
TORSDOF 6
ENDMDL
