MODEL 1
REMARK VINA RESULT:      -8.8      0.000      0.000
REMARK  Name = 
REMARK  4 active torsions:
REMARK  status: ('A' for Active; 'I' for Inactive)
REMARK    1  A    between atoms: C_1  and  C_2
REMARK    2  A    between atoms: C_6  and  C_7
REMARK    3  A    between atoms: N_11  and  C_12
REMARK    4  A    between atoms: C_19  and  O_20
REMARK                            x       y       z     vdW  Elec       q    Type
REMARK                         _______ _______ _______ _____ _____    ______ ____
ROOT
ATOM      1  C   UNL     1       1.051   9.060  20.168  0.00  0.00    +0.000 A 
ATOM      2  C   UNL     1       1.312   9.066  18.815  0.00  0.00    +0.000 A 
ATOM      3  N   UNL     1       2.097   8.012  18.476  0.00  0.00    +0.000 NA
ATOM      4  C   UNL     1       2.299   7.374  19.612  0.00  0.00    +0.000 A 
ATOM      5  N   UNL     1       2.970   6.226  19.829  0.00  0.00    +0.000 N 
ATOM      6  O   UNL     1       1.708   7.968  20.692  0.00  0.00    +0.000 OA
ATOM      7  H   UNL     1       2.903   5.839  20.764  0.00  0.00    +0.000 HD
ENDROOT
BRANCH   5   8
ATOM      8  C   UNL     1       3.077   5.226  18.827  0.00  0.00    +0.000 A 
ATOM      9  C   UNL     1       2.077   4.238  18.706  0.00  0.00    +0.000 A 
ATOM     10  C   UNL     1       2.126   3.278  17.708  0.00  0.00    +0.000 A 
ATOM     11  C   UNL     1       3.191   3.273  16.821  0.00  0.00    +0.000 A 
ATOM     12  C   UNL     1       4.229   4.217  16.932  0.00  0.00    +0.000 A 
ATOM     13  C   UNL     1       4.194   5.187  17.954  0.00  0.00    +0.000 A 
ATOM     14  C   UNL     1       5.274   6.238  18.050  0.00  0.00    +0.000 C 
ATOM     15  C   UNL     1       6.529   6.017  17.192  0.00  0.00    +0.000 C 
ATOM     16  C   UNL     1       6.283   5.313  15.868  0.00  0.00    +0.000 C 
ATOM     17  C   UNL     1       5.348   4.121  15.933  0.00  0.00    +0.000 C 
BRANCH  15  18
ATOM     18  O   UNL     1       7.123   7.280  16.863  0.00  0.00    +0.000 OA
ATOM     19  H   UNL     1       7.019   7.876  17.622  0.00  0.00    +0.000 HD
ENDBRANCH  15  18
ENDBRANCH   5   8
BRANCH   1  25
ATOM     20  C   UNL     1      -1.198  13.400  21.251  0.00  0.00    +0.000 C 
ATOM     21  C   UNL     1      -0.832  11.996  21.632  0.00  0.00    +0.000 A 
ATOM     22  C   UNL     1      -1.183  11.478  22.881  0.00  0.00    +0.000 A 
ATOM     23  C   UNL     1      -0.822  10.179  23.228  0.00  0.00    +0.000 A 
ATOM     24  C   UNL     1      -0.102   9.390  22.329  0.00  0.00    +0.000 A 
ATOM     25  C   UNL     1       0.269   9.888  21.067  0.00  0.00    +0.000 A 
ATOM     26  C   UNL     1      -0.113  11.194  20.730  0.00  0.00    +0.000 A 
ENDBRANCH   1  25
TORSDOF 3
ENDMDL
MODEL 2
REMARK VINA RESULT:      -8.6      3.035      8.558
REMARK  Name = 
REMARK  4 active torsions:
REMARK  status: ('A' for Active; 'I' for Inactive)
REMARK    1  A    between atoms: C_1  and  C_2
REMARK    2  A    between atoms: C_6  and  C_7
REMARK    3  A    between atoms: N_11  and  C_12
REMARK    4  A    between atoms: C_19  and  O_20
REMARK                            x       y       z     vdW  Elec       q    Type
REMARK                         _______ _______ _______ _____ _____    ______ ____
ROOT
ATOM      1  C   UNL     1       2.312   7.476  18.647  0.00  0.00    +0.000 A 
ATOM      2  C   UNL     1       1.926   7.794  19.930  0.00  0.00    +0.000 A 
ATOM      3  N   UNL     1       1.293   8.995  19.955  0.00  0.00    +0.000 NA
ATOM      4  C   UNL     1       1.291   9.390  18.697  0.00  0.00    +0.000 A 
ATOM      5  N   UNL     1       0.739  10.495  18.159  0.00  0.00    +0.000 N 
ATOM      6  O   UNL     1       1.915   8.523  17.844  0.00  0.00    +0.000 OA
ATOM      7  H   UNL     1       0.745  10.551  17.147  0.00  0.00    +0.000 HD
ENDROOT
BRANCH   5   8
ATOM      8  C   UNL     1      -0.402  11.112  18.736  0.00  0.00    +0.000 A 
ATOM      9  C   UNL     1      -0.274  11.858  19.927  0.00  0.00    +0.000 A 
ATOM     10  C   UNL     1      -1.358  12.513  20.490  0.00  0.00    +0.000 A 
ATOM     11  C   UNL     1      -2.600  12.418  19.883  0.00  0.00    +0.000 A 
ATOM     12  C   UNL     1      -2.777  11.652  18.716  0.00  0.00    +0.000 A 
ATOM     13  C   UNL     1      -1.684  10.969  18.147  0.00  0.00    +0.000 A 
ATOM     14  C   UNL     1      -1.850  10.187  16.866  0.00  0.00    +0.000 C 
ATOM     15  C   UNL     1      -3.290   9.933  16.397  0.00  0.00    +0.000 C 
ATOM     16  C   UNL     1      -4.279  11.036  16.736  0.00  0.00    +0.000 C 
ATOM     17  C   UNL     1      -4.165  11.596  18.141  0.00  0.00    +0.000 C 
BRANCH  15  18
ATOM     18  O   UNL     1      -3.322   9.801  14.968  0.00  0.00    +0.000 OA
ATOM     19  H   UNL     1      -3.176   8.869  14.743  0.00  0.00    +0.000 HD
ENDBRANCH  15  18
ENDBRANCH   5   8
BRANCH   1  25
ATOM     20  C   UNL     1       2.493   2.594  17.545  0.00  0.00    +0.000 C 
ATOM     21  C   UNL     1       3.098   3.966  17.476  0.00  0.00    +0.000 A 
ATOM     22  C   UNL     1       4.338   4.171  16.866  0.00  0.00    +0.000 A 
ATOM     23  C   UNL     1       4.896   5.446  16.824  0.00  0.00    +0.000 A 
ATOM     24  C   UNL     1       4.220   6.524  17.398  0.00  0.00    +0.000 A 
ATOM     25  C   UNL     1       2.974   6.345  18.024  0.00  0.00    +0.000 A 
ATOM     26  C   UNL     1       2.421   5.057  18.046  0.00  0.00    +0.000 A 
ENDBRANCH   1  25
TORSDOF 3
ENDMDL
MODEL 3
REMARK VINA RESULT:      -8.5      1.679      3.160
REMARK  Name = 
REMARK  4 active torsions:
REMARK  status: ('A' for Active; 'I' for Inactive)
REMARK    1  A    between atoms: C_1  and  C_2
REMARK    2  A    between atoms: C_6  and  C_7
REMARK    3  A    between atoms: N_11  and  C_12
REMARK    4  A    between atoms: C_19  and  O_20
REMARK                            x       y       z     vdW  Elec       q    Type
REMARK                         _______ _______ _______ _____ _____    ______ ____
ROOT
ATOM      1  C   UNL     1       0.755   9.456  19.967  0.00  0.00    +0.000 A 
ATOM      2  C   UNL     1       0.915   9.422  18.599  0.00  0.00    +0.000 A 
ATOM      3  N   UNL     1       1.859   8.510  18.251  0.00  0.00    +0.000 NA
ATOM      4  C   UNL     1       2.255   7.994  19.398  0.00  0.00    +0.000 A 
ATOM      5  N   UNL     1       3.142   7.005  19.618  0.00  0.00    +0.000 N 
ATOM      6  O   UNL     1       1.640   8.539  20.491  0.00  0.00    +0.000 OA
ATOM      7  H   UNL     1       3.214   6.673  20.574  0.00  0.00    +0.000 HD
ENDROOT
BRANCH   5   8
ATOM      8  C   UNL     1       3.364   5.980  18.663  0.00  0.00    +0.000 A 
ATOM      9  C   UNL     1       4.238   6.203  17.578  0.00  0.00    +0.000 A 
ATOM     10  C   UNL     1       4.514   5.207  16.654  0.00  0.00    +0.000 A 
ATOM     11  C   UNL     1       3.903   3.970  16.786  0.00  0.00    +0.000 A 
ATOM     12  C   UNL     1       2.996   3.719  17.832  0.00  0.00    +0.000 A 
ATOM     13  C   UNL     1       2.697   4.732  18.765  0.00  0.00    +0.000 A 
ATOM     14  C   UNL     1       1.766   4.458  19.922  0.00  0.00    +0.000 C 
ATOM     15  C   UNL     1       0.953   3.157  19.859  0.00  0.00    +0.000 C 
ATOM     16  C   UNL     1       1.652   1.998  19.168  0.00  0.00    +0.000 C 
ATOM     17  C   UNL     1       2.374   2.352  17.882  0.00  0.00    +0.000 C 
BRANCH  15  18
ATOM     18  O   UNL     1       0.655   2.703  21.187  0.00  0.00    +0.000 OA
ATOM     19  H   UNL     1       0.018   3.316  21.585  0.00  0.00    +0.000 HD
ENDBRANCH  15  18
ENDBRANCH   5   8
BRANCH   1  25
ATOM     20  C   UNL     1      -2.366  13.251  20.936  0.00  0.00    +0.000 C 
ATOM     21  C   UNL     1      -1.624  12.029  21.392  0.00  0.00    +0.000 A 
ATOM     22  C   UNL     1      -1.696  11.603  22.721  0.00  0.00    +0.000 A 
ATOM     23  C   UNL     1      -0.989  10.478  23.135  0.00  0.00    +0.000 A 
ATOM     24  C   UNL     1      -0.200   9.774  22.224  0.00  0.00    +0.000 A 
ATOM     25  C   UNL     1      -0.104  10.183  20.882  0.00  0.00    +0.000 A 
ATOM     26  C   UNL     1      -0.832  11.311  20.480  0.00  0.00    +0.000 A 
ENDBRANCH   1  25
TORSDOF 3
ENDMDL
MODEL 4
REMARK VINA RESULT:      -8.5      0.780      1.545
REMARK  Name = 
REMARK  4 active torsions:
REMARK  status: ('A' for Active; 'I' for Inactive)
REMARK    1  A    between atoms: C_1  and  C_2
REMARK    2  A    between atoms: C_6  and  C_7
REMARK    3  A    between atoms: N_11  and  C_12
REMARK    4  A    between atoms: C_19  and  O_20
REMARK                            x       y       z     vdW  Elec       q    Type
REMARK                         _______ _______ _______ _____ _____    ______ ____
ROOT
ATOM      1  C   UNL     1       1.059   9.599  19.104  0.00  0.00    +0.000 A 
ATOM      2  C   UNL     1       1.460   9.394  17.801  0.00  0.00    +0.000 A 
ATOM      3  N   UNL     1       2.215   8.270  17.706  0.00  0.00    +0.000 NA
ATOM      4  C   UNL     1       2.260   7.799  18.936  0.00  0.00    +0.000 A 
ATOM      5  N   UNL     1       2.838   6.669  19.388  0.00  0.00    +0.000 N 
ATOM      6  O   UNL     1       1.595   8.570  19.848  0.00  0.00    +0.000 OA
ATOM      7  H   UNL     1       2.651   6.427  20.355  0.00  0.00    +0.000 HD
ENDROOT
BRANCH   5   8
ATOM      8  C   UNL     1       2.991   5.529  18.557  0.00  0.00    +0.000 A 
ATOM      9  C   UNL     1       1.959   4.570  18.476  0.00  0.00    +0.000 A 
ATOM     10  C   UNL     1       2.056   3.471  17.638  0.00  0.00    +0.000 A 
ATOM     11  C   UNL     1       3.201   3.297  16.876  0.00  0.00    +0.000 A 
ATOM     12  C   UNL     1       4.270   4.208  16.957  0.00  0.00    +0.000 A 
ATOM     13  C   UNL     1       4.185   5.319  17.820  0.00  0.00    +0.000 A 
ATOM     14  C   UNL     1       5.303   6.333  17.877  0.00  0.00    +0.000 C 
ATOM     15  C   UNL     1       6.622   5.943  17.195  0.00  0.00    +0.000 C 
ATOM     16  C   UNL     1       6.472   5.059  15.967  0.00  0.00    +0.000 C 
ATOM     17  C   UNL     1       5.475   3.925  16.106  0.00  0.00    +0.000 C 
BRANCH  15  18
ATOM     18  O   UNL     1       7.310   7.121  16.752  0.00  0.00    +0.000 OA
ATOM     19  H   UNL     1       8.160   7.174  17.216  0.00  0.00    +0.000 HD
ENDBRANCH  15  18
ENDBRANCH   5   8
BRANCH   1  25
ATOM     20  C   UNL     1      -1.410  11.162  23.170  0.00  0.00    +0.000 C 
ATOM     21  C   UNL     1      -0.986  11.372  21.746  0.00  0.00    +0.000 A 
ATOM     22  C   UNL     1      -1.423  12.487  21.026  0.00  0.00    +0.000 A 
ATOM     23  C   UNL     1      -1.036  12.661  19.701  0.00  0.00    +0.000 A 
ATOM     24  C   UNL     1      -0.213  11.717  19.083  0.00  0.00    +0.000 A 
ATOM     25  C   UNL     1       0.237  10.583  19.782  0.00  0.00    +0.000 A 
ATOM     26  C   UNL     1      -0.153  10.430  21.120  0.00  0.00    +0.000 A 
ENDBRANCH   1  25
TORSDOF 3
ENDMDL
MODEL 5
REMARK VINA RESULT:      -8.4      3.033      8.515
REMARK  Name = 
REMARK  4 active torsions:
REMARK  status: ('A' for Active; 'I' for Inactive)
REMARK    1  A    between atoms: C_1  and  C_2
REMARK    2  A    between atoms: C_6  and  C_7
REMARK    3  A    between atoms: N_11  and  C_12
REMARK    4  A    between atoms: C_19  and  O_20
REMARK                            x       y       z     vdW  Elec       q    Type
REMARK                         _______ _______ _______ _____ _____    ______ ____
ROOT
ATOM      1  C   UNL     1       2.302   7.446  18.661  0.00  0.00    +0.000 A 
ATOM      2  C   UNL     1       1.919   7.777  19.943  0.00  0.00    +0.000 A 
ATOM      3  N   UNL     1       1.291   8.980  19.957  0.00  0.00    +0.000 NA
ATOM      4  C   UNL     1       1.290   9.365  18.696  0.00  0.00    +0.000 A 
ATOM      5  N   UNL     1       0.742  10.468  18.149  0.00  0.00    +0.000 N 
ATOM      6  O   UNL     1       1.909   8.488  17.850  0.00  0.00    +0.000 OA
ATOM      7  H   UNL     1       0.748  10.515  17.136  0.00  0.00    +0.000 HD
ENDROOT
BRANCH   5   8
ATOM      8  C   UNL     1      -0.394  11.095  18.722  0.00  0.00    +0.000 A 
ATOM      9  C   UNL     1      -0.265  11.839  19.914  0.00  0.00    +0.000 A 
ATOM     10  C   UNL     1      -1.345  12.504  20.472  0.00  0.00    +0.000 A 
ATOM     11  C   UNL     1      -2.585  12.421  19.860  0.00  0.00    +0.000 A 
ATOM     12  C   UNL     1      -2.765  11.657  18.691  0.00  0.00    +0.000 A 
ATOM     13  C   UNL     1      -1.675  10.965  18.127  0.00  0.00    +0.000 A 
ATOM     14  C   UNL     1      -1.843  10.186  16.844  0.00  0.00    +0.000 C 
ATOM     15  C   UNL     1      -3.284   9.945  16.368  0.00  0.00    +0.000 C 
ATOM     16  C   UNL     1      -4.264  11.057  16.704  0.00  0.00    +0.000 C 
ATOM     17  C   UNL     1      -4.150  11.615  18.110  0.00  0.00    +0.000 C 
BRANCH  15  18
ATOM     18  O   UNL     1      -3.310   9.815  14.939  0.00  0.00    +0.000 OA
ATOM     19  H   UNL     1      -4.105  10.258  14.605  0.00  0.00    +0.000 HD
ENDBRANCH  15  18
ENDBRANCH   5   8
BRANCH   1  25
ATOM     20  C   UNL     1       6.111   5.478  16.073  0.00  0.00    +0.000 C 
ATOM     21  C   UNL     1       4.797   5.314  16.779  0.00  0.00    +0.000 A 
ATOM     22  C   UNL     1       4.149   4.076  16.808  0.00  0.00    +0.000 A 
ATOM     23  C   UNL     1       2.922   3.942  17.452  0.00  0.00    +0.000 A 
ATOM     24  C   UNL     1       2.332   5.047  18.067  0.00  0.00    +0.000 A 
ATOM     25  C   UNL     1       2.958   6.306  18.048  0.00  0.00    +0.000 A 
ATOM     26  C   UNL     1       4.199   6.420  17.406  0.00  0.00    +0.000 A 
ENDBRANCH   1  25
TORSDOF 3
ENDMDL
MODEL 6
REMARK VINA RESULT:      -8.4      5.566      7.293
REMARK  Name = 
REMARK  4 active torsions:
REMARK  status: ('A' for Active; 'I' for Inactive)
REMARK    1  A    between atoms: C_1  and  C_2
REMARK    2  A    between atoms: C_6  and  C_7
REMARK    3  A    between atoms: N_11  and  C_12
REMARK    4  A    between atoms: C_19  and  O_20
REMARK                            x       y       z     vdW  Elec       q    Type
REMARK                         _______ _______ _______ _____ _____    ______ ____
ROOT
ATOM      1  C   UNL     1       8.766   9.658  18.491  0.00  0.00    +0.000 A 
ATOM      2  C   UNL     1       7.834   9.614  17.477  0.00  0.00    +0.000 A 
ATOM      3  N   UNL     1       7.379   8.347  17.301  0.00  0.00    +0.000 NA
ATOM      4  C   UNL     1       8.025   7.638  18.205  0.00  0.00    +0.000 A 
ATOM      5  N   UNL     1       7.905   6.328  18.495  0.00  0.00    +0.000 N 
ATOM      6  O   UNL     1       8.905   8.368  18.955  0.00  0.00    +0.000 OA
ATOM      7  H   UNL     1       8.409   6.003  19.314  0.00  0.00    +0.000 HD
ENDROOT
BRANCH   5   8
ATOM      8  C   UNL     1       6.689   5.628  18.285  0.00  0.00    +0.000 A 
ATOM      9  C   UNL     1       5.787   5.444  19.354  0.00  0.00    +0.000 A 
ATOM     10  C   UNL     1       4.569   4.807  19.171  0.00  0.00    +0.000 A 
ATOM     11  C   UNL     1       4.238   4.322  17.916  0.00  0.00    +0.000 A 
ATOM     12  C   UNL     1       5.126   4.450  16.833  0.00  0.00    +0.000 A 
ATOM     13  C   UNL     1       6.374   5.081  17.015  0.00  0.00    +0.000 A 
ATOM     14  C   UNL     1       7.313   5.272  15.848  0.00  0.00    +0.000 C 
ATOM     15  C   UNL     1       6.982   4.499  14.563  0.00  0.00    +0.000 C 
ATOM     16  C   UNL     1       5.499   4.291  14.305  0.00  0.00    +0.000 C 
ATOM     17  C   UNL     1       4.684   3.878  15.516  0.00  0.00    +0.000 C 
BRANCH  15  18
ATOM     18  O   UNL     1       7.485   5.210  13.423  0.00  0.00    +0.000 OA
ATOM     19  H   UNL     1       8.413   5.438  13.587  0.00  0.00    +0.000 HD
ENDBRANCH  15  18
ENDBRANCH   5   8
BRANCH   1  25
ATOM     20  C   UNL     1      12.333  13.166  18.305  0.00  0.00    +0.000 C 
ATOM     21  C   UNL     1      11.284  12.420  19.075  0.00  0.00    +0.000 A 
ATOM     22  C   UNL     1      11.074  12.674  20.433  0.00  0.00    +0.000 A 
ATOM     23  C   UNL     1      10.108  11.962  21.138  0.00  0.00    +0.000 A 
ATOM     24  C   UNL     1       9.349  10.986  20.492  0.00  0.00    +0.000 A 
ATOM     25  C   UNL     1       9.542  10.705  19.127  0.00  0.00    +0.000 A 
ATOM     26  C   UNL     1      10.511  11.440  18.430  0.00  0.00    +0.000 A 
ENDBRANCH   1  25
TORSDOF 3
ENDMDL
MODEL 7
REMARK VINA RESULT:      -8.4      1.794      3.501
REMARK  Name = 
REMARK  4 active torsions:
REMARK  status: ('A' for Active; 'I' for Inactive)
REMARK    1  A    between atoms: C_1  and  C_2
REMARK    2  A    between atoms: C_6  and  C_7
REMARK    3  A    between atoms: N_11  and  C_12
REMARK    4  A    between atoms: C_19  and  O_20
REMARK                            x       y       z     vdW  Elec       q    Type
REMARK                         _______ _______ _______ _____ _____    ______ ____
ROOT
ATOM      1  C   UNL     1       0.875   9.817  19.056  0.00  0.00    +0.000 A 
ATOM      2  C   UNL     1       1.449   9.728  17.807  0.00  0.00    +0.000 A 
ATOM      3  N   UNL     1       2.322   8.689  17.756  0.00  0.00    +0.000 NA
ATOM      4  C   UNL     1       2.267   8.154  18.960  0.00  0.00    +0.000 A 
ATOM      5  N   UNL     1       2.899   7.061  19.429  0.00  0.00    +0.000 N 
ATOM      6  O   UNL     1       1.420   8.803  19.815  0.00  0.00    +0.000 OA
ATOM      7  H   UNL     1       2.623   6.747  20.353  0.00  0.00    +0.000 HD
ENDROOT
BRANCH   5   8
ATOM      8  C   UNL     1       3.269   5.991  18.573  0.00  0.00    +0.000 A 
ATOM      9  C   UNL     1       4.208   6.204  17.542  0.00  0.00    +0.000 A 
ATOM     10  C   UNL     1       4.627   5.170  16.720  0.00  0.00    +0.000 A 
ATOM     11  C   UNL     1       4.096   3.903  16.899  0.00  0.00    +0.000 A 
ATOM     12  C   UNL     1       3.128   3.657  17.890  0.00  0.00    +0.000 A 
ATOM     13  C   UNL     1       2.685   4.707  18.718  0.00  0.00    +0.000 A 
ATOM     14  C   UNL     1       1.685   4.445  19.820  0.00  0.00    +0.000 C 
ATOM     15  C   UNL     1       0.973   3.085  19.794  0.00  0.00    +0.000 C 
ATOM     16  C   UNL     1       1.804   1.936  19.247  0.00  0.00    +0.000 C 
ATOM     17  C   UNL     1       2.601   2.254  17.995  0.00  0.00    +0.000 C 
BRANCH  15  18
ATOM     18  O   UNL     1       0.601   2.703  21.126  0.00  0.00    +0.000 OA
ATOM     19  H   UNL     1      -0.039   1.977  21.071  0.00  0.00    +0.000 HD
ENDBRANCH  15  18
ENDBRANCH   5   8
BRANCH   1  25
ATOM     20  C   UNL     1      -1.413  11.625  23.127  0.00  0.00    +0.000 C 
ATOM     21  C   UNL     1      -1.265  11.572  21.635  0.00  0.00    +0.000 A 
ATOM     22  C   UNL     1      -2.121  12.300  20.804  0.00  0.00    +0.000 A 
ATOM     23  C   UNL     1      -1.983  12.229  19.421  0.00  0.00    +0.000 A 
ATOM     24  C   UNL     1      -0.992  11.424  18.858  0.00  0.00    +0.000 A 
ATOM     25  C   UNL     1      -0.120  10.675  19.669  0.00  0.00    +0.000 A 
ATOM     26  C   UNL     1      -0.266  10.769  21.061  0.00  0.00    +0.000 A 
ENDBRANCH   1  25
TORSDOF 3
ENDMDL
MODEL 8
REMARK VINA RESULT:      -8.3      1.020      1.282
REMARK  Name = 
REMARK  4 active torsions:
REMARK  status: ('A' for Active; 'I' for Inactive)
REMARK    1  A    between atoms: C_1  and  C_2
REMARK    2  A    between atoms: C_6  and  C_7
REMARK    3  A    between atoms: N_11  and  C_12
REMARK    4  A    between atoms: C_19  and  O_20
REMARK                            x       y       z     vdW  Elec       q    Type
REMARK                         _______ _______ _______ _____ _____    ______ ____
ROOT
ATOM      1  C   UNL     1       1.026   9.571  19.136  0.00  0.00    +0.000 A 
ATOM      2  C   UNL     1       1.422   9.375  17.832  0.00  0.00    +0.000 A 
ATOM      3  N   UNL     1       2.186   8.257  17.728  0.00  0.00    +0.000 NA
ATOM      4  C   UNL     1       2.240   7.781  18.956  0.00  0.00    +0.000 A 
ATOM      5  N   UNL     1       2.828   6.654  19.401  0.00  0.00    +0.000 N 
ATOM      6  O   UNL     1       1.573   8.544  19.875  0.00  0.00    +0.000 OA
ATOM      7  H   UNL     1       2.648   6.407  20.368  0.00  0.00    +0.000 HD
ENDROOT
BRANCH   5   8
ATOM      8  C   UNL     1       2.986   5.518  18.565  0.00  0.00    +0.000 A 
ATOM      9  C   UNL     1       1.960   4.554  18.481  0.00  0.00    +0.000 A 
ATOM     10  C   UNL     1       2.062   3.460  17.638  0.00  0.00    +0.000 A 
ATOM     11  C   UNL     1       3.206   3.295  16.874  0.00  0.00    +0.000 A 
ATOM     12  C   UNL     1       4.270   4.213  16.957  0.00  0.00    +0.000 A 
ATOM     13  C   UNL     1       4.180   5.319  17.825  0.00  0.00    +0.000 A 
ATOM     14  C   UNL     1       5.292   6.340  17.884  0.00  0.00    +0.000 C 
ATOM     15  C   UNL     1       6.612   5.960  17.197  0.00  0.00    +0.000 C 
ATOM     16  C   UNL     1       6.465   5.081  15.966  0.00  0.00    +0.000 C 
ATOM     17  C   UNL     1       5.475   3.940  16.101  0.00  0.00    +0.000 C 
BRANCH  15  18
ATOM     18  O   UNL     1       7.292   7.144  16.758  0.00  0.00    +0.000 OA
ATOM     19  H   UNL     1       7.970   6.889  16.113  0.00  0.00    +0.000 HD
ENDBRANCH  15  18
ENDBRANCH   5   8
BRANCH   1  25
ATOM     20  C   UNL     1      -3.189  12.255  19.466  0.00  0.00    +0.000 C 
ATOM     21  C   UNL     1      -1.842  11.878  20.010  0.00  0.00    +0.000 A 
ATOM     22  C   UNL     1      -1.331  12.501  21.151  0.00  0.00    +0.000 A 
ATOM     23  C   UNL     1      -0.073  12.153  21.636  0.00  0.00    +0.000 A 
ATOM     24  C   UNL     1       0.686  11.184  20.977  0.00  0.00    +0.000 A 
ATOM     25  C   UNL     1       0.199  10.546  19.822  0.00  0.00    +0.000 A 
ATOM     26  C   UNL     1      -1.075  10.900  19.356  0.00  0.00    +0.000 A 
ENDBRANCH   1  25
TORSDOF 3
ENDMDL
MODEL 9
REMARK VINA RESULT:      -8.3      3.190      8.623
REMARK  Name = 
REMARK  4 active torsions:
REMARK  status: ('A' for Active; 'I' for Inactive)
REMARK    1  A    between atoms: C_1  and  C_2
REMARK    2  A    between atoms: C_6  and  C_7
REMARK    3  A    between atoms: N_11  and  C_12
REMARK    4  A    between atoms: C_19  and  O_20
REMARK                            x       y       z     vdW  Elec       q    Type
REMARK                         _______ _______ _______ _____ _____    ______ ____
ROOT
ATOM      1  C   UNL     1       5.872   5.265  15.668  0.00  0.00    +0.000 A 
ATOM      2  C   UNL     1       6.294   5.089  16.968  0.00  0.00    +0.000 A 
ATOM      3  N   UNL     1       5.416   5.655  17.836  0.00  0.00    +0.000 NA
ATOM      4  C   UNL     1       4.472   6.159  17.066  0.00  0.00    +0.000 A 
ATOM      5  N   UNL     1       3.333   6.784  17.423  0.00  0.00    +0.000 N 
ATOM      6  O   UNL     1       4.694   5.978  15.728  0.00  0.00    +0.000 OA
ATOM      7  H   UNL     1       2.680   6.986  16.674  0.00  0.00    +0.000 HD
ENDROOT
BRANCH   5   8
ATOM      8  C   UNL     1       2.686   6.502  18.654  0.00  0.00    +0.000 A 
ATOM      9  C   UNL     1       2.427   7.545  19.570  0.00  0.00    +0.000 A 
ATOM     10  C   UNL     1       1.755   7.312  20.759  0.00  0.00    +0.000 A 
ATOM     11  C   UNL     1       1.345   6.025  21.068  0.00  0.00    +0.000 A 
ATOM     12  C   UNL     1       1.618   4.951  20.200  0.00  0.00    +0.000 A 
ATOM     13  C   UNL     1       2.317   5.177  18.997  0.00  0.00    +0.000 A 
ATOM     14  C   UNL     1       2.569   4.042  18.033  0.00  0.00    +0.000 C 
ATOM     15  C   UNL     1       2.303   2.623  18.555  0.00  0.00    +0.000 C 
ATOM     16  C   UNL     1       1.170   2.513  19.562  0.00  0.00    +0.000 C 
ATOM     17  C   UNL     1       1.148   3.590  20.630  0.00  0.00    +0.000 C 
BRANCH  15  18
ATOM     18  O   UNL     1       1.946   1.761  17.465  0.00  0.00    +0.000 OA
ATOM     19  H   UNL     1       2.696   1.174  17.278  0.00  0.00    +0.000 HD
ENDBRANCH  15  18
ENDBRANCH   5   8
BRANCH   1  25
ATOM     20  C   UNL     1       5.602   2.339  11.614  0.00  0.00    +0.000 C 
ATOM     21  C   UNL     1       6.269   3.446  12.376  0.00  0.00    +0.000 A 
ATOM     22  C   UNL     1       7.415   4.070  11.875  0.00  0.00    +0.000 A 
ATOM     23  C   UNL     1       8.034   5.084  12.600  0.00  0.00    +0.000 A 
ATOM     24  C   UNL     1       7.515   5.478  13.834  0.00  0.00    +0.000 A 
ATOM     25  C   UNL     1       6.367   4.863  14.366  0.00  0.00    +0.000 A 
ATOM     26  C   UNL     1       5.749   3.852  13.616  0.00  0.00    +0.000 A 
ENDBRANCH   1  25
TORSDOF 3
ENDMDL
