MODEL 1
REMARK VINA RESULT:      -6.1      0.000      0.000
REMARK  Name = 
REMARK  7 active torsions:
REMARK  status: ('A' for Active; 'I' for Inactive)
REMARK    1  A    between atoms: C_1  and  O_2
REMARK    2  A    between atoms: O_2  and  C_3
REMARK    3  A    between atoms: C_11  and  N_12
REMARK    4  A    between atoms: C_13  and  C_14
REMARK    5  A    between atoms: C_14  and  C_15
REMARK    6  A    between atoms: C_15  and  N_16
REMARK    7  A    between atoms: C_19  and  S_20
REMARK                            x       y       z     vdW  Elec       q    Type
REMARK                         _______ _______ _______ _____ _____    ______ ____
ROOT
ATOM      1  C   UNL     1       7.374   6.527  16.781  0.00  0.00    +0.000 A 
ATOM      2  C   UNL     1       6.718   6.045  15.650  0.00  0.00    +0.000 A 
ATOM      3  C   UNL     1       5.843   4.961  15.759  0.00  0.00    +0.000 A 
ATOM      4 CL   UNL     1       4.998   4.456  14.334  0.00  0.00    +0.000 Cl
ATOM      5  C   UNL     1       5.566   4.387  17.010  0.00  0.00    +0.000 A 
ATOM      6  C   UNL     1       6.188   4.900  18.154  0.00  0.00    +0.000 A 
ATOM      7  C   UNL     1       7.135   5.929  18.021  0.00  0.00    +0.000 A 
ATOM      8  C   UNL     1       5.765   4.462  19.524  0.00  0.00    +0.000 C 
ATOM      9  C   UNL     1       4.327   3.933  19.523  0.00  0.00    +0.000 C 
ATOM     10  C   UNL     1       4.135   2.989  18.330  0.00  0.00    +0.000 C 
ATOM     11  O   UNL     1       4.559   3.464  17.056  0.00  0.00    +0.000 OA
ENDROOT
BRANCH   9  12
ATOM     12  N   UNL     1       3.249   4.906  19.755  0.00  0.00    +0.000 N 
ATOM     13  C   UNL     1       2.297   4.787  20.778  0.00  0.00    +0.000 A 
ATOM     14  C   UNL     1       1.481   5.889  20.651  0.00  0.00    +0.000 A 
ATOM     15  N   UNL     1       1.870   6.676  19.630  0.00  0.00    +0.000 NA
ATOM     16  C   UNL     1       2.919   6.087  19.113  0.00  0.00    +0.000 A 
BRANCH  16  17
ATOM     17  S   UNL     1       3.696   6.853  17.785  0.00  0.00    +0.000 S 
ATOM     18  H   UNL     1       3.264   8.093  18.047  0.00  0.00    +0.000 HD
ENDBRANCH  16  17
BRANCH  13  19
ATOM     19  C   UNL     1       2.182   3.713  21.815  0.00  0.00    +0.000 C 
BRANCH  19  20
ATOM     20  C   UNL     1       1.350   2.511  21.348  0.00  0.00    +0.000 C 
BRANCH  20  21
ATOM     21  N   UNL     1       0.527   2.813  20.174  0.00  0.00    +0.000 NA
ATOM     22  H   UNL     1       1.156   2.934  19.379  0.00  0.00    +0.000 HD
ATOM     23  H   UNL     1       0.100   3.731  20.307  0.00  0.00    +0.000 HD
ENDBRANCH  20  21
ENDBRANCH  19  20
ENDBRANCH  13  19
ENDBRANCH   9  12
BRANCH   1  25
ATOM     24  C   UNL     1       8.011   8.553  17.844  0.00  0.00    +0.000 C 
ATOM     25  O   UNL     1       8.231   7.593  16.817  0.00  0.00    +0.000 OA
ENDBRANCH   1  25
TORSDOF 6
ENDMDL
MODEL 2
REMARK VINA RESULT:      -6.1      3.496      6.188
REMARK  Name = 
REMARK  7 active torsions:
REMARK  status: ('A' for Active; 'I' for Inactive)
REMARK    1  A    between atoms: C_1  and  O_2
REMARK    2  A    between atoms: O_2  and  C_3
REMARK    3  A    between atoms: C_11  and  N_12
REMARK    4  A    between atoms: C_13  and  C_14
REMARK    5  A    between atoms: C_14  and  C_15
REMARK    6  A    between atoms: C_15  and  N_16
REMARK    7  A    between atoms: C_19  and  S_20
REMARK                            x       y       z     vdW  Elec       q    Type
REMARK                         _______ _______ _______ _____ _____    ______ ____
ROOT
ATOM      1  C   UNL     1       1.810   5.813  20.552  0.00  0.00    +0.000 A 
ATOM      2  C   UNL     1       2.165   4.716  21.336  0.00  0.00    +0.000 A 
ATOM      3  C   UNL     1       2.532   3.513  20.727  0.00  0.00    +0.000 A 
ATOM      4 CL   UNL     1       3.037   2.211  21.751  0.00  0.00    +0.000 Cl
ATOM      5  C   UNL     1       2.609   3.411  19.330  0.00  0.00    +0.000 A 
ATOM      6  C   UNL     1       2.299   4.525  18.542  0.00  0.00    +0.000 A 
ATOM      7  C   UNL     1       1.843   5.701  19.159  0.00  0.00    +0.000 A 
ATOM      8  C   UNL     1       2.570   4.526  17.067  0.00  0.00    +0.000 C 
ATOM      9  C   UNL     1       3.670   3.525  16.700  0.00  0.00    +0.000 C 
ATOM     10  C   UNL     1       3.412   2.199  17.424  0.00  0.00    +0.000 C 
ATOM     11  O   UNL     1       3.159   2.266  18.824  0.00  0.00    +0.000 OA
ENDROOT
BRANCH   9  12
ATOM     12  N   UNL     1       5.059   4.010  16.719  0.00  0.00    +0.000 N 
ATOM     13  C   UNL     1       5.881   4.069  15.585  0.00  0.00    +0.000 A 
ATOM     14  C   UNL     1       7.083   4.576  16.027  0.00  0.00    +0.000 A 
ATOM     15  N   UNL     1       7.051   4.838  17.347  0.00  0.00    +0.000 NA
ATOM     16  C   UNL     1       5.848   4.506  17.743  0.00  0.00    +0.000 A 
BRANCH  16  17
ATOM     17  S   UNL     1       5.453   4.743  19.398  0.00  0.00    +0.000 S 
ATOM     18  H   UNL     1       4.182   4.331  19.315  0.00  0.00    +0.000 HD
ENDBRANCH  16  17
BRANCH  13  19
ATOM     19  C   UNL     1       5.544   3.688  14.176  0.00  0.00    +0.000 C 
BRANCH  19  20
ATOM     20  C   UNL     1       6.668   4.006  13.181  0.00  0.00    +0.000 C 
BRANCH  20  21
ATOM     21  N   UNL     1       6.731   3.051  12.072  0.00  0.00    +0.000 NA
ATOM     22  H   UNL     1       5.776   2.896  11.744  0.00  0.00    +0.000 HD
ATOM     23  H   UNL     1       7.025   2.146  12.443  0.00  0.00    +0.000 HD
ENDBRANCH  20  21
ENDBRANCH  19  20
ENDBRANCH  13  19
ENDBRANCH   9  12
BRANCH   1  25
ATOM     24  C   UNL     1       1.664   8.146  20.132  0.00  0.00    +0.000 C 
ATOM     25  O   UNL     1       1.459   7.051  21.017  0.00  0.00    +0.000 OA
ENDBRANCH   1  25
TORSDOF 6
ENDMDL
MODEL 3
REMARK VINA RESULT:      -6.0      2.496      3.363
REMARK  Name = 
REMARK  7 active torsions:
REMARK  status: ('A' for Active; 'I' for Inactive)
REMARK    1  A    between atoms: C_1  and  O_2
REMARK    2  A    between atoms: O_2  and  C_3
REMARK    3  A    between atoms: C_11  and  N_12
REMARK    4  A    between atoms: C_13  and  C_14
REMARK    5  A    between atoms: C_14  and  C_15
REMARK    6  A    between atoms: C_15  and  N_16
REMARK    7  A    between atoms: C_19  and  S_20
REMARK                            x       y       z     vdW  Elec       q    Type
REMARK                         _______ _______ _______ _____ _____    ______ ____
ROOT
ATOM      1  C   UNL     1       6.989   5.776  16.158  0.00  0.00    +0.000 A 
ATOM      2  C   UNL     1       7.670   5.613  17.363  0.00  0.00    +0.000 A 
ATOM      3  C   UNL     1       6.976   5.688  18.573  0.00  0.00    +0.000 A 
ATOM      4 CL   UNL     1       7.861   5.400  20.033  0.00  0.00    +0.000 Cl
ATOM      5  C   UNL     1       5.584   5.865  18.591  0.00  0.00    +0.000 A 
ATOM      6  C   UNL     1       4.891   5.982  17.380  0.00  0.00    +0.000 A 
ATOM      7  C   UNL     1       5.609   5.997  16.174  0.00  0.00    +0.000 A 
ATOM      8  C   UNL     1       3.392   5.959  17.344  0.00  0.00    +0.000 C 
ATOM      9  C   UNL     1       2.814   5.246  18.570  0.00  0.00    +0.000 C 
ATOM     10  C   UNL     1       3.536   5.737  19.830  0.00  0.00    +0.000 C 
ATOM     11  O   UNL     1       4.960   5.735  19.800  0.00  0.00    +0.000 OA
ENDROOT
BRANCH   9  12
ATOM     12  N   UNL     1       2.606   3.794  18.471  0.00  0.00    +0.000 N 
ATOM     13  C   UNL     1       1.739   3.071  19.303  0.00  0.00    +0.000 A 
ATOM     14  C   UNL     1       1.834   1.761  18.884  0.00  0.00    +0.000 A 
ATOM     15  N   UNL     1       2.689   1.635  17.852  0.00  0.00    +0.000 NA
ATOM     16  C   UNL     1       3.133   2.844  17.613  0.00  0.00    +0.000 A 
BRANCH  16  17
ATOM     17  S   UNL     1       4.242   3.049  16.317  0.00  0.00    +0.000 S 
ATOM     18  H   UNL     1       3.361   3.535  15.435  0.00  0.00    +0.000 HD
ENDBRANCH  16  17
BRANCH  13  19
ATOM     19  C   UNL     1       0.868   3.587  20.406  0.00  0.00    +0.000 C 
BRANCH  19  20
ATOM     20  C   UNL     1       1.118   2.889  21.749  0.00  0.00    +0.000 C 
BRANCH  20  21
ATOM     21  N   UNL     1       2.522   2.942  22.164  0.00  0.00    +0.000 NA
ATOM     22  H   UNL     1       2.547   2.850  23.180  0.00  0.00    +0.000 HD
ATOM     23  H   UNL     1       2.876   3.883  21.983  0.00  0.00    +0.000 HD
ENDBRANCH  20  21
ENDBRANCH  19  20
ENDBRANCH  13  19
ENDBRANCH   9  12
BRANCH   1  25
ATOM     24  C   UNL     1       6.961   4.756  14.014  0.00  0.00    +0.000 C 
ATOM     25  O   UNL     1       7.541   5.698  14.909  0.00  0.00    +0.000 OA
ENDBRANCH   1  25
TORSDOF 6
ENDMDL
MODEL 4
REMARK VINA RESULT:      -5.9      3.247      6.175
REMARK  Name = 
REMARK  7 active torsions:
REMARK  status: ('A' for Active; 'I' for Inactive)
REMARK    1  A    between atoms: C_1  and  O_2
REMARK    2  A    between atoms: O_2  and  C_3
REMARK    3  A    between atoms: C_11  and  N_12
REMARK    4  A    between atoms: C_13  and  C_14
REMARK    5  A    between atoms: C_14  and  C_15
REMARK    6  A    between atoms: C_15  and  N_16
REMARK    7  A    between atoms: C_19  and  S_20
REMARK                            x       y       z     vdW  Elec       q    Type
REMARK                         _______ _______ _______ _____ _____    ______ ____
ROOT
ATOM      1  C   UNL     1       1.482   6.971  20.428  0.00  0.00    +0.000 A 
ATOM      2  C   UNL     1       1.194   5.608  20.410  0.00  0.00    +0.000 A 
ATOM      3  C   UNL     1       1.719   4.797  19.400  0.00  0.00    +0.000 A 
ATOM      4 CL   UNL     1       1.390   3.099  19.473  0.00  0.00    +0.000 Cl
ATOM      5  C   UNL     1       2.586   5.329  18.432  0.00  0.00    +0.000 A 
ATOM      6  C   UNL     1       2.913   6.689  18.477  0.00  0.00    +0.000 A 
ATOM      7  C   UNL     1       2.310   7.512  19.441  0.00  0.00    +0.000 A 
ATOM      8  C   UNL     1       3.993   7.251  17.601  0.00  0.00    +0.000 C 
ATOM      9  C   UNL     1       4.987   6.167  17.173  0.00  0.00    +0.000 C 
ATOM     10  C   UNL     1       4.217   4.920  16.724  0.00  0.00    +0.000 C 
ATOM     11  O   UNL     1       3.203   4.437  17.600  0.00  0.00    +0.000 OA
ENDROOT
BRANCH   9  12
ATOM     12  N   UNL     1       6.145   5.929  18.049  0.00  0.00    +0.000 N 
ATOM     13  C   UNL     1       7.328   6.679  17.998  0.00  0.00    +0.000 A 
ATOM     14  C   UNL     1       8.145   6.143  18.969  0.00  0.00    +0.000 A 
ATOM     15  N   UNL     1       7.543   5.125  19.613  0.00  0.00    +0.000 NA
ATOM     16  C   UNL     1       6.359   5.014  19.064  0.00  0.00    +0.000 A 
BRANCH  16  17
ATOM     17  S   UNL     1       5.301   3.808  19.678  0.00  0.00    +0.000 S 
ATOM     18  H   UNL     1       6.163   2.787  19.594  0.00  0.00    +0.000 HD
ENDBRANCH  16  17
BRANCH  13  19
ATOM     19  C   UNL     1       7.655   7.836  17.105  0.00  0.00    +0.000 C 
BRANCH  19  20
ATOM     20  C   UNL     1       7.547   9.193  17.813  0.00  0.00    +0.000 C 
BRANCH  20  21
ATOM     21  N   UNL     1       8.828   9.657  18.349  0.00  0.00    +0.000 NA
ATOM     22  H   UNL     1       8.801   9.536  19.363  0.00  0.00    +0.000 HD
ATOM     23  H   UNL     1       8.888  10.668  18.213  0.00  0.00    +0.000 HD
ENDBRANCH  20  21
ENDBRANCH  19  20
ENDBRANCH  13  19
ENDBRANCH   9  12
BRANCH   1  25
ATOM     24  C   UNL     1       0.805   9.193  20.923  0.00  0.00    +0.000 C 
ATOM     25  O   UNL     1       1.058   7.867  21.372  0.00  0.00    +0.000 OA
ENDBRANCH   1  25
TORSDOF 6
ENDMDL
MODEL 5
REMARK VINA RESULT:      -5.8      3.354      6.027
REMARK  Name = 
REMARK  7 active torsions:
REMARK  status: ('A' for Active; 'I' for Inactive)
REMARK    1  A    between atoms: C_1  and  O_2
REMARK    2  A    between atoms: O_2  and  C_3
REMARK    3  A    between atoms: C_11  and  N_12
REMARK    4  A    between atoms: C_13  and  C_14
REMARK    5  A    between atoms: C_14  and  C_15
REMARK    6  A    between atoms: C_15  and  N_16
REMARK    7  A    between atoms: C_19  and  S_20
REMARK                            x       y       z     vdW  Elec       q    Type
REMARK                         _______ _______ _______ _____ _____    ______ ____
ROOT
ATOM      1  C   UNL     1       1.882   7.126  20.298  0.00  0.00    +0.000 A 
ATOM      2  C   UNL     1       1.523   5.882  20.813  0.00  0.00    +0.000 A 
ATOM      3  C   UNL     1       1.657   4.735  20.026  0.00  0.00    +0.000 A 
ATOM      4 CL   UNL     1       1.268   3.209  20.746  0.00  0.00    +0.000 Cl
ATOM      5  C   UNL     1       2.209   4.811  18.737  0.00  0.00    +0.000 A 
ATOM      6  C   UNL     1       2.614   6.054  18.236  0.00  0.00    +0.000 A 
ATOM      7  C   UNL     1       2.391   7.211  18.999  0.00  0.00    +0.000 A 
ATOM      8  C   UNL     1       3.397   6.153  16.961  0.00  0.00    +0.000 C 
ATOM      9  C   UNL     1       4.143   4.849  16.660  0.00  0.00    +0.000 C 
ATOM     10  C   UNL     1       3.198   3.662  16.881  0.00  0.00    +0.000 C 
ATOM     11  O   UNL     1       2.482   3.627  18.112  0.00  0.00    +0.000 OA
ENDROOT
BRANCH   9  12
ATOM     12  N   UNL     1       5.499   4.705  17.209  0.00  0.00    +0.000 N 
ATOM     13  C   UNL     1       6.663   4.721  16.428  0.00  0.00    +0.000 A 
ATOM     14  C   UNL     1       7.705   4.560  17.315  0.00  0.00    +0.000 A 
ATOM     15  N   UNL     1       7.261   4.453  18.582  0.00  0.00    +0.000 NA
ATOM     16  C   UNL     1       5.957   4.548  18.506  0.00  0.00    +0.000 A 
BRANCH  16  17
ATOM     17  S   UNL     1       5.062   4.478  19.971  0.00  0.00    +0.000 S 
ATOM     18  H   UNL     1       4.209   5.468  19.678  0.00  0.00    +0.000 HD
ENDBRANCH  16  17
BRANCH  13  19
ATOM     19  C   UNL     1       6.781   4.897  14.945  0.00  0.00    +0.000 C 
BRANCH  19  20
ATOM     20  C   UNL     1       5.972   3.865  14.149  0.00  0.00    +0.000 C 
BRANCH  20  21
ATOM     21  N   UNL     1       6.617   3.487  12.889  0.00  0.00    +0.000 NA
ATOM     22  H   UNL     1       7.618   3.664  12.990  0.00  0.00    +0.000 HD
ATOM     23  H   UNL     1       6.313   4.139  12.164  0.00  0.00    +0.000 HD
ENDBRANCH  20  21
ENDBRANCH  19  20
ENDBRANCH  13  19
ENDBRANCH   9  12
BRANCH   1  25
ATOM     24  C   UNL     1       0.567   8.679  21.523  0.00  0.00    +0.000 C 
ATOM     25  O   UNL     1       1.827   8.317  20.970  0.00  0.00    +0.000 OA
ENDBRANCH   1  25
TORSDOF 6
ENDMDL
MODEL 6
REMARK VINA RESULT:      -5.7      1.089      1.195
REMARK  Name = 
REMARK  7 active torsions:
REMARK  status: ('A' for Active; 'I' for Inactive)
REMARK    1  A    between atoms: C_1  and  O_2
REMARK    2  A    between atoms: O_2  and  C_3
REMARK    3  A    between atoms: C_11  and  N_12
REMARK    4  A    between atoms: C_13  and  C_14
REMARK    5  A    between atoms: C_14  and  C_15
REMARK    6  A    between atoms: C_15  and  N_16
REMARK    7  A    between atoms: C_19  and  S_20
REMARK                            x       y       z     vdW  Elec       q    Type
REMARK                         _______ _______ _______ _____ _____    ______ ____
ROOT
ATOM      1  C   UNL     1       7.484   6.380  17.978  0.00  0.00    +0.000 A 
ATOM      2  C   UNL     1       7.062   6.442  16.652  0.00  0.00    +0.000 A 
ATOM      3  C   UNL     1       6.104   5.539  16.181  0.00  0.00    +0.000 A 
ATOM      4 CL   UNL     1       5.562   5.714  14.546  0.00  0.00    +0.000 Cl
ATOM      5  C   UNL     1       5.513   4.606  17.047  0.00  0.00    +0.000 A 
ATOM      6  C   UNL     1       5.902   4.574  18.391  0.00  0.00    +0.000 A 
ATOM      7  C   UNL     1       6.930   5.422  18.832  0.00  0.00    +0.000 A 
ATOM      8  C   UNL     1       5.152   3.745  19.391  0.00  0.00    +0.000 C 
ATOM      9  C   UNL     1       3.715   3.480  18.932  0.00  0.00    +0.000 C 
ATOM     10  C   UNL     1       3.722   3.066  17.456  0.00  0.00    +0.000 C 
ATOM     11  O   UNL     1       4.454   3.894  16.557  0.00  0.00    +0.000 OA
ENDROOT
BRANCH   9  12
ATOM     12  N   UNL     1       2.689   4.459  19.322  0.00  0.00    +0.000 N 
ATOM     13  C   UNL     1       1.545   4.136  20.066  0.00  0.00    +0.000 A 
ATOM     14  C   UNL     1       0.857   5.320  20.215  0.00  0.00    +0.000 A 
ATOM     15  N   UNL     1       1.502   6.343  19.623  0.00  0.00    +0.000 NA
ATOM     16  C   UNL     1       2.586   5.822  19.106  0.00  0.00    +0.000 A 
BRANCH  16  17
ATOM     17  S   UNL     1       3.670   6.874  18.287  0.00  0.00    +0.000 S 
ATOM     18  H   UNL     1       3.093   8.020  18.670  0.00  0.00    +0.000 HD
ENDBRANCH  16  17
BRANCH  13  19
ATOM     19  C   UNL     1       1.141   2.802  20.613  0.00  0.00    +0.000 C 
BRANCH  19  20
ATOM     20  C   UNL     1       1.692   2.535  22.020  0.00  0.00    +0.000 C 
BRANCH  20  21
ATOM     21  N   UNL     1       3.108   2.158  22.013  0.00  0.00    +0.000 NA
ATOM     22  H   UNL     1       3.617   2.880  21.501  0.00  0.00    +0.000 HD
ATOM     23  H   UNL     1       3.214   1.317  21.443  0.00  0.00    +0.000 HD
ENDBRANCH  20  21
ENDBRANCH  19  20
ENDBRANCH  13  19
ENDBRANCH   9  12
BRANCH   1  25
ATOM     24  C   UNL     1       8.328   8.589  18.197  0.00  0.00    +0.000 C 
ATOM     25  O   UNL     1       8.390   7.217  18.571  0.00  0.00    +0.000 OA
ENDBRANCH   1  25
TORSDOF 6
ENDMDL
MODEL 7
REMARK VINA RESULT:      -5.6      7.004      9.839
REMARK  Name = 
REMARK  7 active torsions:
REMARK  status: ('A' for Active; 'I' for Inactive)
REMARK    1  A    between atoms: C_1  and  O_2
REMARK    2  A    between atoms: O_2  and  C_3
REMARK    3  A    between atoms: C_11  and  N_12
REMARK    4  A    between atoms: C_13  and  C_14
REMARK    5  A    between atoms: C_14  and  C_15
REMARK    6  A    between atoms: C_15  and  N_16
REMARK    7  A    between atoms: C_19  and  S_20
REMARK                            x       y       z     vdW  Elec       q    Type
REMARK                         _______ _______ _______ _____ _____    ______ ____
ROOT
ATOM      1  C   UNL     1       9.293  10.544  18.696  0.00  0.00    +0.000 A 
ATOM      2  C   UNL     1      10.372  11.186  19.302  0.00  0.00    +0.000 A 
ATOM      3  C   UNL     1      10.549  12.562  19.135  0.00  0.00    +0.000 A 
ATOM      4 CL   UNL     1      11.862  13.317  19.973  0.00  0.00    +0.000 Cl
ATOM      5  C   UNL     1       9.616  13.322  18.412  0.00  0.00    +0.000 A 
ATOM      6  C   UNL     1       8.506  12.686  17.843  0.00  0.00    +0.000 A 
ATOM      7  C   UNL     1       8.386  11.291  17.939  0.00  0.00    +0.000 A 
ATOM      8  C   UNL     1       7.382  13.482  17.249  0.00  0.00    +0.000 C 
ATOM      9  C   UNL     1       7.322  14.893  17.843  0.00  0.00    +0.000 C 
ATOM     10  C   UNL     1       8.734  15.487  17.883  0.00  0.00    +0.000 C 
ATOM     11  O   UNL     1       9.758  14.680  18.458  0.00  0.00    +0.000 OA
ENDROOT
BRANCH   9  12
ATOM     12  N   UNL     1       6.507  15.083  19.052  0.00  0.00    +0.000 N 
ATOM     13  C   UNL     1       5.113  15.226  19.039  0.00  0.00    +0.000 A 
ATOM     14  C   UNL     1       4.746  15.378  20.359  0.00  0.00    +0.000 A 
ATOM     15  N   UNL     1       5.815  15.331  21.176  0.00  0.00    +0.000 NA
ATOM     16  C   UNL     1       6.848  15.149  20.392  0.00  0.00    +0.000 A 
BRANCH  16  17
ATOM     17  S   UNL     1       8.397  15.013  21.124  0.00  0.00    +0.000 S 
ATOM     18  H   UNL     1       8.262  13.747  21.537  0.00  0.00    +0.000 HD
ENDBRANCH  16  17
BRANCH  13  19
ATOM     19  C   UNL     1       4.189  15.201  17.860  0.00  0.00    +0.000 C 
BRANCH  19  20
ATOM     20  C   UNL     1       2.893  14.424  18.126  0.00  0.00    +0.000 C 
BRANCH  20  21
ATOM     21  N   UNL     1       3.011  12.999  17.807  0.00  0.00    +0.000 NA
ATOM     22  H   UNL     1       2.083  12.665  17.542  0.00  0.00    +0.000 HD
ATOM     23  H   UNL     1       3.231  12.493  18.666  0.00  0.00    +0.000 HD
ENDBRANCH  20  21
ENDBRANCH  19  20
ENDBRANCH  13  19
ENDBRANCH   9  12
BRANCH   1  25
ATOM     24  C   UNL     1       8.053   8.697  17.864  0.00  0.00    +0.000 C 
ATOM     25  O   UNL     1       8.990   9.214  18.802  0.00  0.00    +0.000 OA
ENDBRANCH   1  25
TORSDOF 6
ENDMDL
MODEL 8
REMARK VINA RESULT:      -5.5      2.492      3.238
REMARK  Name = 
REMARK  7 active torsions:
REMARK  status: ('A' for Active; 'I' for Inactive)
REMARK    1  A    between atoms: C_1  and  O_2
REMARK    2  A    between atoms: O_2  and  C_3
REMARK    3  A    between atoms: C_11  and  N_12
REMARK    4  A    between atoms: C_13  and  C_14
REMARK    5  A    between atoms: C_14  and  C_15
REMARK    6  A    between atoms: C_15  and  N_16
REMARK    7  A    between atoms: C_19  and  S_20
REMARK                            x       y       z     vdW  Elec       q    Type
REMARK                         _______ _______ _______ _____ _____    ______ ____
ROOT
ATOM      1  C   UNL     1       6.176   6.342  17.492  0.00  0.00    +0.000 A 
ATOM      2  C   UNL     1       5.188   7.321  17.579  0.00  0.00    +0.000 A 
ATOM      3  C   UNL     1       3.840   6.958  17.530  0.00  0.00    +0.000 A 
ATOM      4 CL   UNL     1       2.658   8.209  17.720  0.00  0.00    +0.000 Cl
ATOM      5  C   UNL     1       3.463   5.608  17.454  0.00  0.00    +0.000 A 
ATOM      6  C   UNL     1       4.454   4.620  17.415  0.00  0.00    +0.000 A 
ATOM      7  C   UNL     1       5.805   5.000  17.373  0.00  0.00    +0.000 A 
ATOM      8  C   UNL     1       4.102   3.168  17.549  0.00  0.00    +0.000 C 
ATOM      9  C   UNL     1       2.767   2.983  18.277  0.00  0.00    +0.000 C 
ATOM     10  C   UNL     1       1.737   3.965  17.707  0.00  0.00    +0.000 C 
ATOM     11  O   UNL     1       2.134   5.329  17.604  0.00  0.00    +0.000 OA
ENDROOT
BRANCH   9  12
ATOM     12  N   UNL     1       2.807   2.867  19.742  0.00  0.00    +0.000 N 
ATOM     13  C   UNL     1       1.918   3.529  20.602  0.00  0.00    +0.000 A 
ATOM     14  C   UNL     1       2.291   3.156  21.874  0.00  0.00    +0.000 A 
ATOM     15  N   UNL     1       3.338   2.310  21.853  0.00  0.00    +0.000 NA
ATOM     16  C   UNL     1       3.628   2.142  20.587  0.00  0.00    +0.000 A 
BRANCH  16  17
ATOM     17  S   UNL     1       4.921   1.080  20.195  0.00  0.00    +0.000 S 
ATOM     18  H   UNL     1       5.352   0.892  21.448  0.00  0.00    +0.000 HD
ENDBRANCH  16  17
BRANCH  13  19
ATOM     19  C   UNL     1       0.782   4.436  20.241  0.00  0.00    +0.000 C 
BRANCH  19  20
ATOM     20  C   UNL     1       0.990   5.880  20.716  0.00  0.00    +0.000 C 
BRANCH  20  21
ATOM     21  N   UNL     1       2.392   6.299  20.661  0.00  0.00    +0.000 NA
ATOM     22  H   UNL     1       2.486   6.962  19.890  0.00  0.00    +0.000 HD
ATOM     23  H   UNL     1       2.958   5.497  20.380  0.00  0.00    +0.000 HD
ENDBRANCH  20  21
ENDBRANCH  19  20
ENDBRANCH  13  19
ENDBRANCH   9  12
BRANCH   1  25
ATOM     24  C   UNL     1       7.949   7.911  17.674  0.00  0.00    +0.000 C 
ATOM     25  O   UNL     1       7.526   6.558  17.555  0.00  0.00    +0.000 OA
ENDBRANCH   1  25
TORSDOF 6
ENDMDL
MODEL 9
REMARK VINA RESULT:      -5.5      9.152     11.207
REMARK  Name = 
REMARK  7 active torsions:
REMARK  status: ('A' for Active; 'I' for Inactive)
REMARK    1  A    between atoms: C_1  and  O_2
REMARK    2  A    between atoms: O_2  and  C_3
REMARK    3  A    between atoms: C_11  and  N_12
REMARK    4  A    between atoms: C_13  and  C_14
REMARK    5  A    between atoms: C_14  and  C_15
REMARK    6  A    between atoms: C_15  and  N_16
REMARK    7  A    between atoms: C_19  and  S_20
REMARK                            x       y       z     vdW  Elec       q    Type
REMARK                         _______ _______ _______ _____ _____    ______ ____
ROOT
ATOM      1  C   UNL     1      -5.620  10.851  18.490  0.00  0.00    +0.000 A 
ATOM      2  C   UNL     1      -4.723  10.250  17.608  0.00  0.00    +0.000 A 
ATOM      3  C   UNL     1      -3.427  10.755  17.481  0.00  0.00    +0.000 A 
ATOM      4 CL   UNL     1      -2.334   9.921  16.428  0.00  0.00    +0.000 Cl
ATOM      5  C   UNL     1      -2.993  11.828  18.276  0.00  0.00    +0.000 A 
ATOM      6  C   UNL     1      -3.879  12.402  19.195  0.00  0.00    +0.000 A 
ATOM      7  C   UNL     1      -5.206  11.947  19.251  0.00  0.00    +0.000 A 
ATOM      8  C   UNL     1      -3.400  13.400  20.207  0.00  0.00    +0.000 C 
ATOM      9  C   UNL     1      -1.900  13.245  20.478  0.00  0.00    +0.000 C 
ATOM     10  C   UNL     1      -1.156  13.098  19.146  0.00  0.00    +0.000 C 
ATOM     11  O   UNL     1      -1.662  12.134  18.227  0.00  0.00    +0.000 OA
ENDROOT
BRANCH   9  12
ATOM     12  N   UNL     1      -1.499  12.319  21.547  0.00  0.00    +0.000 N 
ATOM     13  C   UNL     1      -2.289  12.031  22.669  0.00  0.00    +0.000 A 
ATOM     14  C   UNL     1      -1.559  11.130  23.412  0.00  0.00    +0.000 A 
ATOM     15  N   UNL     1      -0.385  10.841  22.821  0.00  0.00    +0.000 NA
ATOM     16  C   UNL     1      -0.364  11.544  21.717  0.00  0.00    +0.000 A 
BRANCH  16  17
ATOM     17  S   UNL     1       1.005  11.387  20.692  0.00  0.00    +0.000 S 
ATOM     18  H   UNL     1       1.845  10.920  21.624  0.00  0.00    +0.000 HD
ENDBRANCH  16  17
BRANCH  13  19
ATOM     19  C   UNL     1      -3.650  12.560  23.003  0.00  0.00    +0.000 C 
BRANCH  19  20
ATOM     20  C   UNL     1      -3.841  12.826  24.502  0.00  0.00    +0.000 C 
BRANCH  20  21
ATOM     21  N   UNL     1      -4.908  12.013  25.091  0.00  0.00    +0.000 NA
ATOM     22  H   UNL     1      -4.514  11.526  25.898  0.00  0.00    +0.000 HD
ATOM     23  H   UNL     1      -5.147  11.270  24.433  0.00  0.00    +0.000 HD
ENDBRANCH  20  21
ENDBRANCH  19  20
ENDBRANCH  13  19
ENDBRANCH   9  12
BRANCH   1  25
ATOM     24  C   UNL     1      -7.226  10.115  20.077  0.00  0.00    +0.000 C 
ATOM     25  O   UNL     1      -6.904  10.441  18.730  0.00  0.00    +0.000 OA
ENDBRANCH   1  25
TORSDOF 6
ENDMDL
