MODEL 1
REMARK VINA RESULT:      -7.3      0.000      0.000
REMARK  Name = 
REMARK  9 active torsions:
REMARK  status: ('A' for Active; 'I' for Inactive)
REMARK    1  A    between atoms: C_1  and  C_2
REMARK    2  A    between atoms: C_2  and  C_3
REMARK    3  A    between atoms: C_3  and  C_4
REMARK    4  A    between atoms: C_4  and  N_5
REMARK    5  A    between atoms: N_5  and  C_6
REMARK    6  A    between atoms: N_5  and  C_7
REMARK    7  A    between atoms: C_11  and  C_12
REMARK    8  A    between atoms: C_15  and  O_16
REMARK    9  A    between atoms: O_16  and  C_17
REMARK                            x       y       z     vdW  Elec       q    Type
REMARK                         _______ _______ _______ _____ _____    ______ ____
ROOT
ATOM      1  C   UNL     1       5.941   4.852  16.343  0.00  0.00    +0.000 C 
ATOM      2  C   UNL     1       5.297   6.055  15.603  0.00  0.00    +0.000 C 
ATOM      3  C   UNL     1       4.537   6.883  16.632  0.00  0.00    +0.000 C 
ATOM      4  C   UNL     1       4.042   5.856  17.593  0.00  0.00    +0.000 C 
ATOM      5  C   UNL     1       3.115   5.972  18.552  0.00  0.00    +0.000 C 
ATOM      6  C   UNL     1       4.814   4.597  17.344  0.00  0.00    +0.000 C 
ATOM      7  O   UNL     1       4.596   3.555  17.948  0.00  0.00    +0.000 OA
ENDROOT
BRANCH   5   8
ATOM      8  C   UNL     1       2.418   7.231  18.816  0.00  0.00    +0.000 A 
ATOM      9  C   UNL     1       1.990   7.545  20.108  0.00  0.00    +0.000 A 
ATOM     10  C   UNL     1       1.296   8.735  20.347  0.00  0.00    +0.000 A 
ATOM     11  C   UNL     1       1.040   9.631  19.308  0.00  0.00    +0.000 A 
ATOM     12  C   UNL     1       1.455   9.315  18.015  0.00  0.00    +0.000 A 
ATOM     13  C   UNL     1       2.141   8.119  17.770  0.00  0.00    +0.000 A 
BRANCH  11  14
ATOM     14  O   UNL     1       0.337  10.751  19.659  0.00  0.00    +0.000 OA
ATOM     15  C   UNL     1      -0.437  10.649  20.849  0.00  0.00    +0.000 C 
ENDBRANCH  11  14
ENDBRANCH   5   8
BRANCH   1  17
ATOM     16  C   UNL     1       5.987   4.027  13.858  0.00  0.00    +0.000 C 
ATOM     17  C   UNL     1       6.151   3.697  15.337  0.00  0.00    +0.000 C 
ENDBRANCH   1  17
BRANCH   1  18
ATOM     18  C   UNL     1       7.198   5.176  17.208  0.00  0.00    +0.000 C 
BRANCH  18  19
ATOM     19  N   UNL     1       7.111   6.137  18.331  0.00  0.00    +0.000 NA
ATOM     20  C   UNL     1       7.651   5.632  19.592  0.00  0.00    +0.000 C 
ATOM     21  C   UNL     1       7.849   7.360  17.973  0.00  0.00    +0.000 C 
ENDBRANCH  18  19
ENDBRANCH   1  18
TORSDOF 5
ENDMDL
MODEL 2
REMARK VINA RESULT:      -7.2      0.522      1.212
REMARK  Name = 
REMARK  9 active torsions:
REMARK  status: ('A' for Active; 'I' for Inactive)
REMARK    1  A    between atoms: C_1  and  C_2
REMARK    2  A    between atoms: C_2  and  C_3
REMARK    3  A    between atoms: C_3  and  C_4
REMARK    4  A    between atoms: C_4  and  N_5
REMARK    5  A    between atoms: N_5  and  C_6
REMARK    6  A    between atoms: N_5  and  C_7
REMARK    7  A    between atoms: C_11  and  C_12
REMARK    8  A    between atoms: C_15  and  O_16
REMARK    9  A    between atoms: O_16  and  C_17
REMARK                            x       y       z     vdW  Elec       q    Type
REMARK                         _______ _______ _______ _____ _____    ______ ____
ROOT
ATOM      1  C   UNL     1       5.901   4.825  16.343  0.00  0.00    +0.000 C 
ATOM      2  C   UNL     1       5.279   6.072  15.658  0.00  0.00    +0.000 C 
ATOM      3  C   UNL     1       4.518   6.855  16.720  0.00  0.00    +0.000 C 
ATOM      4  C   UNL     1       4.001   5.788  17.623  0.00  0.00    +0.000 C 
ATOM      5  C   UNL     1       3.065   5.867  18.578  0.00  0.00    +0.000 C 
ATOM      6  C   UNL     1       4.761   4.534  17.319  0.00  0.00    +0.000 C 
ATOM      7  O   UNL     1       4.525   3.465  17.867  0.00  0.00    +0.000 OA
ENDROOT
BRANCH   5   8
ATOM      8  C   UNL     1       2.381   7.120  18.898  0.00  0.00    +0.000 A 
ATOM      9  C   UNL     1       2.156   8.077  17.906  0.00  0.00    +0.000 A 
ATOM     10  C   UNL     1       1.530   9.285  18.226  0.00  0.00    +0.000 A 
ATOM     11  C   UNL     1       1.105   9.543  19.530  0.00  0.00    +0.000 A 
ATOM     12  C   UNL     1       1.339   8.595  20.526  0.00  0.00    +0.000 A 
ATOM     13  C   UNL     1       1.975   7.388  20.210  0.00  0.00    +0.000 A 
BRANCH  11  14
ATOM     14  O   UNL     1       0.524  10.767  19.726  0.00  0.00    +0.000 OA
ATOM     15  C   UNL     1       0.836  11.762  18.759  0.00  0.00    +0.000 C 
ENDBRANCH  11  14
ENDBRANCH   5   8
BRANCH   1  17
ATOM     16  C   UNL     1       5.922   4.116  13.822  0.00  0.00    +0.000 C 
ATOM     17  C   UNL     1       6.109   3.720  15.282  0.00  0.00    +0.000 C 
ENDBRANCH   1  17
BRANCH   1  18
ATOM     18  C   UNL     1       7.153   5.090  17.235  0.00  0.00    +0.000 C 
BRANCH  18  19
ATOM     19  N   UNL     1       7.104   6.095  18.321  0.00  0.00    +0.000 NA
ATOM     20  C   UNL     1       7.709   5.651  19.575  0.00  0.00    +0.000 C 
ATOM     21  C   UNL     1       7.804   7.313  17.879  0.00  0.00    +0.000 C 
ENDBRANCH  18  19
ENDBRANCH   1  18
TORSDOF 5
ENDMDL
MODEL 3
REMARK VINA RESULT:      -7.1      1.693      2.946
REMARK  Name = 
REMARK  9 active torsions:
REMARK  status: ('A' for Active; 'I' for Inactive)
REMARK    1  A    between atoms: C_1  and  C_2
REMARK    2  A    between atoms: C_2  and  C_3
REMARK    3  A    between atoms: C_3  and  C_4
REMARK    4  A    between atoms: C_4  and  N_5
REMARK    5  A    between atoms: N_5  and  C_6
REMARK    6  A    between atoms: N_5  and  C_7
REMARK    7  A    between atoms: C_11  and  C_12
REMARK    8  A    between atoms: C_15  and  O_16
REMARK    9  A    between atoms: O_16  and  C_17
REMARK                            x       y       z     vdW  Elec       q    Type
REMARK                         _______ _______ _______ _____ _____    ______ ____
ROOT
ATOM      1  C   UNL     1       3.549   3.567  17.687  0.00  0.00    +0.000 C 
ATOM      2  C   UNL     1       2.034   3.868  17.536  0.00  0.00    +0.000 C 
ATOM      3  C   UNL     1       1.831   5.362  17.763  0.00  0.00    +0.000 C 
ATOM      4  C   UNL     1       2.870   5.694  18.779  0.00  0.00    +0.000 C 
ATOM      5  C   UNL     1       2.997   6.795  19.530  0.00  0.00    +0.000 C 
ATOM      6  C   UNL     1       3.847   4.559  18.811  0.00  0.00    +0.000 C 
ATOM      7  O   UNL     1       4.792   4.519  19.589  0.00  0.00    +0.000 OA
ENDROOT
BRANCH   5   8
ATOM      8  C   UNL     1       2.063   7.917  19.435  0.00  0.00    +0.000 A 
ATOM      9  C   UNL     1       1.940   8.635  18.244  0.00  0.00    +0.000 A 
ATOM     10  C   UNL     1       1.069   9.726  18.170  0.00  0.00    +0.000 A 
ATOM     11  C   UNL     1       0.300  10.100  19.274  0.00  0.00    +0.000 A 
ATOM     12  C   UNL     1       0.430   9.392  20.469  0.00  0.00    +0.000 A 
ATOM     13  C   UNL     1       1.309   8.305  20.549  0.00  0.00    +0.000 A 
BRANCH  11  14
ATOM     14  O   UNL     1      -0.500  11.194  19.089  0.00  0.00    +0.000 OA
ATOM     15  C   UNL     1      -1.243  11.618  20.226  0.00  0.00    +0.000 C 
ENDBRANCH  11  14
ENDBRANCH   5   8
BRANCH   1  17
ATOM     16  C   UNL     1       2.686   1.500  19.043  0.00  0.00    +0.000 C 
ATOM     17  C   UNL     1       3.729   2.088  18.100  0.00  0.00    +0.000 C 
ENDBRANCH   1  17
BRANCH   1  18
ATOM     18  C   UNL     1       4.455   4.006  16.495  0.00  0.00    +0.000 C 
BRANCH  18  19
ATOM     19  N   UNL     1       5.526   5.009  16.694  0.00  0.00    +0.000 NA
ATOM     20  C   UNL     1       6.869   4.514  16.399  0.00  0.00    +0.000 C 
ATOM     21  C   UNL     1       5.263   6.169  15.826  0.00  0.00    +0.000 C 
ENDBRANCH  18  19
ENDBRANCH   1  18
TORSDOF 5
ENDMDL
MODEL 4
REMARK VINA RESULT:      -7.0      1.768      2.820
REMARK  Name = 
REMARK  9 active torsions:
REMARK  status: ('A' for Active; 'I' for Inactive)
REMARK    1  A    between atoms: C_1  and  C_2
REMARK    2  A    between atoms: C_2  and  C_3
REMARK    3  A    between atoms: C_3  and  C_4
REMARK    4  A    between atoms: C_4  and  N_5
REMARK    5  A    between atoms: N_5  and  C_6
REMARK    6  A    between atoms: N_5  and  C_7
REMARK    7  A    between atoms: C_11  and  C_12
REMARK    8  A    between atoms: C_15  and  O_16
REMARK    9  A    between atoms: O_16  and  C_17
REMARK                            x       y       z     vdW  Elec       q    Type
REMARK                         _______ _______ _______ _____ _____    ______ ____
ROOT
ATOM      1  C   UNL     1       3.471   3.589  17.634  0.00  0.00    +0.000 C 
ATOM      2  C   UNL     1       1.955   3.905  17.526  0.00  0.00    +0.000 C 
ATOM      3  C   UNL     1       1.766   5.387  17.823  0.00  0.00    +0.000 C 
ATOM      4  C   UNL     1       2.826   5.669  18.832  0.00  0.00    +0.000 C 
ATOM      5  C   UNL     1       2.973   6.734  19.630  0.00  0.00    +0.000 C 
ATOM      6  C   UNL     1       3.797   4.529  18.795  0.00  0.00    +0.000 C 
ATOM      7  O   UNL     1       4.756   4.449  19.552  0.00  0.00    +0.000 OA
ENDROOT
BRANCH   5   8
ATOM      8  C   UNL     1       2.045   7.864  19.603  0.00  0.00    +0.000 A 
ATOM      9  C   UNL     1       1.282   8.180  20.729  0.00  0.00    +0.000 A 
ATOM     10  C   UNL     1       0.373   9.241  20.686  0.00  0.00    +0.000 A 
ATOM     11  C   UNL     1       0.229  10.008  19.529  0.00  0.00    +0.000 A 
ATOM     12  C   UNL     1       0.980   9.688  18.398  0.00  0.00    +0.000 A 
ATOM     13  C   UNL     1       1.884   8.620  18.435  0.00  0.00    +0.000 A 
BRANCH  11  14
ATOM     14  O   UNL     1      -0.705  11.006  19.599  0.00  0.00    +0.000 OA
ATOM     15  C   UNL     1      -0.648  11.981  18.564  0.00  0.00    +0.000 C 
ENDBRANCH  11  14
ENDBRANCH   5   8
BRANCH   1  17
ATOM     16  C   UNL     1       2.785   1.530  19.099  0.00  0.00    +0.000 C 
ATOM     17  C   UNL     1       3.650   2.092  17.978  0.00  0.00    +0.000 C 
ENDBRANCH   1  17
BRANCH   1  18
ATOM     18  C   UNL     1       4.357   4.076  16.446  0.00  0.00    +0.000 C 
BRANCH  18  19
ATOM     19  N   UNL     1       5.478   5.015  16.678  0.00  0.00    +0.000 NA
ATOM     20  C   UNL     1       6.787   4.488  16.298  0.00  0.00    +0.000 C 
ATOM     21  C   UNL     1       5.238   6.248  15.909  0.00  0.00    +0.000 C 
ENDBRANCH  18  19
ENDBRANCH   1  18
TORSDOF 5
ENDMDL
MODEL 5
REMARK VINA RESULT:      -7.0      1.999      3.383
REMARK  Name = 
REMARK  9 active torsions:
REMARK  status: ('A' for Active; 'I' for Inactive)
REMARK    1  A    between atoms: C_1  and  C_2
REMARK    2  A    between atoms: C_2  and  C_3
REMARK    3  A    between atoms: C_3  and  C_4
REMARK    4  A    between atoms: C_4  and  N_5
REMARK    5  A    between atoms: N_5  and  C_6
REMARK    6  A    between atoms: N_5  and  C_7
REMARK    7  A    between atoms: C_11  and  C_12
REMARK    8  A    between atoms: C_15  and  O_16
REMARK    9  A    between atoms: O_16  and  C_17
REMARK                            x       y       z     vdW  Elec       q    Type
REMARK                         _______ _______ _______ _____ _____    ______ ____
ROOT
ATOM      1  C   UNL     1       5.254   4.726  17.622  0.00  0.00    +0.000 C 
ATOM      2  C   UNL     1       5.197   5.096  19.129  0.00  0.00    +0.000 C 
ATOM      3  C   UNL     1       3.923   5.900  19.362  0.00  0.00    +0.000 C 
ATOM      4  C   UNL     1       3.765   6.659  18.089  0.00  0.00    +0.000 C 
ATOM      5  C   UNL     1       2.969   7.702  17.820  0.00  0.00    +0.000 C 
ATOM      6  C   UNL     1       4.652   6.017  17.068  0.00  0.00    +0.000 C 
ATOM      7  O   UNL     1       4.777   6.450  15.930  0.00  0.00    +0.000 OA
ENDROOT
BRANCH   5   8
ATOM      8  C   UNL     1       2.065   8.273  18.818  0.00  0.00    +0.000 A 
ATOM      9  C   UNL     1       1.354   9.443  18.541  0.00  0.00    +0.000 A 
ATOM     10  C   UNL     1       0.517  10.001  19.512  0.00  0.00    +0.000 A 
ATOM     11  C   UNL     1       0.365   9.390  20.757  0.00  0.00    +0.000 A 
ATOM     12  C   UNL     1       1.083   8.228  21.041  0.00  0.00    +0.000 A 
ATOM     13  C   UNL     1       1.930   7.673  20.075  0.00  0.00    +0.000 A 
BRANCH  11  14
ATOM     14  O   UNL     1      -0.465  10.038  21.632  0.00  0.00    +0.000 OA
ATOM     15  C   UNL     1      -0.242   9.769  23.011  0.00  0.00    +0.000 C 
ENDBRANCH  11  14
ENDBRANCH   5   8
BRANCH   1  17
ATOM     16  C   UNL     1       7.797   4.944  18.210  0.00  0.00    +0.000 C 
ATOM     17  C   UNL     1       6.730   4.504  17.216  0.00  0.00    +0.000 C 
ENDBRANCH   1  17
BRANCH   1  18
ATOM     18  C   UNL     1       4.292   3.588  17.162  0.00  0.00    +0.000 C 
BRANCH  18  19
ATOM     19  N   UNL     1       3.324   2.991  18.110  0.00  0.00    +0.000 NA
ATOM     20  C   UNL     1       1.925   3.209  17.752  0.00  0.00    +0.000 C 
ATOM     21  C   UNL     1       3.558   1.539  18.184  0.00  0.00    +0.000 C 
ENDBRANCH  18  19
ENDBRANCH   1  18
TORSDOF 5
ENDMDL
MODEL 6
REMARK VINA RESULT:      -6.9      3.649      7.590
REMARK  Name = 
REMARK  9 active torsions:
REMARK  status: ('A' for Active; 'I' for Inactive)
REMARK    1  A    between atoms: C_1  and  C_2
REMARK    2  A    between atoms: C_2  and  C_3
REMARK    3  A    between atoms: C_3  and  C_4
REMARK    4  A    between atoms: C_4  and  N_5
REMARK    5  A    between atoms: N_5  and  C_6
REMARK    6  A    between atoms: N_5  and  C_7
REMARK    7  A    between atoms: C_11  and  C_12
REMARK    8  A    between atoms: C_15  and  O_16
REMARK    9  A    between atoms: O_16  and  C_17
REMARK                            x       y       z     vdW  Elec       q    Type
REMARK                         _______ _______ _______ _____ _____    ______ ____
ROOT
ATOM      1  C   UNL     1       0.888  10.486  18.711  0.00  0.00    +0.000 C 
ATOM      2  C   UNL     1       1.978   9.768  17.871  0.00  0.00    +0.000 C 
ATOM      3  C   UNL     1       1.954   8.290  18.242  0.00  0.00    +0.000 C 
ATOM      4  C   UNL     1       1.588   8.310  19.687  0.00  0.00    +0.000 C 
ATOM      5  C   UNL     1       1.661   7.326  20.591  0.00  0.00    +0.000 C 
ATOM      6  C   UNL     1       1.046   9.672  19.995  0.00  0.00    +0.000 C 
ATOM      7  O   UNL     1       0.706  10.011  21.121  0.00  0.00    +0.000 OA
ENDROOT
BRANCH   5   8
ATOM      8  C   UNL     1       2.136   5.985  20.250  0.00  0.00    +0.000 A 
ATOM      9  C   UNL     1       1.330   4.868  20.484  0.00  0.00    +0.000 A 
ATOM     10  C   UNL     1       1.804   3.587  20.185  0.00  0.00    +0.000 A 
ATOM     11  C   UNL     1       3.073   3.408  19.633  0.00  0.00    +0.000 A 
ATOM     12  C   UNL     1       3.885   4.520  19.410  0.00  0.00    +0.000 A 
ATOM     13  C   UNL     1       3.418   5.803  19.718  0.00  0.00    +0.000 A 
BRANCH  11  14
ATOM     14  O   UNL     1       3.434   2.108  19.402  0.00  0.00    +0.000 OA
ATOM     15  C   UNL     1       3.349   1.674  18.050  0.00  0.00    +0.000 C 
ENDBRANCH  11  14
ENDBRANCH   5   8
BRANCH   1  17
ATOM     16  C   UNL     1       2.517  12.452  18.124  0.00  0.00    +0.000 C 
ATOM     17  C   UNL     1       1.275  11.975  18.868  0.00  0.00    +0.000 C 
ENDBRANCH   1  17
BRANCH   1  18
ATOM     18  C   UNL     1      -0.586  10.260  18.255  0.00  0.00    +0.000 C 
BRANCH  18  19
ATOM     19  N   UNL     1      -1.479  11.412  17.997  0.00  0.00    +0.000 NA
ATOM     20  C   UNL     1      -2.420  11.206  16.898  0.00  0.00    +0.000 C 
ATOM     21  C   UNL     1      -2.254  11.699  19.217  0.00  0.00    +0.000 C 
ENDBRANCH  18  19
ENDBRANCH   1  18
TORSDOF 5
ENDMDL
MODEL 7
REMARK VINA RESULT:      -6.9      2.456      4.174
REMARK  Name = 
REMARK  9 active torsions:
REMARK  status: ('A' for Active; 'I' for Inactive)
REMARK    1  A    between atoms: C_1  and  C_2
REMARK    2  A    between atoms: C_2  and  C_3
REMARK    3  A    between atoms: C_3  and  C_4
REMARK    4  A    between atoms: C_4  and  N_5
REMARK    5  A    between atoms: N_5  and  C_6
REMARK    6  A    between atoms: N_5  and  C_7
REMARK    7  A    between atoms: C_11  and  C_12
REMARK    8  A    between atoms: C_15  and  O_16
REMARK    9  A    between atoms: O_16  and  C_17
REMARK                            x       y       z     vdW  Elec       q    Type
REMARK                         _______ _______ _______ _____ _____    ______ ____
ROOT
ATOM      1  C   UNL     1       3.659   5.573  18.756  0.00  0.00    +0.000 C 
ATOM      2  C   UNL     1       3.011   6.140  20.047  0.00  0.00    +0.000 C 
ATOM      3  C   UNL     1       1.933   7.133  19.629  0.00  0.00    +0.000 C 
ATOM      4  C   UNL     1       2.490   7.735  18.385  0.00  0.00    +0.000 C 
ATOM      5  C   UNL     1       2.097   8.832  17.726  0.00  0.00    +0.000 C 
ATOM      6  C   UNL     1       3.605   6.851  17.918  0.00  0.00    +0.000 C 
ATOM      7  O   UNL     1       4.294   7.112  16.940  0.00  0.00    +0.000 OA
ENDROOT
BRANCH   5   8
ATOM      8  C   UNL     1       0.964   9.645  18.169  0.00  0.00    +0.000 A 
ATOM      9  C   UNL     1      -0.309   9.437  17.632  0.00  0.00    +0.000 A 
ATOM     10  C   UNL     1      -1.380  10.238  18.036  0.00  0.00    +0.000 A 
ATOM     11  C   UNL     1      -1.198  11.241  18.991  0.00  0.00    +0.000 A 
ATOM     12  C   UNL     1       0.074  11.459  19.520  0.00  0.00    +0.000 A 
ATOM     13  C   UNL     1       1.150  10.664  19.109  0.00  0.00    +0.000 A 
BRANCH  11  14
ATOM     14  O   UNL     1      -2.315  11.973  19.292  0.00  0.00    +0.000 OA
ATOM     15  C   UNL     1      -3.477  11.672  18.529  0.00  0.00    +0.000 C 
ENDBRANCH  11  14
ENDBRANCH   5   8
BRANCH   1  17
ATOM     16  C   UNL     1       5.860   4.392  17.970  0.00  0.00    +0.000 C 
ATOM     17  C   UNL     1       5.096   5.103  19.080  0.00  0.00    +0.000 C 
ENDBRANCH   1  17
BRANCH   1  18
ATOM     18  C   UNL     1       2.812   4.526  17.970  0.00  0.00    +0.000 C 
BRANCH  18  19
ATOM     19  N   UNL     1       2.421   3.246  18.605  0.00  0.00    +0.000 NA
ATOM     20  C   UNL     1       0.980   3.085  18.786  0.00  0.00    +0.000 C 
ATOM     21  C   UNL     1       2.907   2.131  17.774  0.00  0.00    +0.000 C 
ENDBRANCH  18  19
ENDBRANCH   1  18
TORSDOF 5
ENDMDL
MODEL 8
REMARK VINA RESULT:      -6.8      2.802      7.717
REMARK  Name = 
REMARK  9 active torsions:
REMARK  status: ('A' for Active; 'I' for Inactive)
REMARK    1  A    between atoms: C_1  and  C_2
REMARK    2  A    between atoms: C_2  and  C_3
REMARK    3  A    between atoms: C_3  and  C_4
REMARK    4  A    between atoms: C_4  and  N_5
REMARK    5  A    between atoms: N_5  and  C_6
REMARK    6  A    between atoms: N_5  and  C_7
REMARK    7  A    between atoms: C_11  and  C_12
REMARK    8  A    between atoms: C_15  and  O_16
REMARK    9  A    between atoms: O_16  and  C_17
REMARK                            x       y       z     vdW  Elec       q    Type
REMARK                         _______ _______ _______ _____ _____    ______ ____
ROOT
ATOM      1  C   UNL     1       0.574  10.474  19.309  0.00  0.00    +0.000 C 
ATOM      2  C   UNL     1       1.629  10.449  18.170  0.00  0.00    +0.000 C 
ATOM      3  C   UNL     1       1.961   8.991  17.876  0.00  0.00    +0.000 C 
ATOM      4  C   UNL     1       1.845   8.340  19.212  0.00  0.00    +0.000 C 
ATOM      5  C   UNL     1       2.263   7.129  19.602  0.00  0.00    +0.000 C 
ATOM      6  C   UNL     1       1.103   9.283  20.108  0.00  0.00    +0.000 C 
ATOM      7  O   UNL     1       0.895   9.048  21.292  0.00  0.00    +0.000 OA
ENDROOT
BRANCH   5   8
ATOM      8  C   UNL     1       2.930   6.202  18.689  0.00  0.00    +0.000 A 
ATOM      9  C   UNL     1       4.176   6.521  18.144  0.00  0.00    +0.000 A 
ATOM     10  C   UNL     1       4.794   5.644  17.247  0.00  0.00    +0.000 A 
ATOM     11  C   UNL     1       4.187   4.436  16.900  0.00  0.00    +0.000 A 
ATOM     12  C   UNL     1       2.938   4.120  17.434  0.00  0.00    +0.000 A 
ATOM     13  C   UNL     1       2.312   5.001  18.324  0.00  0.00    +0.000 A 
BRANCH  11  14
ATOM     14  O   UNL     1       4.877   3.670  15.999  0.00  0.00    +0.000 OA
ATOM     15  C   UNL     1       6.231   4.046  15.777  0.00  0.00    +0.000 C 
ENDBRANCH  11  14
ENDBRANCH   5   8
BRANCH   1  17
ATOM     16  C   UNL     1       1.193  13.018  19.270  0.00  0.00    +0.000 C 
ATOM     17  C   UNL     1       0.678  11.822  20.060  0.00  0.00    +0.000 C 
ENDBRANCH   1  17
BRANCH   1  18
ATOM     18  C   UNL     1      -0.881  10.087  18.901  0.00  0.00    +0.000 C 
BRANCH  18  19
ATOM     19  N   UNL     1      -1.567  10.797  17.798  0.00  0.00    +0.000 NA
ATOM     20  C   UNL     1      -2.136   9.915  16.782  0.00  0.00    +0.000 C 
ATOM     21  C   UNL     1      -2.656  11.614  18.359  0.00  0.00    +0.000 C 
ENDBRANCH  18  19
ENDBRANCH   1  18
TORSDOF 5
ENDMDL
MODEL 9
REMARK VINA RESULT:      -6.8      1.926      3.183
REMARK  Name = 
REMARK  9 active torsions:
REMARK  status: ('A' for Active; 'I' for Inactive)
REMARK    1  A    between atoms: C_1  and  C_2
REMARK    2  A    between atoms: C_2  and  C_3
REMARK    3  A    between atoms: C_3  and  C_4
REMARK    4  A    between atoms: C_4  and  N_5
REMARK    5  A    between atoms: N_5  and  C_6
REMARK    6  A    between atoms: N_5  and  C_7
REMARK    7  A    between atoms: C_11  and  C_12
REMARK    8  A    between atoms: C_15  and  O_16
REMARK    9  A    between atoms: O_16  and  C_17
REMARK                            x       y       z     vdW  Elec       q    Type
REMARK                         _______ _______ _______ _____ _____    ______ ____
ROOT
ATOM      1  C   UNL     1       5.288   4.781  17.609  0.00  0.00    +0.000 C 
ATOM      2  C   UNL     1       5.193   5.228  19.092  0.00  0.00    +0.000 C 
ATOM      3  C   UNL     1       3.917   6.046  19.251  0.00  0.00    +0.000 C 
ATOM      4  C   UNL     1       3.793   6.739  17.937  0.00  0.00    +0.000 C 
ATOM      5  C   UNL     1       3.008   7.769  17.595  0.00  0.00    +0.000 C 
ATOM      6  C   UNL     1       4.704   6.044  16.974  0.00  0.00    +0.000 C 
ATOM      7  O   UNL     1       4.859   6.418  15.818  0.00  0.00    +0.000 OA
ENDROOT
BRANCH   5   8
ATOM      8  C   UNL     1       2.081   8.392  18.539  0.00  0.00    +0.000 A 
ATOM      9  C   UNL     1       1.994   7.929  19.855  0.00  0.00    +0.000 A 
ATOM     10  C   UNL     1       1.083   8.508  20.743  0.00  0.00    +0.000 A 
ATOM     11  C   UNL     1       0.264   9.564  20.336  0.00  0.00    +0.000 A 
ATOM     12  C   UNL     1       0.340  10.020  19.020  0.00  0.00    +0.000 A 
ATOM     13  C   UNL     1       1.245   9.435  18.125  0.00  0.00    +0.000 A 
BRANCH  11  14
ATOM     14  O   UNL     1      -0.601  10.035  21.286  0.00  0.00    +0.000 OA
ATOM     15  C   UNL     1      -0.274  11.302  21.846  0.00  0.00    +0.000 C 
ENDBRANCH  11  14
ENDBRANCH   5   8
BRANCH   1  17
ATOM     16  C   UNL     1       7.814   5.003  18.260  0.00  0.00    +0.000 C 
ATOM     17  C   UNL     1       6.772   4.536  17.252  0.00  0.00    +0.000 C 
ENDBRANCH   1  17
BRANCH   1  18
ATOM     18  C   UNL     1       4.334   3.623  17.182  0.00  0.00    +0.000 C 
BRANCH  18  19
ATOM     19  N   UNL     1       3.366   3.053  18.146  0.00  0.00    +0.000 NA
ATOM     20  C   UNL     1       1.966   3.300  17.805  0.00  0.00    +0.000 C 
ATOM     21  C   UNL     1       3.569   1.596  18.224  0.00  0.00    +0.000 C 
ENDBRANCH  18  19
ENDBRANCH   1  18
TORSDOF 5
ENDMDL
