MODEL 1
REMARK VINA RESULT:      -7.0      0.000      0.000
REMARK  Name = 
REMARK  2 active torsions:
REMARK  status: ('A' for Active; 'I' for Inactive)
REMARK    1  A    between atoms: C_2  and  C_3
REMARK    2  A    between atoms: C_3  and  N_4
REMARK                            x       y       z     vdW  Elec       q    Type
REMARK                         _______ _______ _______ _____ _____    ______ ____
ROOT
ATOM      1  N   UNL     1       4.950   4.525  16.061  0.00  0.00    +0.000 NA
ATOM      2  C   UNL     1       5.562   5.877  15.971  0.00  0.00    +0.000 C 
ATOM      3  C   UNL     1       4.601   6.965  16.345  0.00  0.00    +0.000 C 
ATOM      4  C   UNL     1       4.291   6.800  17.808  0.00  0.00    +0.000 C 
ATOM      5  C   UNL     1       3.547   5.501  17.965  0.00  0.00    +0.000 C 
ATOM      6  C   UNL     1       3.161   5.338  19.443  0.00  0.00    +0.000 C 
ATOM      7  C   UNL     1       2.209   4.228  19.526  0.00  0.00    +0.000 A 
ATOM      8  N   UNL     1       1.150   4.189  20.345  0.00  0.00    +0.000 NA
ATOM      9  N   UNL     1       0.403   3.166  19.988  0.00  0.00    +0.000 N 
ATOM     10  C   UNL     1       0.969   2.544  18.931  0.00  0.00    +0.000 A 
ATOM     11  C   UNL     1       2.156   3.228  18.595  0.00  0.00    +0.000 A 
ATOM     12  C   UNL     1       3.160   3.080  17.412  0.00  0.00    +0.000 C 
ATOM     13  C   UNL     1       4.300   4.220  17.418  0.00  0.00    +0.000 C 
ATOM     14  H   UNL     1      -0.500   2.929  20.462  0.00  0.00    +0.000 HD
ENDROOT
BRANCH   1  15
ATOM     15  C   UNL     1       5.919   3.604  15.368  0.00  0.00    +0.000 C 
BRANCH  15  17
ATOM     16  C   UNL     1       5.907   3.550  12.810  0.00  0.00    +0.000 C 
ATOM     17  C   UNL     1       6.398   4.060  13.973  0.00  0.00    +0.000 C 
ENDBRANCH  15  17
ENDBRANCH   1  15
TORSDOF 2
ENDMDL
MODEL 2
REMARK VINA RESULT:      -6.9      2.168      5.498
REMARK  Name = 
REMARK  2 active torsions:
REMARK  status: ('A' for Active; 'I' for Inactive)
REMARK    1  A    between atoms: C_2  and  C_3
REMARK    2  A    between atoms: C_3  and  N_4
REMARK                            x       y       z     vdW  Elec       q    Type
REMARK                         _______ _______ _______ _____ _____    ______ ____
ROOT
ATOM      1  N   UNL     1       2.880   4.662  20.200  0.00  0.00    +0.000 NA
ATOM      2  C   UNL     1       1.764   5.616  20.435  0.00  0.00    +0.000 C 
ATOM      3  C   UNL     1       2.179   7.042  20.231  0.00  0.00    +0.000 C 
ATOM      4  C   UNL     1       2.498   7.206  18.769  0.00  0.00    +0.000 C 
ATOM      5  C   UNL     1       3.711   6.362  18.478  0.00  0.00    +0.000 C 
ATOM      6  C   UNL     1       4.098   6.562  17.005  0.00  0.00    +0.000 C 
ATOM      7  C   UNL     1       5.423   5.966  16.817  0.00  0.00    +0.000 A 
ATOM      8  N   UNL     1       6.386   6.473  16.036  0.00  0.00    +0.000 NA
ATOM      9  N   UNL     1       7.496   5.815  16.288  0.00  0.00    +0.000 N 
ATOM     10  C   UNL     1       7.262   4.887  17.241  0.00  0.00    +0.000 A 
ATOM     11  C   UNL     1       5.906   4.968  17.619  0.00  0.00    +0.000 A 
ATOM     12  C   UNL     1       5.079   4.271  18.740  0.00  0.00    +0.000 C 
ATOM     13  C   UNL     1       3.569   4.827  18.838  0.00  0.00    +0.000 C 
ATOM     14  H   UNL     1       8.406   6.035  15.819  0.00  0.00    +0.000 HD
ENDROOT
BRANCH   1  15
ATOM     15  C   UNL     1       2.394   3.343  20.741  0.00  0.00    +0.000 C 
BRANCH  15  17
ATOM     16  C   UNL     1       0.857   2.408  18.922  0.00  0.00    +0.000 C 
ATOM     17  C   UNL     1       1.036   2.853  20.196  0.00  0.00    +0.000 C 
ENDBRANCH  15  17
ENDBRANCH   1  15
TORSDOF 2
ENDMDL
MODEL 3
REMARK VINA RESULT:      -6.8      2.144      3.414
REMARK  Name = 
REMARK  2 active torsions:
REMARK  status: ('A' for Active; 'I' for Inactive)
REMARK    1  A    between atoms: C_2  and  C_3
REMARK    2  A    between atoms: C_3  and  N_4
REMARK                            x       y       z     vdW  Elec       q    Type
REMARK                         _______ _______ _______ _____ _____    ______ ____
ROOT
ATOM      1  N   UNL     1       6.768   5.329  17.695  0.00  0.00    +0.000 NA
ATOM      2  C   UNL     1       7.062   5.447  16.243  0.00  0.00    +0.000 C 
ATOM      3  C   UNL     1       6.573   4.264  15.462  0.00  0.00    +0.000 C 
ATOM      4  C   UNL     1       5.070   4.276  15.534  0.00  0.00    +0.000 C 
ATOM      5  C   UNL     1       4.687   4.030  16.969  0.00  0.00    +0.000 C 
ATOM      6  C   UNL     1       3.155   3.973  17.059  0.00  0.00    +0.000 C 
ATOM      7  C   UNL     1       2.814   3.459  18.388  0.00  0.00    +0.000 A 
ATOM      8  N   UNL     1       1.800   2.623  18.648  0.00  0.00    +0.000 NA
ATOM      9  N   UNL     1       1.936   2.199  19.886  0.00  0.00    +0.000 N 
ATOM     10  C   UNL     1       3.044   2.747  20.429  0.00  0.00    +0.000 A 
ATOM     11  C   UNL     1       3.652   3.575  19.463  0.00  0.00    +0.000 A 
ATOM     12  C   UNL     1       4.999   4.358  19.441  0.00  0.00    +0.000 C 
ATOM     13  C   UNL     1       5.292   5.052  18.015  0.00  0.00    +0.000 C 
ATOM     14  H   UNL     1       1.279   1.514  20.327  0.00  0.00    +0.000 HD
ENDROOT
BRANCH   1  15
ATOM     15  C   UNL     1       7.581   6.412  18.353  0.00  0.00    +0.000 C 
BRANCH  15  17
ATOM     16  C   UNL     1       8.247   8.867  18.078  0.00  0.00    +0.000 C 
ATOM     17  C   UNL     1       7.721   7.726  17.555  0.00  0.00    +0.000 C 
ENDBRANCH  15  17
ENDBRANCH   1  15
TORSDOF 2
ENDMDL
MODEL 4
REMARK VINA RESULT:      -6.6      1.977      5.990
REMARK  Name = 
REMARK  2 active torsions:
REMARK  status: ('A' for Active; 'I' for Inactive)
REMARK    1  A    between atoms: C_2  and  C_3
REMARK    2  A    between atoms: C_3  and  N_4
REMARK                            x       y       z     vdW  Elec       q    Type
REMARK                         _______ _______ _______ _____ _____    ______ ____
ROOT
ATOM      1  N   UNL     1       2.736   4.606  19.592  0.00  0.00    +0.000 NA
ATOM      2  C   UNL     1       1.641   3.823  18.963  0.00  0.00    +0.000 C 
ATOM      3  C   UNL     1       1.478   4.136  17.505  0.00  0.00    +0.000 C 
ATOM      4  C   UNL     1       2.722   3.655  16.807  0.00  0.00    +0.000 C 
ATOM      5  C   UNL     1       3.868   4.498  17.300  0.00  0.00    +0.000 C 
ATOM      6  C   UNL     1       5.140   4.070  16.553  0.00  0.00    +0.000 C 
ATOM      7  C   UNL     1       6.170   5.074  16.835  0.00  0.00    +0.000 A 
ATOM      8  N   UNL     1       7.074   5.511  15.948  0.00  0.00    +0.000 NA
ATOM      9  N   UNL     1       7.675   6.558  16.470  0.00  0.00    +0.000 N 
ATOM     10  C   UNL     1       7.156   6.811  17.691  0.00  0.00    +0.000 A 
ATOM     11  C   UNL     1       6.153   5.856  17.957  0.00  0.00    +0.000 A 
ATOM     12  C   UNL     1       5.122   5.703  19.114  0.00  0.00    +0.000 C 
ATOM     13  C   UNL     1       4.085   4.492  18.868  0.00  0.00    +0.000 C 
ATOM     14  H   UNL     1       8.414   7.099  15.964  0.00  0.00    +0.000 HD
ENDROOT
BRANCH   1  15
ATOM     15  C   UNL     1       2.560   4.413  21.075  0.00  0.00    +0.000 C 
BRANCH  15  17
ATOM     16  C   UNL     1       1.325   2.397  22.052  0.00  0.00    +0.000 C 
ATOM     17  C   UNL     1       2.466   2.949  21.555  0.00  0.00    +0.000 C 
ENDBRANCH  15  17
ENDBRANCH   1  15
TORSDOF 2
ENDMDL
MODEL 5
REMARK VINA RESULT:      -6.6      1.861      3.179
REMARK  Name = 
REMARK  2 active torsions:
REMARK  status: ('A' for Active; 'I' for Inactive)
REMARK    1  A    between atoms: C_2  and  C_3
REMARK    2  A    between atoms: C_3  and  N_4
REMARK                            x       y       z     vdW  Elec       q    Type
REMARK                         _______ _______ _______ _____ _____    ______ ____
ROOT
ATOM      1  N   UNL     1       6.253   5.141  18.001  0.00  0.00    +0.000 NA
ATOM      2  C   UNL     1       6.535   4.925  16.558  0.00  0.00    +0.000 C 
ATOM      3  C   UNL     1       5.816   3.729  16.007  0.00  0.00    +0.000 C 
ATOM      4  C   UNL     1       4.344   4.039  16.050  0.00  0.00    +0.000 C 
ATOM      5  C   UNL     1       3.950   4.145  17.500  0.00  0.00    +0.000 C 
ATOM      6  C   UNL     1       2.437   4.397  17.574  0.00  0.00    +0.000 C 
ATOM      7  C   UNL     1       2.032   4.217  18.970  0.00  0.00    +0.000 A 
ATOM      8  N   UNL     1       0.884   3.652  19.366  0.00  0.00    +0.000 NA
ATOM      9  N   UNL     1       0.961   3.451  20.664  0.00  0.00    +0.000 N 
ATOM     10  C   UNL     1       2.164   3.873  21.113  0.00  0.00    +0.000 A 
ATOM     11  C   UNL     1       2.898   4.373  20.017  0.00  0.00    +0.000 A 
ATOM     12  C   UNL     1       4.367   4.868  19.870  0.00  0.00    +0.000 C 
ATOM     13  C   UNL     1       4.758   5.213  18.344  0.00  0.00    +0.000 C 
ATOM     14  H   UNL     1       0.195   2.999  21.216  0.00  0.00    +0.000 HD
ENDROOT
BRANCH   1  15
ATOM     15  C   UNL     1       7.269   6.155  18.457  0.00  0.00    +0.000 C 
BRANCH  15  17
ATOM     16  C   UNL     1       8.014   8.528  17.858  0.00  0.00    +0.000 C 
ATOM     17  C   UNL     1       7.557   7.306  17.470  0.00  0.00    +0.000 C 
ENDBRANCH  15  17
ENDBRANCH   1  15
TORSDOF 2
ENDMDL
MODEL 6
REMARK VINA RESULT:      -6.5      1.728      5.616
REMARK  Name = 
REMARK  2 active torsions:
REMARK  status: ('A' for Active; 'I' for Inactive)
REMARK    1  A    between atoms: C_2  and  C_3
REMARK    2  A    between atoms: C_3  and  N_4
REMARK                            x       y       z     vdW  Elec       q    Type
REMARK                         _______ _______ _______ _____ _____    ______ ____
ROOT
ATOM      1  N   UNL     1       2.496   4.412  19.061  0.00  0.00    +0.000 NA
ATOM      2  C   UNL     1       1.655   5.527  19.571  0.00  0.00    +0.000 C 
ATOM      3  C   UNL     1       2.442   6.786  19.784  0.00  0.00    +0.000 C 
ATOM      4  C   UNL     1       2.897   7.259  18.429  0.00  0.00    +0.000 C 
ATOM      5  C   UNL     1       3.864   6.235  17.898  0.00  0.00    +0.000 C 
ATOM      6  C   UNL     1       4.394   6.726  16.542  0.00  0.00    +0.000 C 
ATOM      7  C   UNL     1       5.526   5.870  16.180  0.00  0.00    +0.000 A 
ATOM      8  N   UNL     1       6.641   6.295  15.571  0.00  0.00    +0.000 NA
ATOM      9  N   UNL     1       7.520   5.317  15.613  0.00  0.00    +0.000 N 
ATOM     10  C   UNL     1       6.983   4.259  16.260  0.00  0.00    +0.000 A 
ATOM     11  C   UNL     1       5.672   4.596  16.656  0.00  0.00    +0.000 A 
ATOM     12  C   UNL     1       4.614   3.864  17.534  0.00  0.00    +0.000 C 
ATOM     13  C   UNL     1       3.299   4.759  17.800  0.00  0.00    +0.000 C 
ATOM     14  H   UNL     1       8.486   5.404  15.221  0.00  0.00    +0.000 HD
ENDROOT
BRANCH   1  15
ATOM     15  C   UNL     1       1.645   3.178  19.202  0.00  0.00    +0.000 C 
BRANCH  15  17
ATOM     16  C   UNL     1       1.715   2.603  21.694  0.00  0.00    +0.000 C 
ATOM     17  C   UNL     1       1.004   2.959  20.589  0.00  0.00    +0.000 C 
ENDBRANCH  15  17
ENDBRANCH   1  15
TORSDOF 2
ENDMDL
MODEL 7
REMARK VINA RESULT:      -6.4      1.651      6.014
REMARK  Name = 
REMARK  2 active torsions:
REMARK  status: ('A' for Active; 'I' for Inactive)
REMARK    1  A    between atoms: C_2  and  C_3
REMARK    2  A    between atoms: C_3  and  N_4
REMARK                            x       y       z     vdW  Elec       q    Type
REMARK                         _______ _______ _______ _____ _____    ______ ____
ROOT
ATOM      1  N   UNL     1       1.842   5.038  19.545  0.00  0.00    +0.000 NA
ATOM      2  C   UNL     1       1.134   3.765  19.843  0.00  0.00    +0.000 C 
ATOM      3  C   UNL     1       0.931   2.923  18.619  0.00  0.00    +0.000 C 
ATOM      4  C   UNL     1       2.294   2.484  18.152  0.00  0.00    +0.000 C 
ATOM      5  C   UNL     1       3.034   3.717  17.706  0.00  0.00    +0.000 C 
ATOM      6  C   UNL     1       4.406   3.289  17.164  0.00  0.00    +0.000 C 
ATOM      7  C   UNL     1       4.988   4.450  16.484  0.00  0.00    +0.000 A 
ATOM      8  N   UNL     1       5.709   4.393  15.357  0.00  0.00    +0.000 NA
ATOM      9  N   UNL     1       5.867   5.623  14.919  0.00  0.00    +0.000 N 
ATOM     10  C   UNL     1       5.239   6.481  15.752  0.00  0.00    +0.000 A 
ATOM     11  C   UNL     1       4.640   5.737  16.790  0.00  0.00    +0.000 A 
ATOM     12  C   UNL     1       3.686   6.131  17.956  0.00  0.00    +0.000 C 
ATOM     13  C   UNL     1       3.170   4.856  18.797  0.00  0.00    +0.000 C 
ATOM     14  H   UNL     1       6.380   5.850  14.035  0.00  0.00    +0.000 HD
ENDROOT
BRANCH   1  15
ATOM     15  C   UNL     1       1.684   5.879  20.784  0.00  0.00    +0.000 C 
BRANCH  15  17
ATOM     16  C   UNL     1       0.944   8.275  21.293  0.00  0.00    +0.000 C 
ATOM     17  C   UNL     1       1.700   7.407  20.565  0.00  0.00    +0.000 C 
ENDBRANCH  15  17
ENDBRANCH   1  15
TORSDOF 2
ENDMDL
MODEL 8
REMARK VINA RESULT:      -6.4      1.486      1.652
REMARK  Name = 
REMARK  2 active torsions:
REMARK  status: ('A' for Active; 'I' for Inactive)
REMARK    1  A    between atoms: C_2  and  C_3
REMARK    2  A    between atoms: C_3  and  N_4
REMARK                            x       y       z     vdW  Elec       q    Type
REMARK                         _______ _______ _______ _____ _____    ______ ____
ROOT
ATOM      1  N   UNL     1       5.428   5.321  16.264  0.00  0.00    +0.000 NA
ATOM      2  C   UNL     1       6.730   5.817  16.783  0.00  0.00    +0.000 C 
ATOM      3  C   UNL     1       6.649   6.242  18.218  0.00  0.00    +0.000 C 
ATOM      4  C   UNL     1       6.377   5.006  19.032  0.00  0.00    +0.000 C 
ATOM      5  C   UNL     1       5.005   4.513  18.654  0.00  0.00    +0.000 C 
ATOM      6  C   UNL     1       4.675   3.287  19.519  0.00  0.00    +0.000 C 
ATOM      7  C   UNL     1       3.250   2.998  19.342  0.00  0.00    +0.000 A 
ATOM      8  N   UNL     1       2.428   2.579  20.312  0.00  0.00    +0.000 NA
ATOM      9  N   UNL     1       1.197   2.646  19.854  0.00  0.00    +0.000 N 
ATOM     10  C   UNL     1       1.214   3.120  18.589  0.00  0.00    +0.000 A 
ATOM     11  C   UNL     1       2.553   3.372  18.225  0.00  0.00    +0.000 A 
ATOM     12  C   UNL     1       3.199   4.037  16.974  0.00  0.00    +0.000 C 
ATOM     13  C   UNL     1       4.796   4.211  17.115  0.00  0.00    +0.000 C 
ATOM     14  H   UNL     1       0.361   2.391  20.430  0.00  0.00    +0.000 HD
ENDROOT
BRANCH   1  15
ATOM     15  C   UNL     1       5.601   5.239  14.770  0.00  0.00    +0.000 C 
BRANCH  15  17
ATOM     16  C   UNL     1       6.144   3.558  12.919  0.00  0.00    +0.000 C 
ATOM     17  C   UNL     1       6.178   3.912  14.234  0.00  0.00    +0.000 C 
ENDBRANCH  15  17
ENDBRANCH   1  15
TORSDOF 2
ENDMDL
MODEL 9
REMARK VINA RESULT:      -6.4      1.038      1.544
REMARK  Name = 
REMARK  2 active torsions:
REMARK  status: ('A' for Active; 'I' for Inactive)
REMARK    1  A    between atoms: C_2  and  C_3
REMARK    2  A    between atoms: C_3  and  N_4
REMARK                            x       y       z     vdW  Elec       q    Type
REMARK                         _______ _______ _______ _____ _____    ______ ____
ROOT
ATOM      1  N   UNL     1       4.787   5.016  16.358  0.00  0.00    +0.000 NA
ATOM      2  C   UNL     1       5.164   6.453  16.311  0.00  0.00    +0.000 C 
ATOM      3  C   UNL     1       4.003   7.358  16.596  0.00  0.00    +0.000 C 
ATOM      4  C   UNL     1       3.605   7.131  18.030  0.00  0.00    +0.000 C 
ATOM      5  C   UNL     1       3.084   5.722  18.132  0.00  0.00    +0.000 C 
ATOM      6  C   UNL     1       2.610   5.484  19.574  0.00  0.00    +0.000 C 
ATOM      7  C   UNL     1       1.858   4.226  19.585  0.00  0.00    +0.000 A 
ATOM      8  N   UNL     1       0.757   4.000  20.312  0.00  0.00    +0.000 NA
ATOM      9  N   UNL     1       0.229   2.867  19.901  0.00  0.00    +0.000 N 
ATOM     10  C   UNL     1       0.979   2.360  18.899  0.00  0.00    +0.000 A 
ATOM     11  C   UNL     1       2.056   3.239  18.659  0.00  0.00    +0.000 A 
ATOM     12  C   UNL     1       3.165   3.275  17.565  0.00  0.00    +0.000 C 
ATOM     13  C   UNL     1       4.088   4.593  17.658  0.00  0.00    +0.000 C 
ATOM     14  H   UNL     1      -0.656   2.475  20.299  0.00  0.00    +0.000 HD
ENDROOT
BRANCH   1  15
ATOM     15  C   UNL     1       5.955   4.280  15.755  0.00  0.00    +0.000 C 
BRANCH  15  17
ATOM     16  C   UNL     1       7.691   4.518  17.619  0.00  0.00    +0.000 C 
ATOM     17  C   UNL     1       7.345   4.658  16.309  0.00  0.00    +0.000 C 
ENDBRANCH  15  17
ENDBRANCH   1  15
TORSDOF 2
ENDMDL
