MODEL 1
REMARK VINA RESULT:      -7.4      0.000      0.000
REMARK  Name = 
REMARK  11 active torsions:
REMARK  status: ('A' for Active; 'I' for Inactive)
REMARK    1  A    between atoms: C_1  and  C_2
REMARK    2  A    between atoms: C_2  and  C_3
REMARK    3  A    between atoms: C_3  and  C_4
REMARK    4  A    between atoms: C_4  and  O_6
REMARK    5  A    between atoms: O_6  and  C_7
REMARK    6  A    between atoms: C_9  and  C_10
REMARK    7  A    between atoms: C_10  and  N_11
REMARK    8  A    between atoms: N_11  and  C_12
REMARK    9  A    between atoms: C_13  and  C_15
REMARK   10  A    between atoms: N_25  and  C_26
REMARK   11  A    between atoms: C_26  and  C_27
REMARK                            x       y       z     vdW  Elec       q    Type
REMARK                         _______ _______ _______ _____ _____    ______ ____
ROOT
ATOM      1  C   UNL     1      -1.795  11.558  18.506  0.00  0.00    +0.000 C 
ATOM      2  N   UNL     1      -1.210  10.433  19.302  0.00  0.00    +0.000 NA
ATOM      3  C   UNL     1       0.238  10.457  19.033  0.00  0.00    +0.000 C 
ATOM      4  C   UNL     1       0.562  11.943  19.130  0.00  0.00    +0.000 C 
ATOM      5  C   UNL     1       0.819  12.457  20.524  0.00  0.00    +0.000 C 
ATOM      6  O   UNL     1       1.876  12.329  21.126  0.00  0.00    +0.000 OA
ATOM      7  N   UNL     1      -0.238  13.197  20.949  0.00  0.00    +0.000 N 
ATOM      8  C   UNL     1      -1.017  13.567  19.899  0.00  0.00    +0.000 C 
ATOM      9  O   UNL     1      -1.791  14.514  19.860  0.00  0.00    +0.000 OA
ATOM     10  C   UNL     1      -0.737  12.662  18.717  0.00  0.00    +0.000 C 
ATOM     11  H   UNL     1      -1.630   9.537  19.062  0.00  0.00    +0.000 HD
ENDROOT
BRANCH   1  13
ATOM     12  C   UNL     1      -2.413   9.731  16.761  0.00  0.00    +0.000 C 
ATOM     13  C   UNL     1      -1.940  11.165  17.004  0.00  0.00    +0.000 C 
ENDBRANCH   1  13
BRANCH   1  14
ATOM     14  C   UNL     1      -3.188  11.963  19.054  0.00  0.00    +0.000 C 
ATOM     15  O   UNL     1      -3.505  11.997  20.236  0.00  0.00    +0.000 OA
BRANCH  14  16
ATOM     16  O   UNL     1      -4.032  12.242  18.015  0.00  0.00    +0.000 OA
ATOM     17  C   UNL     1      -5.374  11.782  18.191  0.00  0.00    +0.000 C 
ENDBRANCH  14  16
ENDBRANCH   1  14
BRANCH   3  18
ATOM     18  C   UNL     1       1.076   9.480  19.891  0.00  0.00    +0.000 C 
BRANCH  18  19
ATOM     19  N   UNL     1       1.749   8.422  19.115  0.00  0.00    +0.000 N 
ATOM     20  C   UNL     1       2.245   8.802  17.799  0.00  0.00    +0.000 C 
ATOM     21  C   UNL     1       1.983   7.189  19.737  0.00  0.00    +0.000 C 
ATOM     22  O   UNL     1       1.630   6.959  20.895  0.00  0.00    +0.000 OA
BRANCH  21  23
ATOM     23  C   UNL     1       2.604   6.043  18.992  0.00  0.00    +0.000 A 
ATOM     24  C   UNL     1       1.905   5.227  18.094  0.00  0.00    +0.000 A 
ATOM     25  C   UNL     1       2.527   4.125  17.503  0.00  0.00    +0.000 A 
ATOM     26  C   UNL     1       3.871   3.881  17.747  0.00  0.00    +0.000 A 
ATOM     27  F   UNL     1       4.463   2.824  17.177  0.00  0.00    +0.000 F 
ATOM     28  C   UNL     1       4.611   4.728  18.562  0.00  0.00    +0.000 A 
ATOM     29  C   UNL     1       3.977   5.806  19.188  0.00  0.00    +0.000 A 
ENDBRANCH  21  23
ENDBRANCH  18  19
ENDBRANCH   3  18
BRANCH   7  30
ATOM     30  C   UNL     1      -0.225  13.890  22.223  0.00  0.00    +0.000 C 
BRANCH  30  31
ATOM     31  C   UNL     1      -1.447  13.613  23.076  0.00  0.00    +0.000 A 
ATOM     32  C   UNL     1      -2.076  14.649  23.787  0.00  0.00    +0.000 A 
ATOM     33  C   UNL     1      -3.274  14.420  24.469  0.00  0.00    +0.000 A 
ATOM     34  C   UNL     1      -3.850  13.152  24.459  0.00  0.00    +0.000 A 
ATOM     35  C   UNL     1      -3.215  12.107  23.789  0.00  0.00    +0.000 A 
ATOM     36  C   UNL     1      -2.019  12.334  23.104  0.00  0.00    +0.000 A 
ENDBRANCH  30  31
ENDBRANCH   7  30
TORSDOF 8
ENDMDL
MODEL 2
REMARK VINA RESULT:      -7.3      0.185      1.166
REMARK  Name = 
REMARK  11 active torsions:
REMARK  status: ('A' for Active; 'I' for Inactive)
REMARK    1  A    between atoms: C_1  and  C_2
REMARK    2  A    between atoms: C_2  and  C_3
REMARK    3  A    between atoms: C_3  and  C_4
REMARK    4  A    between atoms: C_4  and  O_6
REMARK    5  A    between atoms: O_6  and  C_7
REMARK    6  A    between atoms: C_9  and  C_10
REMARK    7  A    between atoms: C_10  and  N_11
REMARK    8  A    between atoms: N_11  and  C_12
REMARK    9  A    between atoms: C_13  and  C_15
REMARK   10  A    between atoms: N_25  and  C_26
REMARK   11  A    between atoms: C_26  and  C_27
REMARK                            x       y       z     vdW  Elec       q    Type
REMARK                         _______ _______ _______ _____ _____    ______ ____
ROOT
ATOM      1  C   UNL     1      -1.823  11.486  18.462  0.00  0.00    +0.000 C 
ATOM      2  N   UNL     1      -1.270  10.355  19.271  0.00  0.00    +0.000 NA
ATOM      3  C   UNL     1       0.185  10.369  19.045  0.00  0.00    +0.000 C 
ATOM      4  C   UNL     1       0.516  11.852  19.157  0.00  0.00    +0.000 C 
ATOM      5  C   UNL     1       0.736  12.360  20.559  0.00  0.00    +0.000 C 
ATOM      6  O   UNL     1       1.773  12.224  21.192  0.00  0.00    +0.000 OA
ATOM      7  N   UNL     1      -0.329  13.107  20.955  0.00  0.00    +0.000 N 
ATOM      8  C   UNL     1      -1.074  13.485  19.884  0.00  0.00    +0.000 C 
ATOM      9  O   UNL     1      -1.840  14.438  19.825  0.00  0.00    +0.000 OA
ATOM     10  C   UNL     1      -0.765  12.582  18.708  0.00  0.00    +0.000 C 
ATOM     11  H   UNL     1      -1.690   9.462  19.015  0.00  0.00    +0.000 HD
ENDROOT
BRANCH   1  13
ATOM     12  C   UNL     1      -2.464   9.691  16.691  0.00  0.00    +0.000 C 
ATOM     13  C   UNL     1      -1.927  11.099  16.954  0.00  0.00    +0.000 C 
ENDBRANCH   1  13
BRANCH   1  14
ATOM     14  C   UNL     1      -3.230  11.898  18.969  0.00  0.00    +0.000 C 
ATOM     15  O   UNL     1      -3.593  11.898  20.139  0.00  0.00    +0.000 OA
BRANCH  14  16
ATOM     16  O   UNL     1      -4.027  12.230  17.909  0.00  0.00    +0.000 OA
ATOM     17  C   UNL     1      -5.428  12.059  18.135  0.00  0.00    +0.000 C 
ENDBRANCH  14  16
ENDBRANCH   1  14
BRANCH   3  18
ATOM     18  C   UNL     1       0.991   9.384  19.925  0.00  0.00    +0.000 C 
BRANCH  18  19
ATOM     19  N   UNL     1       1.767   8.390  19.160  0.00  0.00    +0.000 N 
ATOM     20  C   UNL     1       2.298   8.833  17.877  0.00  0.00    +0.000 C 
ATOM     21  C   UNL     1       2.052   7.160  19.766  0.00  0.00    +0.000 C 
ATOM     22  O   UNL     1       1.661   6.880  20.901  0.00  0.00    +0.000 OA
BRANCH  21  23
ATOM     23  C   UNL     1       2.781   6.075  19.028  0.00  0.00    +0.000 A 
ATOM     24  C   UNL     1       4.168   5.891  19.083  0.00  0.00    +0.000 A 
ATOM     25  C   UNL     1       4.786   4.914  18.300  0.00  0.00    +0.000 A 
ATOM     26  C   UNL     1       4.013   4.066  17.521  0.00  0.00    +0.000 A 
ATOM     27  F   UNL     1       4.611   3.129  16.773  0.00  0.00    +0.000 F 
ATOM     28  C   UNL     1       2.628   4.167  17.520  0.00  0.00    +0.000 A 
ATOM     29  C   UNL     1       2.012   5.174  18.269  0.00  0.00    +0.000 A 
ENDBRANCH  21  23
ENDBRANCH  18  19
ENDBRANCH   3  18
BRANCH   7  30
ATOM     30  C   UNL     1      -0.349  13.795  22.231  0.00  0.00    +0.000 C 
BRANCH  30  31
ATOM     31  C   UNL     1      -1.637  13.600  23.005  0.00  0.00    +0.000 A 
ATOM     32  C   UNL     1      -2.248  12.337  23.076  0.00  0.00    +0.000 A 
ATOM     33  C   UNL     1      -3.364  12.129  23.892  0.00  0.00    +0.000 A 
ATOM     34  C   UNL     1      -3.888  13.183  24.637  0.00  0.00    +0.000 A 
ATOM     35  C   UNL     1      -3.314  14.450  24.545  0.00  0.00    +0.000 A 
ATOM     36  C   UNL     1      -2.198  14.659  23.732  0.00  0.00    +0.000 A 
ENDBRANCH  30  31
ENDBRANCH   7  30
TORSDOF 8
ENDMDL
MODEL 3
REMARK VINA RESULT:      -7.0      2.296      4.438
REMARK  Name = 
REMARK  11 active torsions:
REMARK  status: ('A' for Active; 'I' for Inactive)
REMARK    1  A    between atoms: C_1  and  C_2
REMARK    2  A    between atoms: C_2  and  C_3
REMARK    3  A    between atoms: C_3  and  C_4
REMARK    4  A    between atoms: C_4  and  O_6
REMARK    5  A    between atoms: O_6  and  C_7
REMARK    6  A    between atoms: C_9  and  C_10
REMARK    7  A    between atoms: C_10  and  N_11
REMARK    8  A    between atoms: N_11  and  C_12
REMARK    9  A    between atoms: C_13  and  C_15
REMARK   10  A    between atoms: N_25  and  C_26
REMARK   11  A    between atoms: C_26  and  C_27
REMARK                            x       y       z     vdW  Elec       q    Type
REMARK                         _______ _______ _______ _____ _____    ______ ____
ROOT
ATOM      1  C   UNL     1      -0.486  11.154  22.071  0.00  0.00    +0.000 C 
ATOM      2  N   UNL     1       0.846  10.755  21.516  0.00  0.00    +0.000 NA
ATOM      3  C   UNL     1       0.582   9.637  20.595  0.00  0.00    +0.000 C 
ATOM      4  C   UNL     1      -0.644  10.127  19.833  0.00  0.00    +0.000 C 
ATOM      5  C   UNL     1      -0.356  11.021  18.654  0.00  0.00    +0.000 C 
ATOM      6  O   UNL     1      -0.003  10.625  17.553  0.00  0.00    +0.000 OA
ATOM      7  N   UNL     1      -0.682  12.306  18.955  0.00  0.00    +0.000 N 
ATOM      8  C   UNL     1      -1.498  12.351  20.041  0.00  0.00    +0.000 C 
ATOM      9  O   UNL     1      -2.264  13.256  20.343  0.00  0.00    +0.000 OA
ATOM     10  C   UNL     1      -1.380  11.056  20.818  0.00  0.00    +0.000 C 
ATOM     11  H   UNL     1       1.505  10.500  22.250  0.00  0.00    +0.000 HD
ENDROOT
BRANCH   1  13
ATOM     12  C   UNL     1       0.185   9.345  23.817  0.00  0.00    +0.000 C 
ATOM     13  C   UNL     1      -0.942  10.172  23.194  0.00  0.00    +0.000 C 
ENDBRANCH   1  13
BRANCH   1  14
ATOM     14  C   UNL     1      -0.440  12.590  22.654  0.00  0.00    +0.000 C 
ATOM     15  O   UNL     1      -1.213  13.045  23.487  0.00  0.00    +0.000 OA
BRANCH  14  16
ATOM     16  O   UNL     1       0.576  13.296  22.071  0.00  0.00    +0.000 OA
ATOM     17  C   UNL     1       0.439  14.717  22.142  0.00  0.00    +0.000 C 
ENDBRANCH  14  16
ENDBRANCH   1  14
BRANCH   3  18
ATOM     18  C   UNL     1       1.804   9.172  19.768  0.00  0.00    +0.000 C 
BRANCH  18  19
ATOM     19  N   UNL     1       1.998   7.710  19.751  0.00  0.00    +0.000 N 
ATOM     20  C   UNL     1       1.419   6.968  20.863  0.00  0.00    +0.000 C 
ATOM     21  C   UNL     1       2.592   7.132  18.621  0.00  0.00    +0.000 C 
ATOM     22  O   UNL     1       2.970   7.805  17.661  0.00  0.00    +0.000 OA
BRANCH  21  23
ATOM     23  C   UNL     1       2.881   5.661  18.557  0.00  0.00    +0.000 A 
ATOM     24  C   UNL     1       3.986   5.056  19.169  0.00  0.00    +0.000 A 
ATOM     25  C   UNL     1       4.238   3.693  18.993  0.00  0.00    +0.000 A 
ATOM     26  C   UNL     1       3.345   2.916  18.270  0.00  0.00    +0.000 A 
ATOM     27  F   UNL     1       3.591   1.610  18.105  0.00  0.00    +0.000 F 
ATOM     28  C   UNL     1       2.193   3.474  17.729  0.00  0.00    +0.000 A 
ATOM     29  C   UNL     1       1.964   4.846  17.868  0.00  0.00    +0.000 A 
ENDBRANCH  21  23
ENDBRANCH  18  19
ENDBRANCH   3  18
BRANCH   7  30
ATOM     30  C   UNL     1      -0.592  13.369  17.973  0.00  0.00    +0.000 C 
BRANCH  30  31
ATOM     31  C   UNL     1       0.270  14.534  18.418  0.00  0.00    +0.000 A 
ATOM     32  C   UNL     1       1.653  14.374  18.603  0.00  0.00    +0.000 A 
ATOM     33  C   UNL     1       2.466  15.475  18.889  0.00  0.00    +0.000 A 
ATOM     34  C   UNL     1       1.903  16.745  19.005  0.00  0.00    +0.000 A 
ATOM     35  C   UNL     1       0.527  16.909  18.862  0.00  0.00    +0.000 A 
ATOM     36  C   UNL     1      -0.287  15.810  18.574  0.00  0.00    +0.000 A 
ENDBRANCH  30  31
ENDBRANCH   7  30
TORSDOF 8
ENDMDL
MODEL 4
REMARK VINA RESULT:      -6.9      3.987      9.985
REMARK  Name = 
REMARK  11 active torsions:
REMARK  status: ('A' for Active; 'I' for Inactive)
REMARK    1  A    between atoms: C_1  and  C_2
REMARK    2  A    between atoms: C_2  and  C_3
REMARK    3  A    between atoms: C_3  and  C_4
REMARK    4  A    between atoms: C_4  and  O_6
REMARK    5  A    between atoms: O_6  and  C_7
REMARK    6  A    between atoms: C_9  and  C_10
REMARK    7  A    between atoms: C_10  and  N_11
REMARK    8  A    between atoms: N_11  and  C_12
REMARK    9  A    between atoms: C_13  and  C_15
REMARK   10  A    between atoms: N_25  and  C_26
REMARK   11  A    between atoms: C_26  and  C_27
REMARK                            x       y       z     vdW  Elec       q    Type
REMARK                         _______ _______ _______ _____ _____    ______ ____
ROOT
ATOM      1  C   UNL     1       5.969   6.249  17.501  0.00  0.00    +0.000 C 
ATOM      2  N   UNL     1       5.102   6.639  18.657  0.00  0.00    +0.000 NA
ATOM      3  C   UNL     1       3.851   7.148  18.070  0.00  0.00    +0.000 C 
ATOM      4  C   UNL     1       3.560   6.120  16.984  0.00  0.00    +0.000 C 
ATOM      5  C   UNL     1       2.832   4.882  17.446  0.00  0.00    +0.000 C 
ATOM      6  O   UNL     1       1.626   4.818  17.636  0.00  0.00    +0.000 OA
ATOM      7  N   UNL     1       3.687   3.826  17.481  0.00  0.00    +0.000 N 
ATOM      8  C   UNL     1       4.804   4.090  16.753  0.00  0.00    +0.000 C 
ATOM      9  O   UNL     1       5.568   3.269  16.264  0.00  0.00    +0.000 OA
ATOM     10  C   UNL     1       4.942   5.586  16.560  0.00  0.00    +0.000 C 
ATOM     11  H   UNL     1       5.553   7.329  19.256  0.00  0.00    +0.000 HD
ENDROOT
BRANCH   1  13
ATOM     12  C   UNL     1       7.768   8.121  17.672  0.00  0.00    +0.000 C 
ATOM     13  C   UNL     1       6.635   7.501  16.852  0.00  0.00    +0.000 C 
ENDBRANCH   1  13
BRANCH   1  14
ATOM     14  C   UNL     1       7.082   5.266  17.947  0.00  0.00    +0.000 C 
ATOM     15  O   UNL     1       7.909   4.745  17.208  0.00  0.00    +0.000 OA
BRANCH  14  16
ATOM     16  O   UNL     1       6.986   5.032  19.290  0.00  0.00    +0.000 OA
ATOM     17  C   UNL     1       8.145   5.390  20.047  0.00  0.00    +0.000 C 
ENDBRANCH  14  16
ENDBRANCH   1  14
BRANCH   3  18
ATOM     18  C   UNL     1       2.729   7.453  19.092  0.00  0.00    +0.000 C 
BRANCH  18  19
ATOM     19  N   UNL     1       2.043   8.739  18.866  0.00  0.00    +0.000 N 
ATOM     20  C   UNL     1       2.247   9.362  17.564  0.00  0.00    +0.000 C 
ATOM     21  C   UNL     1       1.150   9.196  19.844  0.00  0.00    +0.000 C 
ATOM     22  O   UNL     1       0.938   8.570  20.884  0.00  0.00    +0.000 OA
BRANCH  21  23
ATOM     23  C   UNL     1       0.463  10.524  19.716  0.00  0.00    +0.000 A 
ATOM     24  C   UNL     1      -0.768  10.706  19.074  0.00  0.00    +0.000 A 
ATOM     25  C   UNL     1      -1.305  11.986  18.917  0.00  0.00    +0.000 A 
ATOM     26  C   UNL     1      -0.652  13.078  19.470  0.00  0.00    +0.000 A 
ATOM     27  F   UNL     1      -1.172  14.303  19.318  0.00  0.00    +0.000 F 
ATOM     28  C   UNL     1       0.523  12.914  20.192  0.00  0.00    +0.000 A 
ATOM     29  C   UNL     1       1.083  11.638  20.310  0.00  0.00    +0.000 A 
ENDBRANCH  21  23
ENDBRANCH  18  19
ENDBRANCH   3  18
BRANCH   7  30
ATOM     30  C   UNL     1       3.236   2.487  17.805  0.00  0.00    +0.000 C 
BRANCH  30  31
ATOM     31  C   UNL     1       2.640   2.367  19.193  0.00  0.00    +0.000 A 
ATOM     32  C   UNL     1       3.455   2.454  20.334  0.00  0.00    +0.000 A 
ATOM     33  C   UNL     1       2.892   2.471  21.614  0.00  0.00    +0.000 A 
ATOM     34  C   UNL     1       1.509   2.390  21.766  0.00  0.00    +0.000 A 
ATOM     35  C   UNL     1       0.693   2.265  20.644  0.00  0.00    +0.000 A 
ATOM     36  C   UNL     1       1.254   2.250  19.364  0.00  0.00    +0.000 A 
ENDBRANCH  30  31
ENDBRANCH   7  30
TORSDOF 8
ENDMDL
MODEL 5
REMARK VINA RESULT:      -6.8      2.255      3.834
REMARK  Name = 
REMARK  11 active torsions:
REMARK  status: ('A' for Active; 'I' for Inactive)
REMARK    1  A    between atoms: C_1  and  C_2
REMARK    2  A    between atoms: C_2  and  C_3
REMARK    3  A    between atoms: C_3  and  C_4
REMARK    4  A    between atoms: C_4  and  O_6
REMARK    5  A    between atoms: O_6  and  C_7
REMARK    6  A    between atoms: C_9  and  C_10
REMARK    7  A    between atoms: C_10  and  N_11
REMARK    8  A    between atoms: N_11  and  C_12
REMARK    9  A    between atoms: C_13  and  C_15
REMARK   10  A    between atoms: N_25  and  C_26
REMARK   11  A    between atoms: C_26  and  C_27
REMARK                            x       y       z     vdW  Elec       q    Type
REMARK                         _______ _______ _______ _____ _____    ______ ____
ROOT
ATOM      1  C   UNL     1      -1.701  11.004  19.068  0.00  0.00    +0.000 C 
ATOM      2  N   UNL     1      -0.744  10.251  19.938  0.00  0.00    +0.000 NA
ATOM      3  C   UNL     1       0.337   9.794  19.049  0.00  0.00    +0.000 C 
ATOM      4  C   UNL     1       0.611  11.035  18.208  0.00  0.00    +0.000 C 
ATOM      5  C   UNL     1       1.552  12.038  18.825  0.00  0.00    +0.000 C 
ATOM      6  O   UNL     1       2.770  11.939  18.824  0.00  0.00    +0.000 OA
ATOM      7  N   UNL     1       0.856  13.126  19.252  0.00  0.00    +0.000 N 
ATOM      8  C   UNL     1      -0.374  13.164  18.676  0.00  0.00    +0.000 C 
ATOM      9  O   UNL     1      -1.083  14.151  18.529  0.00  0.00    +0.000 OA
ATOM     10  C   UNL     1      -0.733  11.787  18.156  0.00  0.00    +0.000 C 
ATOM     11  H   UNL     1      -1.197   9.476  20.421  0.00  0.00    +0.000 HD
ENDROOT
BRANCH   1  13
ATOM     12  C   UNL     1      -2.676  10.316  16.756  0.00  0.00    +0.000 C 
ATOM     13  C   UNL     1      -2.609  10.029  18.257  0.00  0.00    +0.000 C 
ENDBRANCH   1  13
BRANCH   1  14
ATOM     14  C   UNL     1      -2.604  11.940  19.912  0.00  0.00    +0.000 C 
ATOM     15  O   UNL     1      -3.653  12.448  19.535  0.00  0.00    +0.000 OA
BRANCH  14  16
ATOM     16  O   UNL     1      -2.038  12.150  21.139  0.00  0.00    +0.000 OA
ATOM     17  C   UNL     1      -2.472  13.338  21.806  0.00  0.00    +0.000 C 
ENDBRANCH  14  16
ENDBRANCH   1  14
BRANCH   3  18
ATOM     18  C   UNL     1       1.537   9.134  19.769  0.00  0.00    +0.000 C 
BRANCH  18  19
ATOM     19  N   UNL     1       2.094   7.965  19.063  0.00  0.00    +0.000 N 
ATOM     20  C   UNL     1       2.748   8.231  17.788  0.00  0.00    +0.000 C 
ATOM     21  C   UNL     1       2.079   6.725  19.715  0.00  0.00    +0.000 C 
ATOM     22  O   UNL     1       1.602   6.582  20.842  0.00  0.00    +0.000 OA
BRANCH  21  23
ATOM     23  C   UNL     1       2.568   5.479  19.036  0.00  0.00    +0.000 A 
ATOM     24  C   UNL     1       1.845   4.792  18.053  0.00  0.00    +0.000 A 
ATOM     25  C   UNL     1       2.325   3.590  17.529  0.00  0.00    +0.000 A 
ATOM     26  C   UNL     1       3.565   3.112  17.927  0.00  0.00    +0.000 A 
ATOM     27  F   UNL     1       4.022   1.960  17.420  0.00  0.00    +0.000 F 
ATOM     28  C   UNL     1       4.344   3.822  18.832  0.00  0.00    +0.000 A 
ATOM     29  C   UNL     1       3.843   5.002  19.391  0.00  0.00    +0.000 A 
ENDBRANCH  21  23
ENDBRANCH  18  19
ENDBRANCH   3  18
BRANCH   7  30
ATOM     30  C   UNL     1       1.520  14.289  19.808  0.00  0.00    +0.000 C 
BRANCH  30  31
ATOM     31  C   UNL     1       1.900  15.324  18.768  0.00  0.00    +0.000 A 
ATOM     32  C   UNL     1       1.179  16.524  18.653  0.00  0.00    +0.000 A 
ATOM     33  C   UNL     1       1.605  17.532  17.783  0.00  0.00    +0.000 A 
ATOM     34  C   UNL     1       2.750  17.347  17.011  0.00  0.00    +0.000 A 
ATOM     35  C   UNL     1       3.452  16.146  17.088  0.00  0.00    +0.000 A 
ATOM     36  C   UNL     1       3.029  15.138  17.959  0.00  0.00    +0.000 A 
ENDBRANCH  30  31
ENDBRANCH   7  30
TORSDOF 8
ENDMDL
MODEL 6
REMARK VINA RESULT:      -6.7      1.293      1.809
REMARK  Name = 
REMARK  11 active torsions:
REMARK  status: ('A' for Active; 'I' for Inactive)
REMARK    1  A    between atoms: C_1  and  C_2
REMARK    2  A    between atoms: C_2  and  C_3
REMARK    3  A    between atoms: C_3  and  C_4
REMARK    4  A    between atoms: C_4  and  O_6
REMARK    5  A    between atoms: O_6  and  C_7
REMARK    6  A    between atoms: C_9  and  C_10
REMARK    7  A    between atoms: C_10  and  N_11
REMARK    8  A    between atoms: N_11  and  C_12
REMARK    9  A    between atoms: C_13  and  C_15
REMARK   10  A    between atoms: N_25  and  C_26
REMARK   11  A    between atoms: C_26  and  C_27
REMARK                            x       y       z     vdW  Elec       q    Type
REMARK                         _______ _______ _______ _____ _____    ______ ____
ROOT
ATOM      1  C   UNL     1      -2.388  11.364  18.263  0.00  0.00    +0.000 C 
ATOM      2  N   UNL     1      -1.651  10.178  18.801  0.00  0.00    +0.000 NA
ATOM      3  C   UNL     1      -0.290  10.651  19.107  0.00  0.00    +0.000 C 
ATOM      4  C   UNL     1      -0.558  11.981  19.800  0.00  0.00    +0.000 C 
ATOM      5  C   UNL     1      -0.852  11.893  21.276  0.00  0.00    +0.000 C 
ATOM      6  O   UNL     1      -0.003  11.770  22.146  0.00  0.00    +0.000 OA
ATOM      7  N   UNL     1      -2.175  12.111  21.500  0.00  0.00    +0.000 N 
ATOM      8  C   UNL     1      -2.753  12.702  20.421  0.00  0.00    +0.000 C 
ATOM      9  O   UNL     1      -3.781  13.366  20.414  0.00  0.00    +0.000 OA
ATOM     10  C   UNL     1      -1.885  12.484  19.199  0.00  0.00    +0.000 C 
ATOM     11  H   UNL     1      -1.647   9.400  18.142  0.00  0.00    +0.000 HD
ENDROOT
BRANCH   1  13
ATOM     12  C   UNL     1      -2.536  10.591  15.784  0.00  0.00    +0.000 C 
ATOM     13  C   UNL     1      -2.010  11.632  16.774  0.00  0.00    +0.000 C 
ENDBRANCH   1  13
BRANCH   1  14
ATOM     14  C   UNL     1      -3.921  11.158  18.359  0.00  0.00    +0.000 C 
ATOM     15  O   UNL     1      -4.479  10.174  18.829  0.00  0.00    +0.000 OA
BRANCH  14  16
ATOM     16  O   UNL     1      -4.570  12.227  17.805  0.00  0.00    +0.000 OA
ATOM     17  C   UNL     1      -5.947  12.000  17.497  0.00  0.00    +0.000 C 
ENDBRANCH  14  16
ENDBRANCH   1  14
BRANCH   3  18
ATOM     18  C   UNL     1       0.606   9.625  19.841  0.00  0.00    +0.000 C 
BRANCH  18  19
ATOM     19  N   UNL     1       1.458   8.820  18.946  0.00  0.00    +0.000 N 
ATOM     20  C   UNL     1       1.792   9.420  17.660  0.00  0.00    +0.000 C 
ATOM     21  C   UNL     1       1.990   7.620  19.435  0.00  0.00    +0.000 C 
ATOM     22  O   UNL     1       1.753   7.214  20.574  0.00  0.00    +0.000 OA
BRANCH  21  23
ATOM     23  C   UNL     1       2.811   6.716  18.564  0.00  0.00    +0.000 A 
ATOM     24  C   UNL     1       3.981   7.118  17.908  0.00  0.00    +0.000 A 
ATOM     25  C   UNL     1       4.646   6.245  17.043  0.00  0.00    +0.000 A 
ATOM     26  C   UNL     1       4.188   4.945  16.892  0.00  0.00    +0.000 A 
ATOM     27  F   UNL     1       4.830   4.112  16.063  0.00  0.00    +0.000 F 
ATOM     28  C   UNL     1       3.083   4.493  17.602  0.00  0.00    +0.000 A 
ATOM     29  C   UNL     1       2.392   5.379  18.434  0.00  0.00    +0.000 A 
ENDBRANCH  21  23
ENDBRANCH  18  19
ENDBRANCH   3  18
BRANCH   7  30
ATOM     30  C   UNL     1      -2.725  12.172  22.840  0.00  0.00    +0.000 C 
BRANCH  30  31
ATOM     31  C   UNL     1      -2.701  13.564  23.441  0.00  0.00    +0.000 A 
ATOM     32  C   UNL     1      -3.897  14.241  23.731  0.00  0.00    +0.000 A 
ATOM     33  C   UNL     1      -3.878  15.468  24.401  0.00  0.00    +0.000 A 
ATOM     34  C   UNL     1      -2.663  16.036  24.778  0.00  0.00    +0.000 A 
ATOM     35  C   UNL     1      -1.468  15.392  24.462  0.00  0.00    +0.000 A 
ATOM     36  C   UNL     1      -1.485  14.165  23.795  0.00  0.00    +0.000 A 
ENDBRANCH  30  31
ENDBRANCH   7  30
TORSDOF 8
ENDMDL
MODEL 7
REMARK VINA RESULT:      -6.7      2.261      3.611
REMARK  Name = 
REMARK  11 active torsions:
REMARK  status: ('A' for Active; 'I' for Inactive)
REMARK    1  A    between atoms: C_1  and  C_2
REMARK    2  A    between atoms: C_2  and  C_3
REMARK    3  A    between atoms: C_3  and  C_4
REMARK    4  A    between atoms: C_4  and  O_6
REMARK    5  A    between atoms: O_6  and  C_7
REMARK    6  A    between atoms: C_9  and  C_10
REMARK    7  A    between atoms: C_10  and  N_11
REMARK    8  A    between atoms: N_11  and  C_12
REMARK    9  A    between atoms: C_13  and  C_15
REMARK   10  A    between atoms: N_25  and  C_26
REMARK   11  A    between atoms: C_26  and  C_27
REMARK                            x       y       z     vdW  Elec       q    Type
REMARK                         _______ _______ _______ _____ _____    ______ ____
ROOT
ATOM      1  C   UNL     1       1.697  14.301  18.998  0.00  0.00    +0.000 C 
ATOM      2  N   UNL     1       0.782  13.179  18.617  0.00  0.00    +0.000 NA
ATOM      3  C   UNL     1       1.311  11.980  19.288  0.00  0.00    +0.000 C 
ATOM      4  C   UNL     1       1.623  12.502  20.685  0.00  0.00    +0.000 C 
ATOM      5  C   UNL     1       0.460  12.517  21.644  0.00  0.00    +0.000 C 
ATOM      6  O   UNL     1       0.050  11.540  22.252  0.00  0.00    +0.000 OA
ATOM      7  N   UNL     1       0.032  13.793  21.835  0.00  0.00    +0.000 N 
ATOM      8  C   UNL     1       0.978  14.681  21.431  0.00  0.00    +0.000 C 
ATOM      9  O   UNL     1       1.094  15.844  21.796  0.00  0.00    +0.000 OA
ATOM     10  C   UNL     1       1.947  13.996  20.490  0.00  0.00    +0.000 C 
ATOM     11  H   UNL     1       0.726  13.060  17.606  0.00  0.00    +0.000 HD
ENDROOT
BRANCH   1  13
ATOM     12  C   UNL     1       4.274  14.653  18.935  0.00  0.00    +0.000 C 
ATOM     13  C   UNL     1       3.013  14.260  18.162  0.00  0.00    +0.000 C 
ENDBRANCH   1  13
BRANCH   1  14
ATOM     14  C   UNL     1       1.012  15.676  18.783  0.00  0.00    +0.000 C 
ATOM     15  O   UNL     1       1.591  16.750  18.679  0.00  0.00    +0.000 OA
BRANCH  14  16
ATOM     16  O   UNL     1      -0.346  15.521  18.762  0.00  0.00    +0.000 OA
ATOM     17  C   UNL     1      -1.090  16.690  19.114  0.00  0.00    +0.000 C 
ENDBRANCH  14  16
ENDBRANCH   1  14
BRANCH   3  18
ATOM     18  C   UNL     1       0.417  10.722  19.173  0.00  0.00    +0.000 C 
BRANCH  18  19
ATOM     19  N   UNL     1       1.128   9.454  19.421  0.00  0.00    +0.000 N 
ATOM     20  C   UNL     1       0.940   8.854  20.735  0.00  0.00    +0.000 C 
ATOM     21  C   UNL     1       1.811   8.855  18.354  0.00  0.00    +0.000 C 
ATOM     22  O   UNL     1       1.849   9.362  17.232  0.00  0.00    +0.000 OA
BRANCH  21  23
ATOM     23  C   UNL     1       2.610   7.599  18.544  0.00  0.00    +0.000 A 
ATOM     24  C   UNL     1       2.343   6.647  19.536  0.00  0.00    +0.000 A 
ATOM     25  C   UNL     1       3.184   5.546  19.708  0.00  0.00    +0.000 A 
ATOM     26  C   UNL     1       4.248   5.350  18.840  0.00  0.00    +0.000 A 
ATOM     27  F   UNL     1       5.050   4.291  19.009  0.00  0.00    +0.000 F 
ATOM     28  C   UNL     1       4.481   6.230  17.791  0.00  0.00    +0.000 A 
ATOM     29  C   UNL     1       3.666   7.357  17.646  0.00  0.00    +0.000 A 
ENDBRANCH  21  23
ENDBRANCH  18  19
ENDBRANCH   3  18
BRANCH   7  30
ATOM     30  C   UNL     1      -1.020  14.114  22.779  0.00  0.00    +0.000 C 
BRANCH  30  31
ATOM     31  C   UNL     1      -2.404  13.723  22.300  0.00  0.00    +0.000 A 
ATOM     32  C   UNL     1      -2.727  13.754  20.933  0.00  0.00    +0.000 A 
ATOM     33  C   UNL     1      -3.959  13.273  20.480  0.00  0.00    +0.000 A 
ATOM     34  C   UNL     1      -4.885  12.766  21.389  0.00  0.00    +0.000 A 
ATOM     35  C   UNL     1      -4.591  12.765  22.751  0.00  0.00    +0.000 A 
ATOM     36  C   UNL     1      -3.360  13.243  23.206  0.00  0.00    +0.000 A 
ENDBRANCH  30  31
ENDBRANCH   7  30
TORSDOF 8
ENDMDL
MODEL 8
REMARK VINA RESULT:      -6.7      3.952     10.289
REMARK  Name = 
REMARK  11 active torsions:
REMARK  status: ('A' for Active; 'I' for Inactive)
REMARK    1  A    between atoms: C_1  and  C_2
REMARK    2  A    between atoms: C_2  and  C_3
REMARK    3  A    between atoms: C_3  and  C_4
REMARK    4  A    between atoms: C_4  and  O_6
REMARK    5  A    between atoms: O_6  and  C_7
REMARK    6  A    between atoms: C_9  and  C_10
REMARK    7  A    between atoms: C_10  and  N_11
REMARK    8  A    between atoms: N_11  and  C_12
REMARK    9  A    between atoms: C_13  and  C_15
REMARK   10  A    between atoms: N_25  and  C_26
REMARK   11  A    between atoms: C_26  and  C_27
REMARK                            x       y       z     vdW  Elec       q    Type
REMARK                         _______ _______ _______ _____ _____    ______ ____
ROOT
ATOM      1  C   UNL     1       2.039   3.741  19.432  0.00  0.00    +0.000 C 
ATOM      2  N   UNL     1       1.952   5.044  18.699  0.00  0.00    +0.000 NA
ATOM      3  C   UNL     1       2.501   6.060  19.613  0.00  0.00    +0.000 C 
ATOM      4  C   UNL     1       3.747   5.369  20.154  0.00  0.00    +0.000 C 
ATOM      5  C   UNL     1       4.978   5.490  19.291  0.00  0.00    +0.000 C 
ATOM      6  O   UNL     1       5.706   6.471  19.256  0.00  0.00    +0.000 OA
ATOM      7  N   UNL     1       5.231   4.305  18.675  0.00  0.00    +0.000 N 
ATOM      8  C   UNL     1       4.561   3.294  19.287  0.00  0.00    +0.000 C 
ATOM      9  O   UNL     1       4.842   2.103  19.251  0.00  0.00    +0.000 OA
ATOM     10  C   UNL     1       3.422   3.864  20.106  0.00  0.00    +0.000 C 
ATOM     11  H   UNL     1       0.997   5.259  18.416  0.00  0.00    +0.000 HD
ENDROOT
BRANCH   1  13
ATOM     12  C   UNL     1       1.274   2.878  21.763  0.00  0.00    +0.000 C 
ATOM     13  C   UNL     1       0.888   3.607  20.475  0.00  0.00    +0.000 C 
ENDBRANCH   1  13
BRANCH   1  14
ATOM     14  C   UNL     1       1.965   2.544  18.450  0.00  0.00    +0.000 C 
ATOM     15  O   UNL     1       1.990   1.361  18.767  0.00  0.00    +0.000 OA
BRANCH  14  16
ATOM     16  O   UNL     1       1.904   3.000  17.163  0.00  0.00    +0.000 OA
ATOM     17  C   UNL     1       3.022   2.644  16.345  0.00  0.00    +0.000 C 
ENDBRANCH  14  16
ENDBRANCH   1  14
BRANCH   3  18
ATOM     18  C   UNL     1       2.670   7.468  18.995  0.00  0.00    +0.000 C 
BRANCH  18  19
ATOM     19  N   UNL     1       1.644   8.439  19.419  0.00  0.00    +0.000 N 
ATOM     20  C   UNL     1       1.191   8.339  20.801  0.00  0.00    +0.000 C 
ATOM     21  C   UNL     1       1.282   9.456  18.527  0.00  0.00    +0.000 C 
ATOM     22  O   UNL     1       1.778   9.550  17.403  0.00  0.00    +0.000 OA
BRANCH  21  23
ATOM     23  C   UNL     1       0.200  10.441  18.861  0.00  0.00    +0.000 A 
ATOM     24  C   UNL     1       0.375  11.526  19.729  0.00  0.00    +0.000 A 
ATOM     25  C   UNL     1      -0.703  12.351  20.061  0.00  0.00    +0.000 A 
ATOM     26  C   UNL     1      -1.938  12.141  19.466  0.00  0.00    +0.000 A 
ATOM     27  F   UNL     1      -2.967  12.936  19.786  0.00  0.00    +0.000 F 
ATOM     28  C   UNL     1      -2.115  11.129  18.531  0.00  0.00    +0.000 A 
ATOM     29  C   UNL     1      -1.048  10.276  18.233  0.00  0.00    +0.000 A 
ENDBRANCH  21  23
ENDBRANCH  18  19
ENDBRANCH   3  18
BRANCH   7  30
ATOM     30  C   UNL     1       6.407   4.107  17.851  0.00  0.00    +0.000 C 
BRANCH  30  31
ATOM     31  C   UNL     1       6.191   4.452  16.391  0.00  0.00    +0.000 A 
ATOM     32  C   UNL     1       6.505   3.528  15.381  0.00  0.00    +0.000 A 
ATOM     33  C   UNL     1       6.187   3.796  14.046  0.00  0.00    +0.000 A 
ATOM     34  C   UNL     1       5.563   4.995  13.706  0.00  0.00    +0.000 A 
ATOM     35  C   UNL     1       5.282   5.935  14.695  0.00  0.00    +0.000 A 
ATOM     36  C   UNL     1       5.596   5.668  16.029  0.00  0.00    +0.000 A 
ENDBRANCH  30  31
ENDBRANCH   7  30
TORSDOF 8
ENDMDL
MODEL 9
REMARK VINA RESULT:      -6.6      2.208      3.585
REMARK  Name = 
REMARK  11 active torsions:
REMARK  status: ('A' for Active; 'I' for Inactive)
REMARK    1  A    between atoms: C_1  and  C_2
REMARK    2  A    between atoms: C_2  and  C_3
REMARK    3  A    between atoms: C_3  and  C_4
REMARK    4  A    between atoms: C_4  and  O_6
REMARK    5  A    between atoms: O_6  and  C_7
REMARK    6  A    between atoms: C_9  and  C_10
REMARK    7  A    between atoms: C_10  and  N_11
REMARK    8  A    between atoms: N_11  and  C_12
REMARK    9  A    between atoms: C_13  and  C_15
REMARK   10  A    between atoms: N_25  and  C_26
REMARK   11  A    between atoms: C_26  and  C_27
REMARK                            x       y       z     vdW  Elec       q    Type
REMARK                         _______ _______ _______ _____ _____    ______ ____
ROOT
ATOM      1  C   UNL     1       1.388  13.911  19.038  0.00  0.00    +0.000 C 
ATOM      2  N   UNL     1       0.577  12.703  18.687  0.00  0.00    +0.000 NA
ATOM      3  C   UNL     1       1.223  11.569  19.368  0.00  0.00    +0.000 C 
ATOM      4  C   UNL     1       1.505  12.141  20.753  0.00  0.00    +0.000 C 
ATOM      5  C   UNL     1       0.358  12.064  21.728  0.00  0.00    +0.000 C 
ATOM      6  O   UNL     1       0.049  11.062  22.357  0.00  0.00    +0.000 OA
ATOM      7  N   UNL     1      -0.183  13.298  21.907  0.00  0.00    +0.000 N 
ATOM      8  C   UNL     1       0.670  14.263  21.475  0.00  0.00    +0.000 C 
ATOM      9  O   UNL     1       0.683  15.436  21.821  0.00  0.00    +0.000 OA
ATOM     10  C   UNL     1       1.686  13.655  20.530  0.00  0.00    +0.000 C 
ATOM     11  H   UNL     1       0.518  12.563  17.679  0.00  0.00    +0.000 HD
ENDROOT
BRANCH   1  13
ATOM     12  C   UNL     1       3.957  14.318  18.972  0.00  0.00    +0.000 C 
ATOM     13  C   UNL     1       2.692  13.978  18.183  0.00  0.00    +0.000 C 
ENDBRANCH   1  13
BRANCH   1  14
ATOM     14  C   UNL     1       0.576  15.213  18.812  0.00  0.00    +0.000 C 
ATOM     15  O   UNL     1      -0.641  15.281  18.694  0.00  0.00    +0.000 OA
BRANCH  14  16
ATOM     16  O   UNL     1       1.425  16.281  18.726  0.00  0.00    +0.000 OA
ATOM     17  C   UNL     1       0.834  17.478  18.215  0.00  0.00    +0.000 C 
ENDBRANCH  14  16
ENDBRANCH   1  14
BRANCH   3  18
ATOM     18  C   UNL     1       0.449  10.232  19.286  0.00  0.00    +0.000 C 
BRANCH  18  19
ATOM     19  N   UNL     1       1.308   9.035  19.347  0.00  0.00    +0.000 N 
ATOM     20  C   UNL     1       1.385   8.360  20.637  0.00  0.00    +0.000 C 
ATOM     21  C   UNL     1       1.868   8.557  18.155  0.00  0.00    +0.000 C 
ATOM     22  O   UNL     1       1.681   9.114  17.072  0.00  0.00    +0.000 OA
BRANCH  21  23
ATOM     23  C   UNL     1       2.803   7.383  18.147  0.00  0.00    +0.000 A 
ATOM     24  C   UNL     1       4.107   7.429  17.637  0.00  0.00    +0.000 A 
ATOM     25  C   UNL     1       4.890   6.274  17.583  0.00  0.00    +0.000 A 
ATOM     26  C   UNL     1       4.401   5.087  18.109  0.00  0.00    +0.000 A 
ATOM     27  F   UNL     1       5.156   3.982  18.056  0.00  0.00    +0.000 F 
ATOM     28  C   UNL     1       3.147   5.035  18.703  0.00  0.00    +0.000 A 
ATOM     29  C   UNL     1       2.346   6.182  18.717  0.00  0.00    +0.000 A 
ENDBRANCH  21  23
ENDBRANCH  18  19
ENDBRANCH   3  18
BRANCH   7  30
ATOM     30  C   UNL     1      -1.249  13.535  22.861  0.00  0.00    +0.000 C 
BRANCH  30  31
ATOM     31  C   UNL     1      -2.636  13.349  22.280  0.00  0.00    +0.000 A 
ATOM     32  C   UNL     1      -2.830  13.286  20.890  0.00  0.00    +0.000 A 
ATOM     33  C   UNL     1      -4.088  12.988  20.359  0.00  0.00    +0.000 A 
ATOM     34  C   UNL     1      -5.168  12.761  21.210  0.00  0.00    +0.000 A 
ATOM     35  C   UNL     1      -4.996  12.859  22.589  0.00  0.00    +0.000 A 
ATOM     36  C   UNL     1      -3.739  13.154  23.123  0.00  0.00    +0.000 A 
ENDBRANCH  30  31
ENDBRANCH   7  30
TORSDOF 8
ENDMDL
