MODEL 1
REMARK VINA RESULT:      -7.3      0.000      0.000
REMARK  Name = 
REMARK  11 active torsions:
REMARK  status: ('A' for Active; 'I' for Inactive)
REMARK    1  A    between atoms: C_1  and  O_2
REMARK    2  A    between atoms: O_2  and  C_3
REMARK    3  A    between atoms: C_3  and  C_5
REMARK    4  A    between atoms: C_5  and  C_6
REMARK    5  A    between atoms: C_6  and  C_7
REMARK    6  A    between atoms: C_7  and  C_8
REMARK    7  A    between atoms: C_7  and  C_9
REMARK    8  A    between atoms: C_15  and  O_16
REMARK    9  A    between atoms: O_16  and  C_17
REMARK   10  A    between atoms: C_29  and  C_30
REMARK   11  A    between atoms: C_34  and  C_35
REMARK                            x       y       z     vdW  Elec       q    Type
REMARK                         _______ _______ _______ _____ _____    ______ ____
ROOT
ATOM      1  C   UNL     1       0.791  11.158  19.759  0.00  0.00    +0.000 C 
ATOM      2  C   UNL     1       0.201  10.684  21.120  0.00  0.00    +0.000 C 
ATOM      3  C   UNL     1       0.577   9.203  21.296  0.00  0.00    +0.000 C 
ATOM      4  C   UNL     1       1.547   8.926  20.160  0.00  0.00    +0.000 C 
ATOM      5  C   UNL     1       1.770   7.469  19.731  0.00  0.00    +0.000 C 
ATOM      6  C   UNL     1       2.199   6.513  20.882  0.00  0.00    +0.000 C 
ATOM      7  C   UNL     1       2.451   5.076  20.351  0.00  0.00    +0.000 C 
ATOM      8  C   UNL     1       3.502   5.129  19.216  0.00  0.00    +0.000 C 
ATOM      9  C   UNL     1       4.892   5.509  19.778  0.00  0.00    +0.000 C 
ATOM     10  C   UNL     1       5.907   5.477  18.660  0.00  0.00    +0.000 C 
ATOM     11  O   UNL     1       6.969   4.867  18.763  0.00  0.00    +0.000 OA
ATOM     12  C   UNL     1       5.577   6.314  17.457  0.00  0.00    +0.000 C 
ATOM     13  C   UNL     1       4.186   5.949  16.947  0.00  0.00    +0.000 C 
ATOM     14  C   UNL     1       3.062   6.027  18.026  0.00  0.00    +0.000 C 
ATOM     15  C   UNL     1       1.796   5.417  17.360  0.00  0.00    +0.000 C 
ATOM     16  C   UNL     1       2.805   7.464  18.555  0.00  0.00    +0.000 C 
ATOM     17  C   UNL     1       2.453   8.453  17.423  0.00  0.00    +0.000 C 
ATOM     18  C   UNL     1       2.113   9.854  17.926  0.00  0.00    +0.000 C 
ATOM     19  C   UNL     1       1.012   9.819  18.998  0.00  0.00    +0.000 C 
ATOM     20  C   UNL     1      -0.320   9.312  18.387  0.00  0.00    +0.000 C 
ENDROOT
BRANCH   1  21
ATOM     21  C   UNL     1      -0.069  12.268  19.081  0.00  0.00    +0.000 C 
ATOM     22  C   UNL     1       0.489  13.675  19.328  0.00  0.00    +0.000 C 
BRANCH  21  23
ATOM     23  C   UNL     1      -1.529  12.189  19.583  0.00  0.00    +0.000 C 
BRANCH  23  24
ATOM     24  C   UNL     1      -2.574  12.165  18.460  0.00  0.00    +0.000 C 
BRANCH  24  25
ATOM     25  C   UNL     1      -3.965  11.941  19.013  0.00  0.00    +0.000 C 
ATOM     26  O   UNL     1      -4.437  12.523  19.978  0.00  0.00    +0.000 OA
BRANCH  25  28
ATOM     27  C   UNL     1      -4.372  11.182  16.853  0.00  0.00    +0.000 C 
ATOM     28  O   UNL     1      -4.602  11.011  18.255  0.00  0.00    +0.000 OA
ENDBRANCH  25  28
ENDBRANCH  24  25
ENDBRANCH  23  24
ENDBRANCH  21  23
ENDBRANCH   1  21
BRANCH   7  29
ATOM     29  O   UNL     1       2.805   4.148  21.402  0.00  0.00    +0.000 OA
BRANCH  29  30
ATOM     30  C   UNL     1       2.395   2.782  21.171  0.00  0.00    +0.000 C 
ATOM     31  C   UNL     1       3.253   2.003  20.164  0.00  0.00    +0.000 C 
ATOM     32  C   UNL     1       2.752   2.032  18.727  0.00  0.00    +0.000 C 
ATOM     33  C   UNL     1       1.237   1.992  18.620  0.00  0.00    +0.000 C 
ATOM     34  C   UNL     1       0.561   2.903  19.630  0.00  0.00    +0.000 C 
ATOM     35  O   UNL     1       0.995   2.647  20.946  0.00  0.00    +0.000 OA
ENDBRANCH  29  30
ENDBRANCH   7  29
TORSDOF 7
ENDMDL
MODEL 2
REMARK VINA RESULT:      -7.2      2.010      2.568
REMARK  Name = 
REMARK  11 active torsions:
REMARK  status: ('A' for Active; 'I' for Inactive)
REMARK    1  A    between atoms: C_1  and  O_2
REMARK    2  A    between atoms: O_2  and  C_3
REMARK    3  A    between atoms: C_3  and  C_5
REMARK    4  A    between atoms: C_5  and  C_6
REMARK    5  A    between atoms: C_6  and  C_7
REMARK    6  A    between atoms: C_7  and  C_8
REMARK    7  A    between atoms: C_7  and  C_9
REMARK    8  A    between atoms: C_15  and  O_16
REMARK    9  A    between atoms: O_16  and  C_17
REMARK   10  A    between atoms: C_29  and  C_30
REMARK   11  A    between atoms: C_34  and  C_35
REMARK                            x       y       z     vdW  Elec       q    Type
REMARK                         _______ _______ _______ _____ _____    ______ ____
ROOT
ATOM      1  C   UNL     1       0.807  11.245  20.001  0.00  0.00    +0.000 C 
ATOM      2  C   UNL     1       0.263  10.743  21.372  0.00  0.00    +0.000 C 
ATOM      3  C   UNL     1       0.625   9.254  21.495  0.00  0.00    +0.000 C 
ATOM      4  C   UNL     1       1.548   8.994  20.316  0.00  0.00    +0.000 C 
ATOM      5  C   UNL     1       1.735   7.546  19.843  0.00  0.00    +0.000 C 
ATOM      6  C   UNL     1       2.195   6.556  20.951  0.00  0.00    +0.000 C 
ATOM      7  C   UNL     1       2.406   5.130  20.375  0.00  0.00    +0.000 C 
ATOM      8  C   UNL     1       3.414   5.199  19.203  0.00  0.00    +0.000 C 
ATOM      9  C   UNL     1       4.829   5.547  19.721  0.00  0.00    +0.000 C 
ATOM     10  C   UNL     1       5.801   5.531  18.564  0.00  0.00    +0.000 C 
ATOM     11  O   UNL     1       6.858   4.905  18.611  0.00  0.00    +0.000 OA
ATOM     12  C   UNL     1       5.437   6.403  17.397  0.00  0.00    +0.000 C 
ATOM     13  C   UNL     1       4.023   6.069  16.931  0.00  0.00    +0.000 C 
ATOM     14  C   UNL     1       2.942   6.133  18.053  0.00  0.00    +0.000 C 
ATOM     15  C   UNL     1       1.644   5.557  17.420  0.00  0.00    +0.000 C 
ATOM     16  C   UNL     1       2.725   7.559  18.628  0.00  0.00    +0.000 C 
ATOM     17  C   UNL     1       2.344   8.581  17.536  0.00  0.00    +0.000 C 
ATOM     18  C   UNL     1       2.042   9.973  18.087  0.00  0.00    +0.000 C 
ATOM     19  C   UNL     1       0.982   9.924  19.199  0.00  0.00    +0.000 C 
ATOM     20  C   UNL     1      -0.379   9.450  18.626  0.00  0.00    +0.000 C 
ENDROOT
BRANCH   1  21
ATOM     21  C   UNL     1      -0.062  12.384  19.385  0.00  0.00    +0.000 C 
ATOM     22  C   UNL     1       0.769  13.379  18.566  0.00  0.00    +0.000 C 
BRANCH  21  23
ATOM     23  C   UNL     1      -0.824  13.133  20.503  0.00  0.00    +0.000 C 
BRANCH  23  24
ATOM     24  C   UNL     1      -0.501  14.630  20.582  0.00  0.00    +0.000 C 
BRANCH  24  25
ATOM     25  C   UNL     1       0.157  14.979  21.900  0.00  0.00    +0.000 C 
ATOM     26  O   UNL     1      -0.229  15.848  22.667  0.00  0.00    +0.000 OA
BRANCH  25  28
ATOM     27  C   UNL     1       2.461  14.751  21.685  0.00  0.00    +0.000 C 
ATOM     28  O   UNL     1       1.224  14.161  22.097  0.00  0.00    +0.000 OA
ENDBRANCH  25  28
ENDBRANCH  24  25
ENDBRANCH  23  24
ENDBRANCH  21  23
ENDBRANCH   1  21
BRANCH   7  29
ATOM     29  O   UNL     1       2.787   4.170  21.388  0.00  0.00    +0.000 OA
BRANCH  29  30
ATOM     30  C   UNL     1       2.321   2.823  21.155  0.00  0.00    +0.000 C 
ATOM     31  C   UNL     1       3.110   2.029  20.104  0.00  0.00    +0.000 C 
ATOM     32  C   UNL     1       2.552   2.096  18.689  0.00  0.00    +0.000 C 
ATOM     33  C   UNL     1       1.035   2.110  18.644  0.00  0.00    +0.000 C 
ATOM     34  C   UNL     1       0.432   3.030  19.692  0.00  0.00    +0.000 C 
ATOM     35  O   UNL     1       0.908   2.740  20.985  0.00  0.00    +0.000 OA
ENDBRANCH  29  30
ENDBRANCH   7  29
TORSDOF 7
ENDMDL
MODEL 3
REMARK VINA RESULT:      -7.2      1.430      1.794
REMARK  Name = 
REMARK  11 active torsions:
REMARK  status: ('A' for Active; 'I' for Inactive)
REMARK    1  A    between atoms: C_1  and  O_2
REMARK    2  A    between atoms: O_2  and  C_3
REMARK    3  A    between atoms: C_3  and  C_5
REMARK    4  A    between atoms: C_5  and  C_6
REMARK    5  A    between atoms: C_6  and  C_7
REMARK    6  A    between atoms: C_7  and  C_8
REMARK    7  A    between atoms: C_7  and  C_9
REMARK    8  A    between atoms: C_15  and  O_16
REMARK    9  A    between atoms: O_16  and  C_17
REMARK   10  A    between atoms: C_29  and  C_30
REMARK   11  A    between atoms: C_34  and  C_35
REMARK                            x       y       z     vdW  Elec       q    Type
REMARK                         _______ _______ _______ _____ _____    ______ ____
ROOT
ATOM      1  C   UNL     1       0.595  11.113  20.344  0.00  0.00    +0.000 C 
ATOM      2  C   UNL     1       0.133  10.490  21.695  0.00  0.00    +0.000 C 
ATOM      3  C   UNL     1       0.586   9.021  21.704  0.00  0.00    +0.000 C 
ATOM      4  C   UNL     1       1.477   8.895  20.479  0.00  0.00    +0.000 C 
ATOM      5  C   UNL     1       1.729   7.496  19.903  0.00  0.00    +0.000 C 
ATOM      6  C   UNL     1       2.288   6.464  20.925  0.00  0.00    +0.000 C 
ATOM      7  C   UNL     1       2.560   5.095  20.246  0.00  0.00    +0.000 C 
ATOM      8  C   UNL     1       3.517   5.302  19.048  0.00  0.00    +0.000 C 
ATOM      9  C   UNL     1       4.928   5.700  19.539  0.00  0.00    +0.000 C 
ATOM     10  C   UNL     1       5.854   5.819  18.352  0.00  0.00    +0.000 C 
ATOM     11  O   UNL     1       6.947   5.257  18.320  0.00  0.00    +0.000 OA
ATOM     12  C   UNL     1       5.396   6.743  17.259  0.00  0.00    +0.000 C 
ATOM     13  C   UNL     1       3.987   6.355  16.820  0.00  0.00    +0.000 C 
ATOM     14  C   UNL     1       2.948   6.279  17.981  0.00  0.00    +0.000 C 
ATOM     15  C   UNL     1       1.662   5.668  17.355  0.00  0.00    +0.000 C 
ATOM     16  C   UNL     1       2.670   7.648  18.659  0.00  0.00    +0.000 C 
ATOM     17  C   UNL     1       2.189   8.716  17.652  0.00  0.00    +0.000 C 
ATOM     18  C   UNL     1       1.827  10.047  18.307  0.00  0.00    +0.000 C 
ATOM     19  C   UNL     1       0.815   9.861  19.448  0.00  0.00    +0.000 C 
ATOM     20  C   UNL     1      -0.536   9.344  18.891  0.00  0.00    +0.000 C 
ENDROOT
BRANCH   1  21
ATOM     21  C   UNL     1      -0.362  12.235  19.836  0.00  0.00    +0.000 C 
ATOM     22  C   UNL     1       0.358  13.272  18.965  0.00  0.00    +0.000 C 
BRANCH  21  23
ATOM     23  C   UNL     1      -1.038  12.938  21.037  0.00  0.00    +0.000 C 
BRANCH  23  24
ATOM     24  C   UNL     1      -2.569  12.978  20.954  0.00  0.00    +0.000 C 
BRANCH  24  25
ATOM     25  C   UNL     1      -3.197  12.664  22.295  0.00  0.00    +0.000 C 
ATOM     26  O   UNL     1      -2.698  11.952  23.153  0.00  0.00    +0.000 OA
BRANCH  25  28
ATOM     27  C   UNL     1      -5.068  13.042  23.622  0.00  0.00    +0.000 C 
ATOM     28  O   UNL     1      -4.387  13.314  22.394  0.00  0.00    +0.000 OA
ENDBRANCH  25  28
ENDBRANCH  24  25
ENDBRANCH  23  24
ENDBRANCH  21  23
ENDBRANCH   1  21
BRANCH   7  29
ATOM     29  O   UNL     1       3.035   4.095  21.178  0.00  0.00    +0.000 OA
BRANCH  29  30
ATOM     30  C   UNL     1       2.511   2.767  20.963  0.00  0.00    +0.000 C 
ATOM     31  C   UNL     1       3.124   2.004  19.781  0.00  0.00    +0.000 C 
ATOM     32  C   UNL     1       2.373   2.137  18.464  0.00  0.00    +0.000 C 
ATOM     33  C   UNL     1       0.864   2.178  18.637  0.00  0.00    +0.000 C 
ATOM     34  C   UNL     1       0.438   3.063  19.794  0.00  0.00    +0.000 C 
ATOM     35  O   UNL     1       1.087   2.714  20.995  0.00  0.00    +0.000 OA
ENDBRANCH  29  30
ENDBRANCH   7  29
TORSDOF 7
ENDMDL
MODEL 4
REMARK VINA RESULT:      -7.2      1.100      1.237
REMARK  Name = 
REMARK  11 active torsions:
REMARK  status: ('A' for Active; 'I' for Inactive)
REMARK    1  A    between atoms: C_1  and  O_2
REMARK    2  A    between atoms: O_2  and  C_3
REMARK    3  A    between atoms: C_3  and  C_5
REMARK    4  A    between atoms: C_5  and  C_6
REMARK    5  A    between atoms: C_6  and  C_7
REMARK    6  A    between atoms: C_7  and  C_8
REMARK    7  A    between atoms: C_7  and  C_9
REMARK    8  A    between atoms: C_15  and  O_16
REMARK    9  A    between atoms: O_16  and  C_17
REMARK   10  A    between atoms: C_29  and  C_30
REMARK   11  A    between atoms: C_34  and  C_35
REMARK                            x       y       z     vdW  Elec       q    Type
REMARK                         _______ _______ _______ _____ _____    ______ ____
ROOT
ATOM      1  C   UNL     1       0.830  10.581  19.674  0.00  0.00    +0.000 C 
ATOM      2  C   UNL     1       0.174   9.886  20.904  0.00  0.00    +0.000 C 
ATOM      3  C   UNL     1       0.714   8.447  20.963  0.00  0.00    +0.000 C 
ATOM      4  C   UNL     1       1.817   8.418  19.919  0.00  0.00    +0.000 C 
ATOM      5  C   UNL     1       2.261   7.056  19.368  0.00  0.00    +0.000 C 
ATOM      6  C   UNL     1       2.693   6.027  20.452  0.00  0.00    +0.000 C 
ATOM      7  C   UNL     1       3.173   4.700  19.804  0.00  0.00    +0.000 C 
ATOM      8  C   UNL     1       4.315   5.005  18.805  0.00  0.00    +0.000 C 
ATOM      9  C   UNL     1       5.585   5.472  19.555  0.00  0.00    +0.000 C 
ATOM     10  C   UNL     1       6.700   5.687  18.559  0.00  0.00    +0.000 C 
ATOM     11  O   UNL     1       7.816   5.194  18.715  0.00  0.00    +0.000 OA
ATOM     12  C   UNL     1       6.387   6.617  17.422  0.00  0.00    +0.000 C 
ATOM     13  C   UNL     1       5.110   6.160  16.725  0.00  0.00    +0.000 C 
ATOM     14  C   UNL     1       3.885   5.982  17.674  0.00  0.00    +0.000 C 
ATOM     15  C   UNL     1       2.777   5.315  16.811  0.00  0.00    +0.000 C 
ATOM     16  C   UNL     1       3.399   7.308  18.320  0.00  0.00    +0.000 C 
ATOM     17  C   UNL     1       3.039   8.377  17.266  0.00  0.00    +0.000 C 
ATOM     18  C   UNL     1       2.478   9.661  17.873  0.00  0.00    +0.000 C 
ATOM     19  C   UNL     1       1.290   9.375  18.806  0.00  0.00    +0.000 C 
ATOM     20  C   UNL     1       0.099   8.796  18.000  0.00  0.00    +0.000 C 
ENDROOT
BRANCH   1  21
ATOM     21  C   UNL     1      -0.092  11.659  19.025  0.00  0.00    +0.000 C 
ATOM     22  C   UNL     1       0.301  13.086  19.427  0.00  0.00    +0.000 C 
BRANCH  21  23
ATOM     23  C   UNL     1      -1.566  11.395  19.407  0.00  0.00    +0.000 C 
BRANCH  23  24
ATOM     24  C   UNL     1      -2.566  11.695  18.283  0.00  0.00    +0.000 C 
BRANCH  24  25
ATOM     25  C   UNL     1      -2.823  10.466  17.438  0.00  0.00    +0.000 C 
ATOM     26  O   UNL     1      -3.438   9.477  17.809  0.00  0.00    +0.000 OA
BRANCH  25  28
ATOM     27  C   UNL     1      -3.269  10.758  15.175  0.00  0.00    +0.000 C 
ATOM     28  O   UNL     1      -2.282  10.649  16.206  0.00  0.00    +0.000 OA
ENDBRANCH  25  28
ENDBRANCH  24  25
ENDBRANCH  23  24
ENDBRANCH  21  23
ENDBRANCH   1  21
BRANCH   7  29
ATOM     29  O   UNL     1       3.537   3.701  20.785  0.00  0.00    +0.000 OA
BRANCH  29  30
ATOM     30  C   UNL     1       2.880   2.424  20.624  0.00  0.00    +0.000 C 
ATOM     31  C   UNL     1       3.127   1.726  19.279  0.00  0.00    +0.000 C 
ATOM     32  C   UNL     1       2.087   2.005  18.203  0.00  0.00    +0.000 C 
ATOM     33  C   UNL     1       0.675   2.115  18.750  0.00  0.00    +0.000 C 
ATOM     34  C   UNL     1       0.611   2.928  20.031  0.00  0.00    +0.000 C 
ATOM     35  O   UNL     1       1.507   2.448  21.006  0.00  0.00    +0.000 OA
ENDBRANCH  29  30
ENDBRANCH   7  29
TORSDOF 7
ENDMDL
MODEL 5
REMARK VINA RESULT:      -7.1      3.316      8.463
REMARK  Name = 
REMARK  11 active torsions:
REMARK  status: ('A' for Active; 'I' for Inactive)
REMARK    1  A    between atoms: C_1  and  O_2
REMARK    2  A    between atoms: O_2  and  C_3
REMARK    3  A    between atoms: C_3  and  C_5
REMARK    4  A    between atoms: C_5  and  C_6
REMARK    5  A    between atoms: C_6  and  C_7
REMARK    6  A    between atoms: C_7  and  C_8
REMARK    7  A    between atoms: C_7  and  C_9
REMARK    8  A    between atoms: C_15  and  O_16
REMARK    9  A    between atoms: O_16  and  C_17
REMARK   10  A    between atoms: C_29  and  C_30
REMARK   11  A    between atoms: C_34  and  C_35
REMARK                            x       y       z     vdW  Elec       q    Type
REMARK                         _______ _______ _______ _____ _____    ______ ____
ROOT
ATOM      1  C   UNL     1       6.850   4.913  16.146  0.00  0.00    +0.000 C 
ATOM      2  C   UNL     1       7.021   6.405  16.561  0.00  0.00    +0.000 C 
ATOM      3  C   UNL     1       5.817   6.780  17.440  0.00  0.00    +0.000 C 
ATOM      4  C   UNL     1       5.110   5.458  17.691  0.00  0.00    +0.000 C 
ATOM      5  C   UNL     1       3.637   5.491  18.123  0.00  0.00    +0.000 C 
ATOM      6  C   UNL     1       3.351   6.356  19.384  0.00  0.00    +0.000 C 
ATOM      7  C   UNL     1       1.850   6.291  19.778  0.00  0.00    +0.000 C 
ATOM      8  C   UNL     1       1.441   4.813  19.983  0.00  0.00    +0.000 C 
ATOM      9  C   UNL     1       2.127   4.227  21.239  0.00  0.00    +0.000 C 
ATOM     10  C   UNL     1       1.648   2.810  21.453  0.00  0.00    +0.000 C 
ATOM     11  O   UNL     1       1.224   2.424  22.540  0.00  0.00    +0.000 OA
ATOM     12  C   UNL     1       1.812   1.884  20.282  0.00  0.00    +0.000 C 
ATOM     13  C   UNL     1       1.164   2.502  19.047  0.00  0.00    +0.000 C 
ATOM     14  C   UNL     1       1.658   3.944  18.712  0.00  0.00    +0.000 C 
ATOM     15  C   UNL     1       0.729   4.453  17.574  0.00  0.00    +0.000 C 
ATOM     16  C   UNL     1       3.157   4.011  18.313  0.00  0.00    +0.000 C 
ATOM     17  C   UNL     1       3.487   3.099  17.111  0.00  0.00    +0.000 C 
ATOM     18  C   UNL     1       4.937   3.212  16.646  0.00  0.00    +0.000 C 
ATOM     19  C   UNL     1       5.329   4.670  16.362  0.00  0.00    +0.000 C 
ATOM     20  C   UNL     1       4.513   5.226  15.168  0.00  0.00    +0.000 C 
ENDROOT
BRANCH   1  21
ATOM     21  C   UNL     1       7.465   4.601  14.747  0.00  0.00    +0.000 C 
ATOM     22  C   UNL     1       7.668   5.863  13.900  0.00  0.00    +0.000 C 
BRANCH  21  23
ATOM     23  C   UNL     1       6.567   3.598  13.986  0.00  0.00    +0.000 C 
BRANCH  23  24
ATOM     24  C   UNL     1       6.658   3.713  12.460  0.00  0.00    +0.000 C 
BRANCH  24  25
ATOM     25  C   UNL     1       5.637   2.824  11.782  0.00  0.00    +0.000 C 
ATOM     26  O   UNL     1       5.890   1.769  11.222  0.00  0.00    +0.000 OA
BRANCH  25  28
ATOM     27  C   UNL     1       3.700   3.478  10.674  0.00  0.00    +0.000 C 
ATOM     28  O   UNL     1       4.404   3.378  11.917  0.00  0.00    +0.000 OA
ENDBRANCH  25  28
ENDBRANCH  24  25
ENDBRANCH  23  24
ENDBRANCH  21  23
ENDBRANCH   1  21
BRANCH   7  29
ATOM     29  O   UNL     1       1.537   7.124  20.918  0.00  0.00    +0.000 OA
BRANCH  29  30
ATOM     30  C   UNL     1       1.796   8.533  20.732  0.00  0.00    +0.000 C 
ATOM     31  C   UNL     1       1.593   9.407  21.977  0.00  0.00    +0.000 C 
ATOM     32  C   UNL     1       0.212  10.033  22.110  0.00  0.00    +0.000 C 
ATOM     33  C   UNL     1      -0.381  10.463  20.780  0.00  0.00    +0.000 C 
ATOM     34  C   UNL     1      -0.170   9.427  19.690  0.00  0.00    +0.000 C 
ATOM     35  O   UNL     1       1.185   9.065  19.559  0.00  0.00    +0.000 OA
ENDBRANCH  29  30
ENDBRANCH   7  29
TORSDOF 7
ENDMDL
MODEL 6
REMARK VINA RESULT:      -7.0      1.808      2.530
REMARK  Name = 
REMARK  11 active torsions:
REMARK  status: ('A' for Active; 'I' for Inactive)
REMARK    1  A    between atoms: C_1  and  O_2
REMARK    2  A    between atoms: O_2  and  C_3
REMARK    3  A    between atoms: C_3  and  C_5
REMARK    4  A    between atoms: C_5  and  C_6
REMARK    5  A    between atoms: C_6  and  C_7
REMARK    6  A    between atoms: C_7  and  C_8
REMARK    7  A    between atoms: C_7  and  C_9
REMARK    8  A    between atoms: C_15  and  O_16
REMARK    9  A    between atoms: O_16  and  C_17
REMARK   10  A    between atoms: C_29  and  C_30
REMARK   11  A    between atoms: C_34  and  C_35
REMARK                            x       y       z     vdW  Elec       q    Type
REMARK                         _______ _______ _______ _____ _____    ______ ____
ROOT
ATOM      1  C   UNL     1       0.689  11.127  20.095  0.00  0.00    +0.000 C 
ATOM      2  C   UNL     1       0.133  10.576  21.441  0.00  0.00    +0.000 C 
ATOM      3  C   UNL     1       0.531   9.093  21.531  0.00  0.00    +0.000 C 
ATOM      4  C   UNL     1       1.480   8.888  20.363  0.00  0.00    +0.000 C 
ATOM      5  C   UNL     1       1.710   7.458  19.854  0.00  0.00    +0.000 C 
ATOM      6  C   UNL     1       2.176   6.450  20.944  0.00  0.00    +0.000 C 
ATOM      7  C   UNL     1       2.433   5.045  20.333  0.00  0.00    +0.000 C 
ATOM      8  C   UNL     1       3.459   5.171  19.182  0.00  0.00    +0.000 C 
ATOM      9  C   UNL     1       4.856   5.539  19.735  0.00  0.00    +0.000 C 
ATOM     10  C   UNL     1       5.848   5.578  18.596  0.00  0.00    +0.000 C 
ATOM     11  O   UNL     1       6.919   4.977  18.645  0.00  0.00    +0.000 OA
ATOM     12  C   UNL     1       5.482   6.472  17.445  0.00  0.00    +0.000 C 
ATOM     13  C   UNL     1       4.085   6.117  16.945  0.00  0.00    +0.000 C 
ATOM     14  C   UNL     1       2.984   6.124  18.049  0.00  0.00    +0.000 C 
ATOM     15  C   UNL     1       1.711   5.534  17.378  0.00  0.00    +0.000 C 
ATOM     16  C   UNL     1       2.721   7.528  18.659  0.00  0.00    +0.000 C 
ATOM     17  C   UNL     1       2.334   8.570  17.587  0.00  0.00    +0.000 C 
ATOM     18  C   UNL     1       1.988   9.939  18.170  0.00  0.00    +0.000 C 
ATOM     19  C   UNL     1       0.910   9.834  19.260  0.00  0.00    +0.000 C 
ATOM     20  C   UNL     1      -0.428   9.342  18.651  0.00  0.00    +0.000 C 
ENDROOT
BRANCH   1  21
ATOM     21  C   UNL     1      -0.198  12.261  19.494  0.00  0.00    +0.000 C 
ATOM     22  C   UNL     1       0.621  13.294  18.710  0.00  0.00    +0.000 C 
BRANCH  21  23
ATOM     23  C   UNL     1      -0.991  12.965  20.618  0.00  0.00    +0.000 C 
BRANCH  23  24
ATOM     24  C   UNL     1      -0.118  13.772  21.587  0.00  0.00    +0.000 C 
BRANCH  24  25
ATOM     25  C   UNL     1      -0.778  13.898  22.943  0.00  0.00    +0.000 C 
ATOM     26  O   UNL     1      -1.526  13.069  23.437  0.00  0.00    +0.000 OA
BRANCH  25  28
ATOM     27  C   UNL     1      -1.122  15.365  24.714  0.00  0.00    +0.000 C 
ATOM     28  O   UNL     1      -0.389  15.064  23.523  0.00  0.00    +0.000 OA
ENDBRANCH  25  28
ENDBRANCH  24  25
ENDBRANCH  23  24
ENDBRANCH  21  23
ENDBRANCH   1  21
BRANCH   7  29
ATOM     29  O   UNL     1       2.820   4.068  21.327  0.00  0.00    +0.000 OA
BRANCH  29  30
ATOM     30  C   UNL     1       2.419   2.712  21.034  0.00  0.00    +0.000 C 
ATOM     31  C   UNL     1       3.292   1.979  20.005  0.00  0.00    +0.000 C 
ATOM     32  C   UNL     1       2.806   2.066  18.565  0.00  0.00    +0.000 C 
ATOM     33  C   UNL     1       1.293   2.024  18.440  0.00  0.00    +0.000 C 
ATOM     34  C   UNL     1       0.602   2.889  19.480  0.00  0.00    +0.000 C 
ATOM     35  O   UNL     1       1.022   2.580  20.788  0.00  0.00    +0.000 OA
ENDBRANCH  29  30
ENDBRANCH   7  29
TORSDOF 7
ENDMDL
MODEL 7
REMARK VINA RESULT:      -7.0      1.329      1.856
REMARK  Name = 
REMARK  11 active torsions:
REMARK  status: ('A' for Active; 'I' for Inactive)
REMARK    1  A    between atoms: C_1  and  O_2
REMARK    2  A    between atoms: O_2  and  C_3
REMARK    3  A    between atoms: C_3  and  C_5
REMARK    4  A    between atoms: C_5  and  C_6
REMARK    5  A    between atoms: C_6  and  C_7
REMARK    6  A    between atoms: C_7  and  C_8
REMARK    7  A    between atoms: C_7  and  C_9
REMARK    8  A    between atoms: C_15  and  O_16
REMARK    9  A    between atoms: O_16  and  C_17
REMARK   10  A    between atoms: C_29  and  C_30
REMARK   11  A    between atoms: C_34  and  C_35
REMARK                            x       y       z     vdW  Elec       q    Type
REMARK                         _______ _______ _______ _____ _____    ______ ____
ROOT
ATOM      1  C   UNL     1       1.086   9.861  19.405  0.00  0.00    +0.000 C 
ATOM      2  C   UNL     1       0.306   8.984  20.430  0.00  0.00    +0.000 C 
ATOM      3  C   UNL     1       0.954   7.590  20.432  0.00  0.00    +0.000 C 
ATOM      4  C   UNL     1       2.208   7.759  19.591  0.00  0.00    +0.000 C 
ATOM      5  C   UNL     1       2.854   6.505  18.986  0.00  0.00    +0.000 C 
ATOM      6  C   UNL     1       3.196   5.390  20.017  0.00  0.00    +0.000 C 
ATOM      7  C   UNL     1       3.888   4.184  19.326  0.00  0.00    +0.000 C 
ATOM      8  C   UNL     1       5.144   4.681  18.571  0.00  0.00    +0.000 C 
ATOM      9  C   UNL     1       6.231   5.147  19.568  0.00  0.00    +0.000 C 
ATOM     10  C   UNL     1       7.468   5.553  18.802  0.00  0.00    +0.000 C 
ATOM     11  O   UNL     1       8.583   5.125  19.091  0.00  0.00    +0.000 OA
ATOM     12  C   UNL     1       7.260   6.584  17.729  0.00  0.00    +0.000 C 
ATOM     13  C   UNL     1       6.155   6.121  16.783  0.00  0.00    +0.000 C 
ATOM     14  C   UNL     1       4.815   5.749  17.490  0.00  0.00    +0.000 C 
ATOM     15  C   UNL     1       3.922   5.110  16.389  0.00  0.00    +0.000 C 
ATOM     16  C   UNL     1       4.117   6.954  18.176  0.00  0.00    +0.000 C 
ATOM     17  C   UNL     1       3.837   8.110  17.191  0.00  0.00    +0.000 C 
ATOM     18  C   UNL     1       3.075   9.273  17.823  0.00  0.00    +0.000 C 
ATOM     19  C   UNL     1       1.784   8.799  18.509  0.00  0.00    +0.000 C 
ATOM     20  C   UNL     1       0.792   8.234  17.459  0.00  0.00    +0.000 C 
ENDROOT
BRANCH   1  21
ATOM     21  C   UNL     1       0.188  10.939  18.724  0.00  0.00    +0.000 C 
ATOM     22  C   UNL     1       0.490  12.357  19.227  0.00  0.00    +0.000 C 
BRANCH  21  23
ATOM     23  C   UNL     1      -1.304  10.608  18.955  0.00  0.00    +0.000 C 
BRANCH  23  24
ATOM     24  C   UNL     1      -1.995   9.968  17.744  0.00  0.00    +0.000 C 
BRANCH  24  25
ATOM     25  C   UNL     1      -2.792  10.991  16.964  0.00  0.00    +0.000 C 
ATOM     26  O   UNL     1      -2.756  11.130  15.751  0.00  0.00    +0.000 OA
BRANCH  25  28
ATOM     27  C   UNL     1      -4.919  11.827  17.390  0.00  0.00    +0.000 C 
ATOM     28  O   UNL     1      -3.561  11.709  17.824  0.00  0.00    +0.000 OA
ENDBRANCH  25  28
ENDBRANCH  24  25
ENDBRANCH  23  24
ENDBRANCH  21  23
ENDBRANCH   1  21
BRANCH   7  29
ATOM     29  O   UNL     1       4.177   3.106  20.247  0.00  0.00    +0.000 OA
BRANCH  29  30
ATOM     30  C   UNL     1       3.186   2.056  20.284  0.00  0.00    +0.000 C 
ATOM     31  C   UNL     1       2.498   1.758  18.945  0.00  0.00    +0.000 C 
ATOM     32  C   UNL     1       1.194   2.506  18.706  0.00  0.00    +0.000 C 
ATOM     33  C   UNL     1       0.360   2.672  19.964  0.00  0.00    +0.000 C 
ATOM     34  C   UNL     1       1.198   3.067  21.167  0.00  0.00    +0.000 C 
ATOM     35  O   UNL     1       2.275   2.183  21.374  0.00  0.00    +0.000 OA
ENDBRANCH  29  30
ENDBRANCH   7  29
TORSDOF 7
ENDMDL
MODEL 8
REMARK VINA RESULT:      -6.9      1.916      2.750
REMARK  Name = 
REMARK  11 active torsions:
REMARK  status: ('A' for Active; 'I' for Inactive)
REMARK    1  A    between atoms: C_1  and  O_2
REMARK    2  A    between atoms: O_2  and  C_3
REMARK    3  A    between atoms: C_3  and  C_5
REMARK    4  A    between atoms: C_5  and  C_6
REMARK    5  A    between atoms: C_6  and  C_7
REMARK    6  A    between atoms: C_7  and  C_8
REMARK    7  A    between atoms: C_7  and  C_9
REMARK    8  A    between atoms: C_15  and  O_16
REMARK    9  A    between atoms: O_16  and  C_17
REMARK   10  A    between atoms: C_29  and  C_30
REMARK   11  A    between atoms: C_34  and  C_35
REMARK                            x       y       z     vdW  Elec       q    Type
REMARK                         _______ _______ _______ _____ _____    ______ ____
ROOT
ATOM      1  C   UNL     1       1.707   9.507  19.290  0.00  0.00    +0.000 C 
ATOM      2  C   UNL     1       1.119   8.774  20.532  0.00  0.00    +0.000 C 
ATOM      3  C   UNL     1       1.688   7.345  20.537  0.00  0.00    +0.000 C 
ATOM      4  C   UNL     1       2.745   7.359  19.446  0.00  0.00    +0.000 C 
ATOM      5  C   UNL     1       3.190   6.019  18.846  0.00  0.00    +0.000 C 
ATOM      6  C   UNL     1       3.689   4.976  19.887  0.00  0.00    +0.000 C 
ATOM      7  C   UNL     1       4.165   3.673  19.190  0.00  0.00    +0.000 C 
ATOM      8  C   UNL     1       5.256   4.021  18.150  0.00  0.00    +0.000 C 
ATOM      9  C   UNL     1       6.548   4.497  18.854  0.00  0.00    +0.000 C 
ATOM     10  C   UNL     1       7.615   4.755  17.816  0.00  0.00    +0.000 C 
ATOM     11  O   UNL     1       8.745   4.281  17.912  0.00  0.00    +0.000 OA
ATOM     12  C   UNL     1       7.235   5.702  16.714  0.00  0.00    +0.000 C 
ATOM     13  C   UNL     1       5.936   5.234  16.063  0.00  0.00    +0.000 C 
ATOM     14  C   UNL     1       4.758   5.012  17.061  0.00  0.00    +0.000 C 
ATOM     15  C   UNL     1       3.626   4.342  16.232  0.00  0.00    +0.000 C 
ATOM     16  C   UNL     1       4.276   6.314  17.755  0.00  0.00    +0.000 C 
ATOM     17  C   UNL     1       3.850   7.398  16.741  0.00  0.00    +0.000 C 
ATOM     18  C   UNL     1       3.292   8.658  17.400  0.00  0.00    +0.000 C 
ATOM     19  C   UNL     1       2.152   8.329  18.377  0.00  0.00    +0.000 C 
ATOM     20  C   UNL     1       0.938   7.743  17.612  0.00  0.00    +0.000 C 
ENDROOT
BRANCH   1  21
ATOM     21  C   UNL     1       0.738  10.580  18.706  0.00  0.00    +0.000 C 
ATOM     22  C   UNL     1       1.446  11.904  18.395  0.00  0.00    +0.000 C 
BRANCH  21  23
ATOM     23  C   UNL     1      -0.431  10.829  19.688  0.00  0.00    +0.000 C 
BRANCH  23  24
ATOM     24  C   UNL     1      -0.234  12.050  20.595  0.00  0.00    +0.000 C 
BRANCH  24  25
ATOM     25  C   UNL     1      -1.149  11.991  21.798  0.00  0.00    +0.000 C 
ATOM     26  O   UNL     1      -2.331  12.301  21.795  0.00  0.00    +0.000 OA
BRANCH  25  28
ATOM     27  C   UNL     1      -0.854  10.205  23.258  0.00  0.00    +0.000 C 
ATOM     28  O   UNL     1      -0.453  11.522  22.866  0.00  0.00    +0.000 OA
ENDBRANCH  25  28
ENDBRANCH  24  25
ENDBRANCH  23  24
ENDBRANCH  21  23
ENDBRANCH   1  21
BRANCH   7  29
ATOM     29  O   UNL     1       4.590   2.660  20.133  0.00  0.00    +0.000 OA
BRANCH  29  30
ATOM     30  C   UNL     1       3.539   1.786  20.601  0.00  0.00    +0.000 C 
ATOM     31  C   UNL     1       2.410   1.524  19.595  0.00  0.00    +0.000 C 
ATOM     32  C   UNL     1       1.211   2.455  19.709  0.00  0.00    +0.000 C 
ATOM     33  C   UNL     1       0.876   2.826  21.143  0.00  0.00    +0.000 C 
ATOM     34  C   UNL     1       2.112   3.152  21.962  0.00  0.00    +0.000 C 
ATOM     35  O   UNL     1       3.071   2.121  21.905  0.00  0.00    +0.000 OA
ENDBRANCH  29  30
ENDBRANCH   7  29
TORSDOF 7
ENDMDL
MODEL 9
REMARK VINA RESULT:      -6.9      1.128      1.714
REMARK  Name = 
REMARK  11 active torsions:
REMARK  status: ('A' for Active; 'I' for Inactive)
REMARK    1  A    between atoms: C_1  and  O_2
REMARK    2  A    between atoms: O_2  and  C_3
REMARK    3  A    between atoms: C_3  and  C_5
REMARK    4  A    between atoms: C_5  and  C_6
REMARK    5  A    between atoms: C_6  and  C_7
REMARK    6  A    between atoms: C_7  and  C_8
REMARK    7  A    between atoms: C_7  and  C_9
REMARK    8  A    between atoms: C_15  and  O_16
REMARK    9  A    between atoms: O_16  and  C_17
REMARK   10  A    between atoms: C_29  and  C_30
REMARK   11  A    between atoms: C_34  and  C_35
REMARK                            x       y       z     vdW  Elec       q    Type
REMARK                         _______ _______ _______ _____ _____    ______ ____
ROOT
ATOM      1  C   UNL     1       0.719  11.149  19.851  0.00  0.00    +0.000 C 
ATOM      2  C   UNL     1       0.135  10.654  21.207  0.00  0.00    +0.000 C 
ATOM      3  C   UNL     1       0.516   9.172  21.360  0.00  0.00    +0.000 C 
ATOM      4  C   UNL     1       1.483   8.914  20.217  0.00  0.00    +0.000 C 
ATOM      5  C   UNL     1       1.709   7.464  19.767  0.00  0.00    +0.000 C 
ATOM      6  C   UNL     1       2.145   6.494  20.903  0.00  0.00    +0.000 C 
ATOM      7  C   UNL     1       2.398   5.065  20.350  0.00  0.00    +0.000 C 
ATOM      8  C   UNL     1       3.446   5.137  19.214  0.00  0.00    +0.000 C 
ATOM      9  C   UNL     1       4.836   5.513  19.777  0.00  0.00    +0.000 C 
ATOM     10  C   UNL     1       5.848   5.500  18.656  0.00  0.00    +0.000 C 
ATOM     11  O   UNL     1       6.913   4.891  18.747  0.00  0.00    +0.000 OA
ATOM     12  C   UNL     1       5.513   6.353  17.466  0.00  0.00    +0.000 C 
ATOM     13  C   UNL     1       4.121   5.992  16.955  0.00  0.00    +0.000 C 
ATOM     14  C   UNL     1       3.000   6.051  18.038  0.00  0.00    +0.000 C 
ATOM     15  C   UNL     1       1.734   5.447  17.366  0.00  0.00    +0.000 C 
ATOM     16  C   UNL     1       2.741   7.479  18.588  0.00  0.00    +0.000 C 
ATOM     17  C   UNL     1       2.383   8.484  17.471  0.00  0.00    +0.000 C 
ATOM     18  C   UNL     1       2.040   9.876  17.996  0.00  0.00    +0.000 C 
ATOM     19  C   UNL     1       0.942   9.823  19.070  0.00  0.00    +0.000 C 
ATOM     20  C   UNL     1      -0.390   9.321  18.455  0.00  0.00    +0.000 C 
ENDROOT
BRANCH   1  21
ATOM     21  C   UNL     1      -0.145  12.267  19.191  0.00  0.00    +0.000 C 
ATOM     22  C   UNL     1       0.575  13.621  19.153  0.00  0.00    +0.000 C 
BRANCH  21  23
ATOM     23  C   UNL     1      -1.489  12.410  19.943  0.00  0.00    +0.000 C 
BRANCH  23  24
ATOM     24  C   UNL     1      -1.793  13.839  20.411  0.00  0.00    +0.000 C 
BRANCH  24  25
ATOM     25  C   UNL     1      -3.159  13.924  21.056  0.00  0.00    +0.000 C 
ATOM     26  O   UNL     1      -4.200  13.544  20.544  0.00  0.00    +0.000 OA
BRANCH  25  28
ATOM     27  C   UNL     1      -2.296  15.695  22.293  0.00  0.00    +0.000 C 
ATOM     28  O   UNL     1      -3.035  14.469  22.295  0.00  0.00    +0.000 OA
ENDBRANCH  25  28
ENDBRANCH  24  25
ENDBRANCH  23  24
ENDBRANCH  21  23
ENDBRANCH   1  21
BRANCH   7  29
ATOM     29  O   UNL     1       2.758   4.122  21.387  0.00  0.00    +0.000 OA
BRANCH  29  30
ATOM     30  C   UNL     1       2.387   2.753  21.119  0.00  0.00    +0.000 C 
ATOM     31  C   UNL     1       3.291   2.013  20.123  0.00  0.00    +0.000 C 
ATOM     32  C   UNL     1       2.829   2.057  18.673  0.00  0.00    +0.000 C 
ATOM     33  C   UNL     1       1.320   1.985  18.523  0.00  0.00    +0.000 C 
ATOM     34  C   UNL     1       0.595   2.861  19.529  0.00  0.00    +0.000 C 
ATOM     35  O   UNL     1       0.997   2.590  20.852  0.00  0.00    +0.000 OA
ENDBRANCH  29  30
ENDBRANCH   7  29
TORSDOF 7
ENDMDL
