MODEL 1
REMARK VINA RESULT:      -7.0      0.000      0.000
REMARK  Name = 
REMARK  9 active torsions:
REMARK  status: ('A' for Active; 'I' for Inactive)
REMARK    1  A    between atoms: C_1  and  O_2
REMARK    2  A    between atoms: O_2  and  C_3
REMARK    3  A    between atoms: C_7  and  N_8
REMARK    4  A    between atoms: C_9  and  C_11
REMARK    5  A    between atoms: C_16  and  C_17
REMARK    6  A    between atoms: C_17  and  C_18
REMARK    7  A    between atoms: C_17  and  C_19
REMARK    8  A    between atoms: C_17  and  C_20
REMARK    9  A    between atoms: C_23  and  C_24
REMARK                            x       y       z     vdW  Elec       q    Type
REMARK                         _______ _______ _______ _____ _____    ______ ____
ROOT
ATOM      1  C   UNL     1       0.837  10.218  19.745  0.00  0.00    +0.000 A 
ATOM      2  C   UNL     1       1.331  10.459  18.358  0.00  0.00    +0.000 A 
ATOM      3  N   UNL     1       2.013   9.637  17.618  0.00  0.00    +0.000 NA
ATOM      4  C   UNL     1       2.317   8.440  18.201  0.00  0.00    +0.000 A 
ATOM      5  C   UNL     1       3.107   7.401  17.773  0.00  0.00    +0.000 A 
ATOM      6  C   UNL     1       3.056   6.428  18.797  0.00  0.00    +0.000 A 
ATOM      7  N   UNL     1       2.285   6.837  19.810  0.00  0.00    +0.000 NA
ATOM      8  N   UNL     1       1.851   8.083  19.470  0.00  0.00    +0.000 N 
ATOM      9  C   UNL     1       1.090   8.977  20.241  0.00  0.00    +0.000 A 
ATOM     10  C   UNL     1       0.637   8.500  21.600  0.00  0.00    +0.000 C 
ENDROOT
BRANCH   1  12
ATOM     11  N   UNL     1      -1.117  11.448  20.597  0.00  0.00    +0.000 N 
ATOM     12  C   UNL     1       0.254  11.286  20.607  0.00  0.00    +0.000 C 
ATOM     13  O   UNL     1       1.016  11.973  21.290  0.00  0.00    +0.000 OA
ATOM     14  H   UNL     1      -1.702  10.734  20.186  0.00  0.00    +0.000 HD
BRANCH  11  19
ATOM     15  C   UNL     1      -2.950  13.302  23.251  0.00  0.00    +0.000 A 
ATOM     16  C   UNL     1      -3.120  14.552  22.659  0.00  0.00    +0.000 A 
ATOM     17  C   UNL     1      -2.642  14.787  21.375  0.00  0.00    +0.000 A 
ATOM     18  C   UNL     1      -1.985  13.769  20.685  0.00  0.00    +0.000 A 
ATOM     19  C   UNL     1      -1.789  12.508  21.264  0.00  0.00    +0.000 A 
ATOM     20  C   UNL     1      -2.294  12.280  22.548  0.00  0.00    +0.000 A 
BRANCH  15  22
ATOM     21  C   UNL     1      -4.640  12.403  24.654  0.00  0.00    +0.000 C 
ATOM     22  O   UNL     1      -3.471  13.198  24.512  0.00  0.00    +0.000 OA
ENDBRANCH  15  22
ENDBRANCH  11  19
ENDBRANCH   1  12
BRANCH   6  23
ATOM     23  C   UNL     1       3.775   5.083  18.855  0.00  0.00    +0.000 C 
ATOM     24  C   UNL     1       3.670   4.371  17.493  0.00  0.00    +0.000 C 
ATOM     25  C   UNL     1       5.268   5.260  19.206  0.00  0.00    +0.000 C 
ATOM     26  C   UNL     1       3.152   4.162  19.927  0.00  0.00    +0.000 C 
ENDBRANCH   6  23
TORSDOF 4
ENDMDL
MODEL 2
REMARK VINA RESULT:      -6.8      1.059      1.867
REMARK  Name = 
REMARK  9 active torsions:
REMARK  status: ('A' for Active; 'I' for Inactive)
REMARK    1  A    between atoms: C_1  and  O_2
REMARK    2  A    between atoms: O_2  and  C_3
REMARK    3  A    between atoms: C_7  and  N_8
REMARK    4  A    between atoms: C_9  and  C_11
REMARK    5  A    between atoms: C_16  and  C_17
REMARK    6  A    between atoms: C_17  and  C_18
REMARK    7  A    between atoms: C_17  and  C_19
REMARK    8  A    between atoms: C_17  and  C_20
REMARK    9  A    between atoms: C_23  and  C_24
REMARK                            x       y       z     vdW  Elec       q    Type
REMARK                         _______ _______ _______ _____ _____    ______ ____
ROOT
ATOM      1  C   UNL     1       0.974   9.919  19.744  0.00  0.00    +0.000 A 
ATOM      2  C   UNL     1       1.398  10.194  18.341  0.00  0.00    +0.000 A 
ATOM      3  N   UNL     1       2.085   9.410  17.564  0.00  0.00    +0.000 NA
ATOM      4  C   UNL     1       2.467   8.224  18.122  0.00  0.00    +0.000 A 
ATOM      5  C   UNL     1       3.284   7.225  17.650  0.00  0.00    +0.000 A 
ATOM      6  C   UNL     1       3.320   6.242  18.664  0.00  0.00    +0.000 A 
ATOM      7  N   UNL     1       2.574   6.607  19.713  0.00  0.00    +0.000 NA
ATOM      8  N   UNL     1       2.071   7.835  19.404  0.00  0.00    +0.000 N 
ATOM      9  C   UNL     1       1.303   8.687  20.216  0.00  0.00    +0.000 A 
ATOM     10  C   UNL     1       0.929   8.178  21.587  0.00  0.00    +0.000 C 
ENDROOT
BRANCH   1  12
ATOM     11  N   UNL     1      -0.995  11.022  20.724  0.00  0.00    +0.000 N 
ATOM     12  C   UNL     1       0.381  10.952  20.641  0.00  0.00    +0.000 C 
ATOM     13  O   UNL     1       1.139  11.693  21.268  0.00  0.00    +0.000 OA
ATOM     14  H   UNL     1      -1.558  10.267  20.356  0.00  0.00    +0.000 HD
BRANCH  11  19
ATOM     15  C   UNL     1      -2.805  14.203  21.395  0.00  0.00    +0.000 A 
ATOM     16  C   UNL     1      -3.081  14.091  22.757  0.00  0.00    +0.000 A 
ATOM     17  C   UNL     1      -2.660  12.971  23.465  0.00  0.00    +0.000 A 
ATOM     18  C   UNL     1      -1.967  11.957  22.804  0.00  0.00    +0.000 A 
ATOM     19  C   UNL     1      -1.690  12.039  21.433  0.00  0.00    +0.000 A 
ATOM     20  C   UNL     1      -2.102  13.182  20.739  0.00  0.00    +0.000 A 
BRANCH  15  22
ATOM     21  C   UNL     1      -4.671  15.568  20.857  0.00  0.00    +0.000 C 
ATOM     22  O   UNL     1      -3.267  15.355  20.817  0.00  0.00    +0.000 OA
ENDBRANCH  15  22
ENDBRANCH  11  19
ENDBRANCH   1  12
BRANCH   6  23
ATOM     23  C   UNL     1       4.100   4.931  18.678  0.00  0.00    +0.000 C 
ATOM     24  C   UNL     1       3.445   3.939  19.659  0.00  0.00    +0.000 C 
ATOM     25  C   UNL     1       4.140   4.286  17.276  0.00  0.00    +0.000 C 
ATOM     26  C   UNL     1       5.561   5.155  19.127  0.00  0.00    +0.000 C 
ENDBRANCH   6  23
TORSDOF 4
ENDMDL
MODEL 3
REMARK VINA RESULT:      -6.8      1.080      2.032
REMARK  Name = 
REMARK  9 active torsions:
REMARK  status: ('A' for Active; 'I' for Inactive)
REMARK    1  A    between atoms: C_1  and  O_2
REMARK    2  A    between atoms: O_2  and  C_3
REMARK    3  A    between atoms: C_7  and  N_8
REMARK    4  A    between atoms: C_9  and  C_11
REMARK    5  A    between atoms: C_16  and  C_17
REMARK    6  A    between atoms: C_17  and  C_18
REMARK    7  A    between atoms: C_17  and  C_19
REMARK    8  A    between atoms: C_17  and  C_20
REMARK    9  A    between atoms: C_23  and  C_24
REMARK                            x       y       z     vdW  Elec       q    Type
REMARK                         _______ _______ _______ _____ _____    ______ ____
ROOT
ATOM      1  C   UNL     1       1.030   9.891  19.731  0.00  0.00    +0.000 A 
ATOM      2  C   UNL     1       1.462  10.175  18.332  0.00  0.00    +0.000 A 
ATOM      3  N   UNL     1       2.146   9.392  17.551  0.00  0.00    +0.000 NA
ATOM      4  C   UNL     1       2.515   8.198  18.100  0.00  0.00    +0.000 A 
ATOM      5  C   UNL     1       3.326   7.197  17.624  0.00  0.00    +0.000 A 
ATOM      6  C   UNL     1       3.350   6.205  18.630  0.00  0.00    +0.000 A 
ATOM      7  N   UNL     1       2.603   6.567  19.679  0.00  0.00    +0.000 NA
ATOM      8  N   UNL     1       2.111   7.801  19.378  0.00  0.00    +0.000 N 
ATOM      9  C   UNL     1       1.347   8.652  20.194  0.00  0.00    +0.000 A 
ATOM     10  C   UNL     1       0.964   8.135  21.559  0.00  0.00    +0.000 C 
ENDROOT
BRANCH   1  12
ATOM     11  N   UNL     1      -0.935  11.017  20.695  0.00  0.00    +0.000 N 
ATOM     12  C   UNL     1       0.441  10.922  20.634  0.00  0.00    +0.000 C 
ATOM     13  O   UNL     1       1.202  11.638  21.286  0.00  0.00    +0.000 OA
ATOM     14  H   UNL     1      -1.506  10.278  20.306  0.00  0.00    +0.000 HD
BRANCH  11  19
ATOM     15  C   UNL     1      -2.682  14.227  21.390  0.00  0.00    +0.000 A 
ATOM     16  C   UNL     1      -2.996  14.093  22.742  0.00  0.00    +0.000 A 
ATOM     17  C   UNL     1      -2.622  12.948  23.435  0.00  0.00    +0.000 A 
ATOM     18  C   UNL     1      -1.937  11.931  22.770  0.00  0.00    +0.000 A 
ATOM     19  C   UNL     1      -1.623  12.036  21.409  0.00  0.00    +0.000 A 
ATOM     20  C   UNL     1      -1.988  13.202  20.730  0.00  0.00    +0.000 A 
BRANCH  15  22
ATOM     21  C   UNL     1      -2.172  16.478  20.838  0.00  0.00    +0.000 C 
ATOM     22  O   UNL     1      -3.099  15.403  20.826  0.00  0.00    +0.000 OA
ENDBRANCH  15  22
ENDBRANCH  11  19
ENDBRANCH   1  12
BRANCH   6  23
ATOM     23  C   UNL     1       4.121   4.888  18.636  0.00  0.00    +0.000 C 
ATOM     24  C   UNL     1       5.561   5.122  19.132  0.00  0.00    +0.000 C 
ATOM     25  C   UNL     1       3.445   3.847  19.554  0.00  0.00    +0.000 C 
ATOM     26  C   UNL     1       4.195   4.277  17.220  0.00  0.00    +0.000 C 
ENDBRANCH   6  23
TORSDOF 4
ENDMDL
MODEL 4
REMARK VINA RESULT:      -6.8      2.585      9.220
REMARK  Name = 
REMARK  9 active torsions:
REMARK  status: ('A' for Active; 'I' for Inactive)
REMARK    1  A    between atoms: C_1  and  O_2
REMARK    2  A    between atoms: O_2  and  C_3
REMARK    3  A    between atoms: C_7  and  N_8
REMARK    4  A    between atoms: C_9  and  C_11
REMARK    5  A    between atoms: C_16  and  C_17
REMARK    6  A    between atoms: C_17  and  C_18
REMARK    7  A    between atoms: C_17  and  C_19
REMARK    8  A    between atoms: C_17  and  C_20
REMARK    9  A    between atoms: C_23  and  C_24
REMARK                            x       y       z     vdW  Elec       q    Type
REMARK                         _______ _______ _______ _____ _____    ______ ____
ROOT
ATOM      1  C   UNL     1       1.142   8.785  20.287  0.00  0.00    +0.000 A 
ATOM      2  C   UNL     1       1.302   8.813  21.770  0.00  0.00    +0.000 A 
ATOM      3  N   UNL     1       0.735   9.636  22.601  0.00  0.00    +0.000 NA
ATOM      4  C   UNL     1      -0.071  10.579  22.031  0.00  0.00    +0.000 A 
ATOM      5  C   UNL     1      -0.721  11.660  22.575  0.00  0.00    +0.000 A 
ATOM      6  C   UNL     1      -1.401  12.283  21.505  0.00  0.00    +0.000 A 
ATOM      7  N   UNL     1      -1.183  11.634  20.356  0.00  0.00    +0.000 NA
ATOM      8  N   UNL     1      -0.344  10.606  20.661  0.00  0.00    +0.000 N 
ATOM      9  C   UNL     1       0.258   9.688  19.784  0.00  0.00    +0.000 A 
ATOM     10  C   UNL     1      -0.096   9.800  18.321  0.00  0.00    +0.000 C 
ENDROOT
BRANCH   1  12
ATOM     11  N   UNL     1       2.123   6.613  19.673  0.00  0.00    +0.000 N 
ATOM     12  C   UNL     1       1.993   7.957  19.384  0.00  0.00    +0.000 C 
ATOM     13  O   UNL     1       2.538   8.503  18.424  0.00  0.00    +0.000 OA
ATOM     14  H   UNL     1       1.497   6.182  20.340  0.00  0.00    +0.000 HD
BRANCH  11  19
ATOM     15  C   UNL     1       5.244   4.825  18.725  0.00  0.00    +0.000 A 
ATOM     16  C   UNL     1       4.807   4.032  17.664  0.00  0.00    +0.000 A 
ATOM     17  C   UNL     1       3.482   4.093  17.248  0.00  0.00    +0.000 A 
ATOM     18  C   UNL     1       2.592   4.945  17.900  0.00  0.00    +0.000 A 
ATOM     19  C   UNL     1       3.003   5.740  18.978  0.00  0.00    +0.000 A 
ATOM     20  C   UNL     1       4.344   5.683  19.372  0.00  0.00    +0.000 A 
BRANCH  15  22
ATOM     21  C   UNL     1       7.483   4.720  17.944  0.00  0.00    +0.000 C 
ATOM     22  O   UNL     1       6.570   4.677  19.032  0.00  0.00    +0.000 OA
ENDBRANCH  15  22
ENDBRANCH  11  19
ENDBRANCH   1  12
BRANCH   6  23
ATOM     23  C   UNL     1      -2.257  13.546  21.540  0.00  0.00    +0.000 C 
ATOM     24  C   UNL     1      -2.510  13.970  23.000  0.00  0.00    +0.000 C 
ATOM     25  C   UNL     1      -1.568  14.711  20.799  0.00  0.00    +0.000 C 
ATOM     26  C   UNL     1      -3.626  13.312  20.865  0.00  0.00    +0.000 C 
ENDBRANCH   6  23
TORSDOF 4
ENDMDL
MODEL 5
REMARK VINA RESULT:      -6.7      2.533      9.100
REMARK  Name = 
REMARK  9 active torsions:
REMARK  status: ('A' for Active; 'I' for Inactive)
REMARK    1  A    between atoms: C_1  and  O_2
REMARK    2  A    between atoms: O_2  and  C_3
REMARK    3  A    between atoms: C_7  and  N_8
REMARK    4  A    between atoms: C_9  and  C_11
REMARK    5  A    between atoms: C_16  and  C_17
REMARK    6  A    between atoms: C_17  and  C_18
REMARK    7  A    between atoms: C_17  and  C_19
REMARK    8  A    between atoms: C_17  and  C_20
REMARK    9  A    between atoms: C_23  and  C_24
REMARK                            x       y       z     vdW  Elec       q    Type
REMARK                         _______ _______ _______ _____ _____    ______ ____
ROOT
ATOM      1  C   UNL     1       1.178   9.022  19.842  0.00  0.00    +0.000 A 
ATOM      2  C   UNL     1       0.707   9.772  18.642  0.00  0.00    +0.000 A 
ATOM      3  N   UNL     1      -0.033  10.841  18.629  0.00  0.00    +0.000 NA
ATOM      4  C   UNL     1      -0.427  11.294  19.856  0.00  0.00    +0.000 A 
ATOM      5  C   UNL     1      -1.290  12.300  20.214  0.00  0.00    +0.000 A 
ATOM      6  C   UNL     1      -1.315  12.307  21.626  0.00  0.00    +0.000 A 
ATOM      7  N   UNL     1      -0.518  11.355  22.124  0.00  0.00    +0.000 NA
ATOM      8  N   UNL     1       0.008  10.708  21.048  0.00  0.00    +0.000 N 
ATOM      9  C   UNL     1       0.832   9.569  21.038  0.00  0.00    +0.000 A 
ATOM     10  C   UNL     1       1.245   9.007  22.377  0.00  0.00    +0.000 C 
ENDROOT
BRANCH   1  12
ATOM     11  N   UNL     1       2.581   7.394  18.645  0.00  0.00    +0.000 N 
ATOM     12  C   UNL     1       1.836   7.686  19.770  0.00  0.00    +0.000 C 
ATOM     13  O   UNL     1       1.691   6.906  20.712  0.00  0.00    +0.000 OA
ATOM     14  H   UNL     1       2.836   8.135  18.006  0.00  0.00    +0.000 HD
BRANCH  11  19
ATOM     15  C   UNL     1       5.101   4.664  18.451  0.00  0.00    +0.000 A 
ATOM     16  C   UNL     1       4.347   3.618  17.919  0.00  0.00    +0.000 A 
ATOM     17  C   UNL     1       3.006   3.812  17.609  0.00  0.00    +0.000 A 
ATOM     18  C   UNL     1       2.417   5.054  17.840  0.00  0.00    +0.000 A 
ATOM     19  C   UNL     1       3.149   6.117  18.387  0.00  0.00    +0.000 A 
ATOM     20  C   UNL     1       4.503   5.912  18.674  0.00  0.00    +0.000 A 
BRANCH  15  22
ATOM     21  C   UNL     1       7.355   4.702  17.707  0.00  0.00    +0.000 C 
ATOM     22  O   UNL     1       6.408   4.346  18.704  0.00  0.00    +0.000 OA
ENDBRANCH  15  22
ENDBRANCH  11  19
ENDBRANCH   1  12
BRANCH   6  23
ATOM     23  C   UNL     1      -2.132  13.205  22.550  0.00  0.00    +0.000 C 
ATOM     24  C   UNL     1      -1.194  13.992  23.485  0.00  0.00    +0.000 C 
ATOM     25  C   UNL     1      -2.985  14.210  21.746  0.00  0.00    +0.000 C 
ATOM     26  C   UNL     1      -3.097  12.376  23.426  0.00  0.00    +0.000 C 
ENDBRANCH   6  23
TORSDOF 4
ENDMDL
MODEL 6
REMARK VINA RESULT:      -6.7      1.187      1.490
REMARK  Name = 
REMARK  9 active torsions:
REMARK  status: ('A' for Active; 'I' for Inactive)
REMARK    1  A    between atoms: C_1  and  O_2
REMARK    2  A    between atoms: O_2  and  C_3
REMARK    3  A    between atoms: C_7  and  N_8
REMARK    4  A    between atoms: C_9  and  C_11
REMARK    5  A    between atoms: C_16  and  C_17
REMARK    6  A    between atoms: C_17  and  C_18
REMARK    7  A    between atoms: C_17  and  C_19
REMARK    8  A    between atoms: C_17  and  C_20
REMARK    9  A    between atoms: C_23  and  C_24
REMARK                            x       y       z     vdW  Elec       q    Type
REMARK                         _______ _______ _______ _____ _____    ______ ____
ROOT
ATOM      1  C   UNL     1       0.984  10.395  19.819  0.00  0.00    +0.000 A 
ATOM      2  C   UNL     1       1.362  10.492  18.379  0.00  0.00    +0.000 A 
ATOM      3  N   UNL     1       1.893   9.560  17.646  0.00  0.00    +0.000 NA
ATOM      4  C   UNL     1       2.143   8.381  18.290  0.00  0.00    +0.000 A 
ATOM      5  C   UNL     1       2.791   7.244  17.874  0.00  0.00    +0.000 A 
ATOM      6  C   UNL     1       2.752   6.353  18.969  0.00  0.00    +0.000 A 
ATOM      7  N   UNL     1       2.122   6.903  20.013  0.00  0.00    +0.000 NA
ATOM      8  N   UNL     1       1.771   8.158  19.618  0.00  0.00    +0.000 N 
ATOM      9  C   UNL     1       1.171   9.172  20.383  0.00  0.00    +0.000 A 
ATOM     10  C   UNL     1       0.809   8.835  21.810  0.00  0.00    +0.000 C 
ENDROOT
BRANCH   1  12
ATOM     11  N   UNL     1      -0.763  11.810  20.820  0.00  0.00    +0.000 N 
ATOM     12  C   UNL     1       0.585  11.571  20.645  0.00  0.00    +0.000 C 
ATOM     13  O   UNL     1       1.470  12.273  21.135  0.00  0.00    +0.000 OA
ATOM     14  H   UNL     1      -1.434  11.095  20.573  0.00  0.00    +0.000 HD
BRANCH  11  19
ATOM     15  C   UNL     1      -1.357  14.366  23.457  0.00  0.00    +0.000 A 
ATOM     16  C   UNL     1      -2.246  15.230  22.820  0.00  0.00    +0.000 A 
ATOM     17  C   UNL     1      -2.665  14.968  21.520  0.00  0.00    +0.000 A 
ATOM     18  C   UNL     1      -2.186  13.840  20.855  0.00  0.00    +0.000 A 
ATOM     19  C   UNL     1      -1.280  12.964  21.469  0.00  0.00    +0.000 A 
ATOM     20  C   UNL     1      -0.885  13.230  22.783  0.00  0.00    +0.000 A 
BRANCH  15  22
ATOM     21  C   UNL     1      -2.067  15.306  25.517  0.00  0.00    +0.000 C 
ATOM     22  O   UNL     1      -1.030  14.732  24.734  0.00  0.00    +0.000 OA
ENDBRANCH  15  22
ENDBRANCH  11  19
ENDBRANCH   1  12
BRANCH   6  23
ATOM     23  C   UNL     1       3.350   4.952  19.066  0.00  0.00    +0.000 C 
ATOM     24  C   UNL     1       2.761   4.212  20.283  0.00  0.00    +0.000 C 
ATOM     25  C   UNL     1       3.055   4.127  17.795  0.00  0.00    +0.000 C 
ATOM     26  C   UNL     1       4.884   5.009  19.236  0.00  0.00    +0.000 C 
ENDBRANCH   6  23
TORSDOF 4
ENDMDL
MODEL 7
REMARK VINA RESULT:      -6.6      3.419      9.629
REMARK  Name = 
REMARK  9 active torsions:
REMARK  status: ('A' for Active; 'I' for Inactive)
REMARK    1  A    between atoms: C_1  and  O_2
REMARK    2  A    between atoms: O_2  and  C_3
REMARK    3  A    between atoms: C_7  and  N_8
REMARK    4  A    between atoms: C_9  and  C_11
REMARK    5  A    between atoms: C_16  and  C_17
REMARK    6  A    between atoms: C_17  and  C_18
REMARK    7  A    between atoms: C_17  and  C_19
REMARK    8  A    between atoms: C_17  and  C_20
REMARK    9  A    between atoms: C_23  and  C_24
REMARK                            x       y       z     vdW  Elec       q    Type
REMARK                         _______ _______ _______ _____ _____    ______ ____
ROOT
ATOM      1  C   UNL     1       2.191   7.225  19.460  0.00  0.00    +0.000 A 
ATOM      2  C   UNL     1       1.633   7.034  20.830  0.00  0.00    +0.000 A 
ATOM      3  N   UNL     1       0.927   7.886  21.513  0.00  0.00    +0.000 NA
ATOM      4  C   UNL     1       0.705   9.085  20.898  0.00  0.00    +0.000 A 
ATOM      5  C   UNL     1       0.119  10.240  21.356  0.00  0.00    +0.000 A 
ATOM      6  C   UNL     1       0.175  11.155  20.281  0.00  0.00    +0.000 A 
ATOM      7  N   UNL     1       0.769  10.608  19.215  0.00  0.00    +0.000 NA
ATOM      8  N   UNL     1       1.126   9.349  19.592  0.00  0.00    +0.000 N 
ATOM      9  C   UNL     1       1.862   8.401  18.862  0.00  0.00    +0.000 A 
ATOM     10  C   UNL     1       2.275   8.781  17.460  0.00  0.00    +0.000 C 
ENDROOT
BRANCH   1  12
ATOM     11  N   UNL     1       4.443   6.766  18.582  0.00  0.00    +0.000 N 
ATOM     12  C   UNL     1       3.172   6.292  18.835  0.00  0.00    +0.000 C 
ATOM     13  O   UNL     1       2.809   5.144  18.575  0.00  0.00    +0.000 OA
ATOM     14  H   UNL     1       4.746   7.636  18.999  0.00  0.00    +0.000 HD
BRANCH  11  19
ATOM     15  C   UNL     1       6.362   5.332  15.735  0.00  0.00    +0.000 A 
ATOM     16  C   UNL     1       7.355   4.610  16.396  0.00  0.00    +0.000 A 
ATOM     17  C   UNL     1       7.389   4.581  17.786  0.00  0.00    +0.000 A 
ATOM     18  C   UNL     1       6.430   5.283  18.514  0.00  0.00    +0.000 A 
ATOM     19  C   UNL     1       5.431   6.029  17.874  0.00  0.00    +0.000 A 
ATOM     20  C   UNL     1       5.398   6.031  16.476  0.00  0.00    +0.000 A 
BRANCH  15  22
ATOM     21  C   UNL     1       6.244   3.997  13.776  0.00  0.00    +0.000 C 
ATOM     22  O   UNL     1       6.435   5.274  14.369  0.00  0.00    +0.000 OA
ENDBRANCH  15  22
ENDBRANCH  11  19
ENDBRANCH   1  12
BRANCH   6  23
ATOM     23  C   UNL     1      -0.309  12.602  20.250  0.00  0.00    +0.000 C 
ATOM     24  C   UNL     1       0.594  13.478  21.141  0.00  0.00    +0.000 C 
ATOM     25  C   UNL     1      -0.288  13.171  18.816  0.00  0.00    +0.000 C 
ATOM     26  C   UNL     1      -1.757  12.720  20.774  0.00  0.00    +0.000 C 
ENDBRANCH   6  23
TORSDOF 4
ENDMDL
MODEL 8
REMARK VINA RESULT:      -6.5      2.534      8.916
REMARK  Name = 
REMARK  9 active torsions:
REMARK  status: ('A' for Active; 'I' for Inactive)
REMARK    1  A    between atoms: C_1  and  O_2
REMARK    2  A    between atoms: O_2  and  C_3
REMARK    3  A    between atoms: C_7  and  N_8
REMARK    4  A    between atoms: C_9  and  C_11
REMARK    5  A    between atoms: C_16  and  C_17
REMARK    6  A    between atoms: C_17  and  C_18
REMARK    7  A    between atoms: C_17  and  C_19
REMARK    8  A    between atoms: C_17  and  C_20
REMARK    9  A    between atoms: C_23  and  C_24
REMARK                            x       y       z     vdW  Elec       q    Type
REMARK                         _______ _______ _______ _____ _____    ______ ____
ROOT
ATOM      1  C   UNL     1       1.014   9.336  19.701  0.00  0.00    +0.000 A 
ATOM      2  C   UNL     1       0.410  10.089  18.563  0.00  0.00    +0.000 A 
ATOM      3  N   UNL     1      -0.400  11.102  18.639  0.00  0.00    +0.000 NA
ATOM      4  C   UNL     1      -0.738  11.487  19.905  0.00  0.00    +0.000 A 
ATOM      5  C   UNL     1      -1.642  12.418  20.355  0.00  0.00    +0.000 A 
ATOM      6  C   UNL     1      -1.569  12.378  21.766  0.00  0.00    +0.000 A 
ATOM      7  N   UNL     1      -0.676  11.470  22.175  0.00  0.00    +0.000 NA
ATOM      8  N   UNL     1      -0.182  10.896  21.043  0.00  0.00    +0.000 N 
ATOM      9  C   UNL     1       0.715   9.820  20.936  0.00  0.00    +0.000 A 
ATOM     10  C   UNL     1       1.257   9.246  22.223  0.00  0.00    +0.000 C 
ENDROOT
BRANCH   1  12
ATOM     11  N   UNL     1       2.400   7.830  18.336  0.00  0.00    +0.000 N 
ATOM     12  C   UNL     1       1.756   8.053  19.536  0.00  0.00    +0.000 C 
ATOM     13  O   UNL     1       1.765   7.254  20.473  0.00  0.00    +0.000 OA
ATOM     14  H   UNL     1       2.533   8.595  17.689  0.00  0.00    +0.000 HD
BRANCH  11  19
ATOM     15  C   UNL     1       2.819   4.219  17.546  0.00  0.00    +0.000 A 
ATOM     16  C   UNL     1       4.192   4.134  17.319  0.00  0.00    +0.000 A 
ATOM     17  C   UNL     1       4.989   5.267  17.438  0.00  0.00    +0.000 A 
ATOM     18  C   UNL     1       4.409   6.488  17.778  0.00  0.00    +0.000 A 
ATOM     19  C   UNL     1       3.029   6.601  17.997  0.00  0.00    +0.000 A 
ATOM     20  C   UNL     1       2.243   5.449  17.894  0.00  0.00    +0.000 A 
BRANCH  15  22
ATOM     21  C   UNL     1       2.764   1.883  17.968  0.00  0.00    +0.000 C 
ATOM     22  O   UNL     1       2.148   3.033  17.404  0.00  0.00    +0.000 OA
ENDBRANCH  15  22
ENDBRANCH  11  19
ENDBRANCH   1  12
BRANCH   6  23
ATOM     23  C   UNL     1      -2.380  13.187  22.774  0.00  0.00    +0.000 C 
ATOM     24  C   UNL     1      -3.216  12.240  23.657  0.00  0.00    +0.000 C 
ATOM     25  C   UNL     1      -1.463  14.031  23.685  0.00  0.00    +0.000 C 
ATOM     26  C   UNL     1      -3.348  14.157  22.063  0.00  0.00    +0.000 C 
ENDBRANCH   6  23
TORSDOF 4
ENDMDL
MODEL 9
REMARK VINA RESULT:      -6.5      2.598      8.823
REMARK  Name = 
REMARK  9 active torsions:
REMARK  status: ('A' for Active; 'I' for Inactive)
REMARK    1  A    between atoms: C_1  and  O_2
REMARK    2  A    between atoms: O_2  and  C_3
REMARK    3  A    between atoms: C_7  and  N_8
REMARK    4  A    between atoms: C_9  and  C_11
REMARK    5  A    between atoms: C_16  and  C_17
REMARK    6  A    between atoms: C_17  and  C_18
REMARK    7  A    between atoms: C_17  and  C_19
REMARK    8  A    between atoms: C_17  and  C_20
REMARK    9  A    between atoms: C_23  and  C_24
REMARK                            x       y       z     vdW  Elec       q    Type
REMARK                         _______ _______ _______ _____ _____    ______ ____
ROOT
ATOM      1  C   UNL     1       1.189   9.221  19.634  0.00  0.00    +0.000 A 
ATOM      2  C   UNL     1       0.717  10.034  18.477  0.00  0.00    +0.000 A 
ATOM      3  N   UNL     1      -0.076  11.064  18.517  0.00  0.00    +0.000 NA
ATOM      4  C   UNL     1      -0.528  11.405  19.759  0.00  0.00    +0.000 A 
ATOM      5  C   UNL     1      -1.452  12.339  20.160  0.00  0.00    +0.000 A 
ATOM      6  C   UNL     1      -1.519  12.241  21.567  0.00  0.00    +0.000 A 
ATOM      7  N   UNL     1      -0.690  11.294  22.022  0.00  0.00    +0.000 NA
ATOM      8  N   UNL     1      -0.099  10.754  20.919  0.00  0.00    +0.000 N 
ATOM      9  C   UNL     1       0.781   9.661  20.854  0.00  0.00    +0.000 A 
ATOM     10  C   UNL     1       1.182   9.022  22.162  0.00  0.00    +0.000 C 
ENDROOT
BRANCH   1  12
ATOM     11  N   UNL     1       2.367   7.580  18.230  0.00  0.00    +0.000 N 
ATOM     12  C   UNL     1       1.916   7.927  19.487  0.00  0.00    +0.000 C 
ATOM     13  O   UNL     1       2.085   7.229  20.488  0.00  0.00    +0.000 OA
ATOM     14  H   UNL     1       2.386   8.273  17.495  0.00  0.00    +0.000 HD
BRANCH  11  19
ATOM     15  C   UNL     1       2.676   3.925  17.605  0.00  0.00    +0.000 A 
ATOM     16  C   UNL     1       4.034   3.799  17.317  0.00  0.00    +0.000 A 
ATOM     17  C   UNL     1       4.859   4.918  17.340  0.00  0.00    +0.000 A 
ATOM     18  C   UNL     1       4.320   6.167  17.645  0.00  0.00    +0.000 A 
ATOM     19  C   UNL     1       2.955   6.322  17.924  0.00  0.00    +0.000 A 
ATOM     20  C   UNL     1       2.142   5.184  17.918  0.00  0.00    +0.000 A 
BRANCH  15  22
ATOM     21  C   UNL     1       1.173   2.439  18.686  0.00  0.00    +0.000 C 
ATOM     22  O   UNL     1       1.976   2.749  17.557  0.00  0.00    +0.000 OA
ENDBRANCH  15  22
ENDBRANCH  11  19
ENDBRANCH   1  12
BRANCH   6  23
ATOM     23  C   UNL     1      -2.408  13.027  22.526  0.00  0.00    +0.000 C 
ATOM     24  C   UNL     1      -1.592  14.148  23.200  0.00  0.00    +0.000 C 
ATOM     25  C   UNL     1      -3.605  13.663  21.787  0.00  0.00    +0.000 C 
ATOM     26  C   UNL     1      -2.978  12.116  23.635  0.00  0.00    +0.000 C 
ENDBRANCH   6  23
TORSDOF 4
ENDMDL
