MODEL 1
REMARK VINA RESULT:      -7.7      0.000      0.000
REMARK  Name = 
REMARK  15 active torsions:
REMARK  status: ('A' for Active; 'I' for Inactive)
REMARK    1  A    between atoms: C_1  and  N_2
REMARK    2  A    between atoms: N_2  and  C_3
REMARK    3  A    between atoms: C_3  and  C_4
REMARK    4  A    between atoms: C_4  and  C_5
REMARK    5  A    between atoms: C_11  and  C_13
REMARK    6  A    between atoms: C_13  and  C_14
REMARK    7  A    between atoms: C_17  and  O_18
REMARK    8  A    between atoms: O_18  and  C_19
REMARK    9  A    between atoms: C_19  and  C_20
REMARK   10  A    between atoms: C_20  and  C_21
REMARK   11  A    between atoms: C_21  and  O_22
REMARK   12  A    between atoms: O_22  and  C_23
REMARK   13  A    between atoms: C_26  and  C_27
REMARK   14  A    between atoms: C_28  and  C_29
REMARK   15  A    between atoms: C_29  and  O_31
REMARK                            x       y       z     vdW  Elec       q    Type
REMARK                         _______ _______ _______ _____ _____    ______ ____
ROOT
ATOM      1  C   UNL     1       0.859   9.239  20.131  0.00  0.00    +0.000 A 
ATOM      2  C   UNL     1       1.115   9.527  18.787  0.00  0.00    +0.000 A 
ATOM      3  C   UNL     1       1.881   8.657  18.018  0.00  0.00    +0.000 A 
ATOM      4  C   UNL     1       2.403   7.486  18.573  0.00  0.00    +0.000 A 
ATOM      5  C   UNL     1       2.184   7.216  19.925  0.00  0.00    +0.000 A 
ATOM      6  C   UNL     1       1.421   8.089  20.704  0.00  0.00    +0.000 A 
ENDROOT
BRANCH   1   7
ATOM      7  C   UNL     1      -0.156  10.060  20.895  0.00  0.00    +0.000 C 
BRANCH   7  10
ATOM      8  C   UNL     1       0.070  13.758  21.791  0.00  0.00    +0.000 C 
ATOM      9  N   UNL     1      -0.516  12.504  21.332  0.00  0.00    +0.000 N 
ATOM     10  C   UNL     1       0.392  11.451  21.225  0.00  0.00    +0.000 C 
ATOM     11  O   UNL     1       1.600  11.642  21.396  0.00  0.00    +0.000 OA
BRANCH   9  12
ATOM     12  C   UNL     1      -1.982  12.345  21.299  0.00  0.00    +0.000 C 
BRANCH  12  13
ATOM     13  C   UNL     1      -2.660  13.011  20.095  0.00  0.00    +0.000 C 
BRANCH  13  14
ATOM     14  C   UNL     1      -2.950  12.052  18.969  0.00  0.00    +0.000 A 
ATOM     15  C   UNL     1      -4.274  11.704  18.664  0.00  0.00    +0.000 A 
ATOM     16  C   UNL     1      -4.551  10.851  17.597  0.00  0.00    +0.000 A 
ATOM     17  C   UNL     1      -3.508  10.332  16.831  0.00  0.00    +0.000 A 
ATOM     18  C   UNL     1      -2.188  10.665  17.132  0.00  0.00    +0.000 A 
ATOM     19  C   UNL     1      -1.908  11.520  18.200  0.00  0.00    +0.000 A 
ENDBRANCH  13  14
ENDBRANCH  12  13
ENDBRANCH   9  12
ENDBRANCH   7  10
ENDBRANCH   1   7
BRANCH   4  20
ATOM     20  O   UNL     1       3.117   6.544  17.870  0.00  0.00    +0.000 OA
BRANCH  20  21
ATOM     21  C   UNL     1       2.873   5.194  18.277  0.00  0.00    +0.000 C 
BRANCH  21  22
ATOM     22  C   UNL     1       3.892   4.246  17.671  0.00  0.00    +0.000 C 
BRANCH  22  23
ATOM     23  C   UNL     1       5.076   4.051  18.602  0.00  0.00    +0.000 C 
BRANCH  23  24
ATOM     24  O   UNL     1       6.272   4.251  17.848  0.00  0.00    +0.000 OA
BRANCH  24  25
ATOM     25  C   UNL     1       6.747   5.533  17.844  0.00  0.00    +0.000 A 
ATOM     26  C   UNL     1       7.710   5.819  18.810  0.00  0.00    +0.000 A 
ATOM     27  C   UNL     1       8.279   7.094  18.884  0.00  0.00    +0.000 A 
ATOM     28  C   UNL     1       7.915   8.091  17.971  0.00  0.00    +0.000 A 
ATOM     29  C   UNL     1       6.938   7.799  17.012  0.00  0.00    +0.000 A 
ATOM     30  C   UNL     1       6.365   6.527  16.942  0.00  0.00    +0.000 A 
BRANCH  28  31
ATOM     31  C   UNL     1       8.537   9.417  18.077  0.00  0.00    +0.000 C 
ATOM     32  C   UNL     1       9.172   9.866  19.171  0.00  0.00    +0.000 C 
BRANCH  32  33
ATOM     33  C   UNL     1       9.736  11.229  19.171  0.00  0.00    +0.000 C 
ATOM     34  O   UNL     1       9.885  11.919  20.163  0.00  0.00    +0.000 OA
BRANCH  33  35
ATOM     35  O   UNL     1      10.073  11.635  17.931  0.00  0.00    +0.000 OA
ATOM     36  H   UNL     1       9.536  12.352  17.561  0.00  0.00    +0.000 HD
ENDBRANCH  33  35
ENDBRANCH  32  33
ENDBRANCH  28  31
ENDBRANCH  24  25
ENDBRANCH  23  24
ENDBRANCH  22  23
ENDBRANCH  21  22
ENDBRANCH  20  21
ENDBRANCH   4  20
TORSDOF 14
ENDMDL
MODEL 2
REMARK VINA RESULT:      -7.6      3.602      4.916
REMARK  Name = 
REMARK  15 active torsions:
REMARK  status: ('A' for Active; 'I' for Inactive)
REMARK    1  A    between atoms: C_1  and  N_2
REMARK    2  A    between atoms: N_2  and  C_3
REMARK    3  A    between atoms: C_3  and  C_4
REMARK    4  A    between atoms: C_4  and  C_5
REMARK    5  A    between atoms: C_11  and  C_13
REMARK    6  A    between atoms: C_13  and  C_14
REMARK    7  A    between atoms: C_17  and  O_18
REMARK    8  A    between atoms: O_18  and  C_19
REMARK    9  A    between atoms: C_19  and  C_20
REMARK   10  A    between atoms: C_20  and  C_21
REMARK   11  A    between atoms: C_21  and  O_22
REMARK   12  A    between atoms: O_22  and  C_23
REMARK   13  A    between atoms: C_26  and  C_27
REMARK   14  A    between atoms: C_28  and  C_29
REMARK   15  A    between atoms: C_29  and  O_31
REMARK                            x       y       z     vdW  Elec       q    Type
REMARK                         _______ _______ _______ _____ _____    ______ ____
ROOT
ATOM      1  C   UNL     1       1.387   9.700  18.815  0.00  0.00    +0.000 A 
ATOM      2  C   UNL     1       2.083   8.863  17.938  0.00  0.00    +0.000 A 
ATOM      3  C   UNL     1       2.490   7.598  18.350  0.00  0.00    +0.000 A 
ATOM      4  C   UNL     1       2.208   7.145  19.640  0.00  0.00    +0.000 A 
ATOM      5  C   UNL     1       1.549   7.993  20.533  0.00  0.00    +0.000 A 
ATOM      6  C   UNL     1       1.144   9.267  20.126  0.00  0.00    +0.000 A 
ENDROOT
BRANCH   1   7
ATOM      7  C   UNL     1       0.750  10.970  18.295  0.00  0.00    +0.000 C 
BRANCH   7  10
ATOM      8  C   UNL     1      -2.941  11.875  18.588  0.00  0.00    +0.000 C 
ATOM      9  N   UNL     1      -1.495  12.002  18.729  0.00  0.00    +0.000 N 
ATOM     10  C   UNL     1      -0.778  10.876  18.324  0.00  0.00    +0.000 C 
ATOM     11  O   UNL     1      -1.365   9.841  17.997  0.00  0.00    +0.000 OA
BRANCH   9  12
ATOM     12  C   UNL     1      -0.893  13.323  18.987  0.00  0.00    +0.000 C 
BRANCH  12  13
ATOM     13  C   UNL     1      -0.309  13.484  20.397  0.00  0.00    +0.000 C 
BRANCH  13  14
ATOM     14  C   UNL     1      -1.203  12.933  21.477  0.00  0.00    +0.000 A 
ATOM     15  C   UNL     1      -0.837  11.770  22.170  0.00  0.00    +0.000 A 
ATOM     16  C   UNL     1      -1.638  11.280  23.200  0.00  0.00    +0.000 A 
ATOM     17  C   UNL     1      -2.817  11.942  23.541  0.00  0.00    +0.000 A 
ATOM     18  C   UNL     1      -3.195  13.093  22.851  0.00  0.00    +0.000 A 
ATOM     19  C   UNL     1      -2.393  13.587  21.821  0.00  0.00    +0.000 A 
ENDBRANCH  13  14
ENDBRANCH  12  13
ENDBRANCH   9  12
ENDBRANCH   7  10
ENDBRANCH   1   7
BRANCH   4  20
ATOM     20  O   UNL     1       2.519   5.890  20.108  0.00  0.00    +0.000 OA
BRANCH  20  21
ATOM     21  C   UNL     1       1.423   5.197  20.712  0.00  0.00    +0.000 C 
BRANCH  21  22
ATOM     22  C   UNL     1       1.892   3.938  21.419  0.00  0.00    +0.000 C 
BRANCH  22  23
ATOM     23  C   UNL     1       1.500   2.696  20.638  0.00  0.00    +0.000 C 
BRANCH  23  24
ATOM     24  O   UNL     1       2.696   2.055  20.193  0.00  0.00    +0.000 OA
BRANCH  24  25
ATOM     25  C   UNL     1       3.316   2.656  19.134  0.00  0.00    +0.000 A 
ATOM     26  C   UNL     1       4.571   3.199  19.402  0.00  0.00    +0.000 A 
ATOM     27  C   UNL     1       5.304   3.821  18.387  0.00  0.00    +0.000 A 
ATOM     28  C   UNL     1       4.804   3.879  17.080  0.00  0.00    +0.000 A 
ATOM     29  C   UNL     1       3.537   3.342  16.822  0.00  0.00    +0.000 A 
ATOM     30  C   UNL     1       2.803   2.727  17.838  0.00  0.00    +0.000 A 
BRANCH  28  31
ATOM     31  C   UNL     1       5.603   4.536  16.038  0.00  0.00    +0.000 C 
ATOM     32  C   UNL     1       6.115   3.903  14.970  0.00  0.00    +0.000 C 
BRANCH  32  33
ATOM     33  C   UNL     1       6.927   4.663  14.002  0.00  0.00    +0.000 C 
ATOM     34  O   UNL     1       7.663   5.590  14.289  0.00  0.00    +0.000 OA
BRANCH  33  35
ATOM     35  O   UNL     1       6.764   4.212  12.742  0.00  0.00    +0.000 OA
ATOM     36  H   UNL     1       5.859   4.243  12.398  0.00  0.00    +0.000 HD
ENDBRANCH  33  35
ENDBRANCH  32  33
ENDBRANCH  28  31
ENDBRANCH  24  25
ENDBRANCH  23  24
ENDBRANCH  22  23
ENDBRANCH  21  22
ENDBRANCH  20  21
ENDBRANCH   4  20
TORSDOF 14
ENDMDL
MODEL 3
REMARK VINA RESULT:      -7.6      0.933      1.308
REMARK  Name = 
REMARK  15 active torsions:
REMARK  status: ('A' for Active; 'I' for Inactive)
REMARK    1  A    between atoms: C_1  and  N_2
REMARK    2  A    between atoms: N_2  and  C_3
REMARK    3  A    between atoms: C_3  and  C_4
REMARK    4  A    between atoms: C_4  and  C_5
REMARK    5  A    between atoms: C_11  and  C_13
REMARK    6  A    between atoms: C_13  and  C_14
REMARK    7  A    between atoms: C_17  and  O_18
REMARK    8  A    between atoms: O_18  and  C_19
REMARK    9  A    between atoms: C_19  and  C_20
REMARK   10  A    between atoms: C_20  and  C_21
REMARK   11  A    between atoms: C_21  and  O_22
REMARK   12  A    between atoms: O_22  and  C_23
REMARK   13  A    between atoms: C_26  and  C_27
REMARK   14  A    between atoms: C_28  and  C_29
REMARK   15  A    between atoms: C_29  and  O_31
REMARK                            x       y       z     vdW  Elec       q    Type
REMARK                         _______ _______ _______ _____ _____    ______ ____
ROOT
ATOM      1  C   UNL     1       1.000   9.300  19.882  0.00  0.00    +0.000 A 
ATOM      2  C   UNL     1       1.217   9.389  18.503  0.00  0.00    +0.000 A 
ATOM      3  C   UNL     1       1.923   8.391  17.840  0.00  0.00    +0.000 A 
ATOM      4  C   UNL     1       2.424   7.289  18.536  0.00  0.00    +0.000 A 
ATOM      5  C   UNL     1       2.246   7.218  19.919  0.00  0.00    +0.000 A 
ATOM      6  C   UNL     1       1.543   8.220  20.592  0.00  0.00    +0.000 A 
ENDROOT
BRANCH   1   7
ATOM      7  C   UNL     1       0.043  10.259  20.555  0.00  0.00    +0.000 C 
BRANCH   7  10
ATOM      8  C   UNL     1      -0.680  13.837  19.458  0.00  0.00    +0.000 C 
ATOM      9  N   UNL     1      -0.940  12.454  19.840  0.00  0.00    +0.000 N 
ATOM     10  C   UNL     1       0.209  11.681  20.010  0.00  0.00    +0.000 C 
ATOM     11  O   UNL     1       1.322  12.137  19.731  0.00  0.00    +0.000 OA
BRANCH   9  12
ATOM     12  C   UNL     1      -2.285  12.053  20.289  0.00  0.00    +0.000 C 
BRANCH  12  13
ATOM     13  C   UNL     1      -3.391  12.291  19.252  0.00  0.00    +0.000 C 
BRANCH  13  14
ATOM     14  C   UNL     1      -3.262  11.414  18.033  0.00  0.00    +0.000 A 
ATOM     15  C   UNL     1      -4.063  11.652  16.907  0.00  0.00    +0.000 A 
ATOM     16  C   UNL     1      -3.918  10.872  15.761  0.00  0.00    +0.000 A 
ATOM     17  C   UNL     1      -2.978   9.843  15.733  0.00  0.00    +0.000 A 
ATOM     18  C   UNL     1      -2.184   9.592  16.851  0.00  0.00    +0.000 A 
ATOM     19  C   UNL     1      -2.327  10.373  18.000  0.00  0.00    +0.000 A 
ENDBRANCH  13  14
ENDBRANCH  12  13
ENDBRANCH   9  12
ENDBRANCH   7  10
ENDBRANCH   1   7
BRANCH   4  20
ATOM     20  O   UNL     1       3.079   6.231  17.949  0.00  0.00    +0.000 OA
BRANCH  20  21
ATOM     21  C   UNL     1       2.619   4.944  18.374  0.00  0.00    +0.000 C 
BRANCH  21  22
ATOM     22  C   UNL     1       3.262   3.836  17.561  0.00  0.00    +0.000 C 
BRANCH  22  23
ATOM     23  C   UNL     1       4.525   4.325  16.874  0.00  0.00    +0.000 C 
BRANCH  23  24
ATOM     24  O   UNL     1       5.600   4.247  17.811  0.00  0.00    +0.000 OA
BRANCH  24  25
ATOM     25  C   UNL     1       6.376   5.369  17.898  0.00  0.00    +0.000 A 
ATOM     26  C   UNL     1       6.045   6.397  17.018  0.00  0.00    +0.000 A 
ATOM     27  C   UNL     1       6.760   7.598  17.033  0.00  0.00    +0.000 A 
ATOM     28  C   UNL     1       7.797   7.799  17.953  0.00  0.00    +0.000 A 
ATOM     29  C   UNL     1       8.131   6.757  18.826  0.00  0.00    +0.000 A 
ATOM     30  C   UNL     1       7.420   5.554  18.805  0.00  0.00    +0.000 A 
BRANCH  28  31
ATOM     31  C   UNL     1       8.523   9.075  17.943  0.00  0.00    +0.000 C 
ATOM     32  C   UNL     1       8.968   9.697  19.047  0.00  0.00    +0.000 C 
BRANCH  32  33
ATOM     33  C   UNL     1       9.662  10.992  18.916  0.00  0.00    +0.000 C 
ATOM     34  O   UNL     1      10.518  11.401  19.679  0.00  0.00    +0.000 OA
BRANCH  33  35
ATOM     35  O   UNL     1       9.238  11.685  17.840  0.00  0.00    +0.000 OA
ATOM     36  H   UNL     1       9.507  12.615  17.806  0.00  0.00    +0.000 HD
ENDBRANCH  33  35
ENDBRANCH  32  33
ENDBRANCH  28  31
ENDBRANCH  24  25
ENDBRANCH  23  24
ENDBRANCH  22  23
ENDBRANCH  21  22
ENDBRANCH  20  21
ENDBRANCH   4  20
TORSDOF 14
ENDMDL
MODEL 4
REMARK VINA RESULT:      -7.5      3.939     10.726
REMARK  Name = 
REMARK  15 active torsions:
REMARK  status: ('A' for Active; 'I' for Inactive)
REMARK    1  A    between atoms: C_1  and  N_2
REMARK    2  A    between atoms: N_2  and  C_3
REMARK    3  A    between atoms: C_3  and  C_4
REMARK    4  A    between atoms: C_4  and  C_5
REMARK    5  A    between atoms: C_11  and  C_13
REMARK    6  A    between atoms: C_13  and  C_14
REMARK    7  A    between atoms: C_17  and  O_18
REMARK    8  A    between atoms: O_18  and  C_19
REMARK    9  A    between atoms: C_19  and  C_20
REMARK   10  A    between atoms: C_20  and  C_21
REMARK   11  A    between atoms: C_21  and  O_22
REMARK   12  A    between atoms: O_22  and  C_23
REMARK   13  A    between atoms: C_26  and  C_27
REMARK   14  A    between atoms: C_28  and  C_29
REMARK   15  A    between atoms: C_29  and  O_31
REMARK                            x       y       z     vdW  Elec       q    Type
REMARK                         _______ _______ _______ _____ _____    ______ ____
ROOT
ATOM      1  C   UNL     1       4.350   6.048  18.580  0.00  0.00    +0.000 A 
ATOM      2  C   UNL     1       4.305   7.016  17.572  0.00  0.00    +0.000 A 
ATOM      3  C   UNL     1       3.296   7.972  17.564  0.00  0.00    +0.000 A 
ATOM      4  C   UNL     1       2.316   7.983  18.560  0.00  0.00    +0.000 A 
ATOM      5  C   UNL     1       2.333   6.993  19.544  0.00  0.00    +0.000 A 
ATOM      6  C   UNL     1       3.342   6.026  19.554  0.00  0.00    +0.000 A 
ENDROOT
BRANCH   1   7
ATOM      7  C   UNL     1       5.568   5.161  18.716  0.00  0.00    +0.000 C 
BRANCH   7  10
ATOM      8  C   UNL     1       5.883   3.715  15.203  0.00  0.00    +0.000 C 
ATOM      9  N   UNL     1       5.353   3.920  16.546  0.00  0.00    +0.000 N 
ATOM     10  C   UNL     1       6.122   4.767  17.344  0.00  0.00    +0.000 C 
ATOM     11  O   UNL     1       7.214   5.185  16.947  0.00  0.00    +0.000 OA
BRANCH   9  12
ATOM     12  C   UNL     1       3.977   3.499  16.867  0.00  0.00    +0.000 C 
BRANCH  12  13
ATOM     13  C   UNL     1       3.893   2.305  17.827  0.00  0.00    +0.000 C 
BRANCH  13  14
ATOM     14  C   UNL     1       2.938   2.528  18.971  0.00  0.00    +0.000 A 
ATOM     15  C   UNL     1       3.399   2.471  20.295  0.00  0.00    +0.000 A 
ATOM     16  C   UNL     1       2.530   2.719  21.356  0.00  0.00    +0.000 A 
ATOM     17  C   UNL     1       1.192   3.018  21.105  0.00  0.00    +0.000 A 
ATOM     18  C   UNL     1       0.722   3.068  19.794  0.00  0.00    +0.000 A 
ATOM     19  C   UNL     1       1.590   2.821  18.729  0.00  0.00    +0.000 A 
ENDBRANCH  13  14
ENDBRANCH  12  13
ENDBRANCH   9  12
ENDBRANCH   7  10
ENDBRANCH   1   7
BRANCH   4  20
ATOM     20  O   UNL     1       1.321   8.927  18.660  0.00  0.00    +0.000 OA
BRANCH  20  21
ATOM     21  C   UNL     1       1.701  10.234  18.218  0.00  0.00    +0.000 C 
BRANCH  21  22
ATOM     22  C   UNL     1       1.074  11.310  19.085  0.00  0.00    +0.000 C 
BRANCH  22  23
ATOM     23  C   UNL     1       0.957  10.850  20.528  0.00  0.00    +0.000 C 
BRANCH  23  24
ATOM     24  O   UNL     1       0.835  12.007  21.355  0.00  0.00    +0.000 OA
BRANCH  24  25
ATOM     25  C   UNL     1      -0.433  12.276  21.791  0.00  0.00    +0.000 A 
ATOM     26  C   UNL     1      -0.948  11.382  22.728  0.00  0.00    +0.000 A 
ATOM     27  C   UNL     1      -2.228  11.571  23.256  0.00  0.00    +0.000 A 
ATOM     28  C   UNL     1      -2.998  12.679  22.879  0.00  0.00    +0.000 A 
ATOM     29  C   UNL     1      -2.478  13.565  21.929  0.00  0.00    +0.000 A 
ATOM     30  C   UNL     1      -1.202  13.371  21.396  0.00  0.00    +0.000 A 
BRANCH  28  31
ATOM     31  C   UNL     1      -4.336  12.848  23.458  0.00  0.00    +0.000 C 
ATOM     32  C   UNL     1      -5.137  13.897  23.210  0.00  0.00    +0.000 C 
BRANCH  32  33
ATOM     33  C   UNL     1      -6.453  13.973  23.873  0.00  0.00    +0.000 C 
ATOM     34  O   UNL     1      -7.066  13.017  24.313  0.00  0.00    +0.000 OA
BRANCH  33  35
ATOM     35  O   UNL     1      -6.912  15.239  23.940  0.00  0.00    +0.000 OA
ATOM     36  H   UNL     1      -7.373  15.562  23.152  0.00  0.00    +0.000 HD
ENDBRANCH  33  35
ENDBRANCH  32  33
ENDBRANCH  28  31
ENDBRANCH  24  25
ENDBRANCH  23  24
ENDBRANCH  22  23
ENDBRANCH  21  22
ENDBRANCH  20  21
ENDBRANCH   4  20
TORSDOF 14
ENDMDL
MODEL 5
REMARK VINA RESULT:      -7.3      3.734     10.473
REMARK  Name = 
REMARK  15 active torsions:
REMARK  status: ('A' for Active; 'I' for Inactive)
REMARK    1  A    between atoms: C_1  and  N_2
REMARK    2  A    between atoms: N_2  and  C_3
REMARK    3  A    between atoms: C_3  and  C_4
REMARK    4  A    between atoms: C_4  and  C_5
REMARK    5  A    between atoms: C_11  and  C_13
REMARK    6  A    between atoms: C_13  and  C_14
REMARK    7  A    between atoms: C_17  and  O_18
REMARK    8  A    between atoms: O_18  and  C_19
REMARK    9  A    between atoms: C_19  and  C_20
REMARK   10  A    between atoms: C_20  and  C_21
REMARK   11  A    between atoms: C_21  and  O_22
REMARK   12  A    between atoms: O_22  and  C_23
REMARK   13  A    between atoms: C_26  and  C_27
REMARK   14  A    between atoms: C_28  and  C_29
REMARK   15  A    between atoms: C_29  and  O_31
REMARK                            x       y       z     vdW  Elec       q    Type
REMARK                         _______ _______ _______ _____ _____    ______ ____
ROOT
ATOM      1  C   UNL     1       2.355   6.817  20.003  0.00  0.00    +0.000 A 
ATOM      2  C   UNL     1       1.968   7.315  21.251  0.00  0.00    +0.000 A 
ATOM      3  C   UNL     1       1.292   8.527  21.343  0.00  0.00    +0.000 A 
ATOM      4  C   UNL     1       0.988   9.262  20.195  0.00  0.00    +0.000 A 
ATOM      5  C   UNL     1       1.408   8.788  18.951  0.00  0.00    +0.000 A 
ATOM      6  C   UNL     1       2.093   7.574  18.853  0.00  0.00    +0.000 A 
ENDROOT
BRANCH   1   7
ATOM      7  C   UNL     1       2.879   5.402  19.889  0.00  0.00    +0.000 C 
BRANCH   7  10
ATOM      8  C   UNL     1       0.892   2.365  18.725  0.00  0.00    +0.000 C 
ATOM      9  N   UNL     1       1.973   3.342  18.781  0.00  0.00    +0.000 N 
ATOM     10  C   UNL     1       1.740   4.407  19.651  0.00  0.00    +0.000 C 
ATOM     11  O   UNL     1       0.647   4.534  20.211  0.00  0.00    +0.000 OA
BRANCH   9  12
ATOM     12  C   UNL     1       3.286   3.022  18.192  0.00  0.00    +0.000 C 
BRANCH  12  13
ATOM     13  C   UNL     1       3.449   3.474  16.734  0.00  0.00    +0.000 C 
BRANCH  13  14
ATOM     14  C   UNL     1       4.661   4.342  16.513  0.00  0.00    +0.000 A 
ATOM     15  C   UNL     1       4.868   5.478  17.308  0.00  0.00    +0.000 A 
ATOM     16  C   UNL     1       6.009   6.261  17.137  0.00  0.00    +0.000 A 
ATOM     17  C   UNL     1       6.947   5.920  16.164  0.00  0.00    +0.000 A 
ATOM     18  C   UNL     1       6.745   4.799  15.361  0.00  0.00    +0.000 A 
ATOM     19  C   UNL     1       5.604   4.013  15.532  0.00  0.00    +0.000 A 
ENDBRANCH  13  14
ENDBRANCH  12  13
ENDBRANCH   9  12
ENDBRANCH   7  10
ENDBRANCH   1   7
BRANCH   4  20
ATOM     20  O   UNL     1       0.271  10.436  20.192  0.00  0.00    +0.000 OA
BRANCH  20  21
ATOM     21  C   UNL     1      -0.219  10.832  21.477  0.00  0.00    +0.000 C 
BRANCH  21  22
ATOM     22  C   UNL     1      -0.764  12.248  21.444  0.00  0.00    +0.000 C 
BRANCH  22  23
ATOM     23  C   UNL     1      -1.156  12.649  20.033  0.00  0.00    +0.000 C 
BRANCH  23  24
ATOM     24  O   UNL     1      -2.536  12.329  19.847  0.00  0.00    +0.000 OA
BRANCH  24  25
ATOM     25  C   UNL     1      -2.850  11.810  18.622  0.00  0.00    +0.000 A 
ATOM     26  C   UNL     1      -4.212  11.696  18.351  0.00  0.00    +0.000 A 
ATOM     27  C   UNL     1      -4.648  11.196  17.119  0.00  0.00    +0.000 A 
ATOM     28  C   UNL     1      -3.725  10.834  16.130  0.00  0.00    +0.000 A 
ATOM     29  C   UNL     1      -2.359  10.940  16.416  0.00  0.00    +0.000 A 
ATOM     30  C   UNL     1      -1.924  11.433  17.649  0.00  0.00    +0.000 A 
BRANCH  28  31
ATOM     31  C   UNL     1      -4.219  10.318  14.848  0.00  0.00    +0.000 C 
ATOM     32  C   UNL     1      -3.453  10.152  13.757  0.00  0.00    +0.000 C 
BRANCH  32  33
ATOM     33  C   UNL     1      -4.067   9.650  12.514  0.00  0.00    +0.000 C 
ATOM     34  O   UNL     1      -3.467   9.456  11.471  0.00  0.00    +0.000 OA
BRANCH  33  35
ATOM     35  O   UNL     1      -5.389   9.426  12.658  0.00  0.00    +0.000 OA
ATOM     36  H   UNL     1      -5.702   8.556  12.368  0.00  0.00    +0.000 HD
ENDBRANCH  33  35
ENDBRANCH  32  33
ENDBRANCH  28  31
ENDBRANCH  24  25
ENDBRANCH  23  24
ENDBRANCH  22  23
ENDBRANCH  21  22
ENDBRANCH  20  21
ENDBRANCH   4  20
TORSDOF 14
ENDMDL
MODEL 6
REMARK VINA RESULT:      -7.3      3.985     10.772
REMARK  Name = 
REMARK  15 active torsions:
REMARK  status: ('A' for Active; 'I' for Inactive)
REMARK    1  A    between atoms: C_1  and  N_2
REMARK    2  A    between atoms: N_2  and  C_3
REMARK    3  A    between atoms: C_3  and  C_4
REMARK    4  A    between atoms: C_4  and  C_5
REMARK    5  A    between atoms: C_11  and  C_13
REMARK    6  A    between atoms: C_13  and  C_14
REMARK    7  A    between atoms: C_17  and  O_18
REMARK    8  A    between atoms: O_18  and  C_19
REMARK    9  A    between atoms: C_19  and  C_20
REMARK   10  A    between atoms: C_20  and  C_21
REMARK   11  A    between atoms: C_21  and  O_22
REMARK   12  A    between atoms: O_22  and  C_23
REMARK   13  A    between atoms: C_26  and  C_27
REMARK   14  A    between atoms: C_28  and  C_29
REMARK   15  A    between atoms: C_29  and  O_31
REMARK                            x       y       z     vdW  Elec       q    Type
REMARK                         _______ _______ _______ _____ _____    ______ ____
ROOT
ATOM      1  C   UNL     1       3.078   6.025  19.199  0.00  0.00    +0.000 A 
ATOM      2  C   UNL     1       2.491   6.246  20.449  0.00  0.00    +0.000 A 
ATOM      3  C   UNL     1       1.781   7.417  20.692  0.00  0.00    +0.000 A 
ATOM      4  C   UNL     1       1.642   8.385  19.696  0.00  0.00    +0.000 A 
ATOM      5  C   UNL     1       2.261   8.188  18.461  0.00  0.00    +0.000 A 
ATOM      6  C   UNL     1       2.981   7.016  18.213  0.00  0.00    +0.000 A 
ENDROOT
BRANCH   1   7
ATOM      7  C   UNL     1       3.646   4.663  18.866  0.00  0.00    +0.000 C 
BRANCH   7  10
ATOM      8  C   UNL     1       7.266   4.508  17.684  0.00  0.00    +0.000 C 
ATOM      9  N   UNL     1       5.822   4.312  17.667  0.00  0.00    +0.000 N 
ATOM     10  C   UNL     1       5.177   4.692  18.844  0.00  0.00    +0.000 C 
ATOM     11  O   UNL     1       5.828   5.044  19.833  0.00  0.00    +0.000 OA
BRANCH   9  12
ATOM     12  C   UNL     1       5.131   4.029  16.395  0.00  0.00    +0.000 C 
BRANCH  12  13
ATOM     13  C   UNL     1       5.289   5.128  15.336  0.00  0.00    +0.000 C 
BRANCH  13  14
ATOM     14  C   UNL     1       5.896   4.630  14.049  0.00  0.00    +0.000 A 
ATOM     15  C   UNL     1       7.156   5.092  13.640  0.00  0.00    +0.000 A 
ATOM     16  C   UNL     1       7.742   4.603  12.474  0.00  0.00    +0.000 A 
ATOM     17  C   UNL     1       7.071   3.656  11.701  0.00  0.00    +0.000 A 
ATOM     18  C   UNL     1       5.814   3.198  12.094  0.00  0.00    +0.000 A 
ATOM     19  C   UNL     1       5.226   3.685  13.263  0.00  0.00    +0.000 A 
ENDBRANCH  13  14
ENDBRANCH  12  13
ENDBRANCH   9  12
ENDBRANCH   7  10
ENDBRANCH   1   7
BRANCH   4  20
ATOM     20  O   UNL     1       0.907   9.541  19.834  0.00  0.00    +0.000 OA
BRANCH  20  21
ATOM     21  C   UNL     1       0.775   9.998  21.183  0.00  0.00    +0.000 C 
BRANCH  21  22
ATOM     22  C   UNL     1       0.260  11.425  21.230  0.00  0.00    +0.000 C 
BRANCH  22  23
ATOM     23  C   UNL     1      -0.281  11.855  19.878  0.00  0.00    +0.000 C 
BRANCH  23  24
ATOM     24  O   UNL     1      -1.677  11.556  19.842  0.00  0.00    +0.000 OA
BRANCH  24  25
ATOM     25  C   UNL     1      -2.164  11.211  18.612  0.00  0.00    +0.000 A 
ATOM     26  C   UNL     1      -3.141  10.218  18.610  0.00  0.00    +0.000 A 
ATOM     27  C   UNL     1      -3.723   9.801  17.409  0.00  0.00    +0.000 A 
ATOM     28  C   UNL     1      -3.357  10.397  16.196  0.00  0.00    +0.000 A 
ATOM     29  C   UNL     1      -2.367  11.386  16.205  0.00  0.00    +0.000 A 
ATOM     30  C   UNL     1      -1.781  11.797  17.405  0.00  0.00    +0.000 A 
BRANCH  28  31
ATOM     31  C   UNL     1      -3.993   9.938  14.955  0.00  0.00    +0.000 C 
ATOM     32  C   UNL     1      -3.478  10.127  13.729  0.00  0.00    +0.000 C 
BRANCH  32  33
ATOM     33  C   UNL     1      -4.222   9.644  12.551  0.00  0.00    +0.000 C 
ATOM     34  O   UNL     1      -3.747   9.507  11.437  0.00  0.00    +0.000 OA
BRANCH  33  35
ATOM     35  O   UNL     1      -5.507   9.365  12.845  0.00  0.00    +0.000 OA
ATOM     36  H   UNL     1      -5.971  10.029  13.376  0.00  0.00    +0.000 HD
ENDBRANCH  33  35
ENDBRANCH  32  33
ENDBRANCH  28  31
ENDBRANCH  24  25
ENDBRANCH  23  24
ENDBRANCH  22  23
ENDBRANCH  21  22
ENDBRANCH  20  21
ENDBRANCH   4  20
TORSDOF 14
ENDMDL
MODEL 7
REMARK VINA RESULT:      -7.3      3.387      4.859
REMARK  Name = 
REMARK  15 active torsions:
REMARK  status: ('A' for Active; 'I' for Inactive)
REMARK    1  A    between atoms: C_1  and  N_2
REMARK    2  A    between atoms: N_2  and  C_3
REMARK    3  A    between atoms: C_3  and  C_4
REMARK    4  A    between atoms: C_4  and  C_5
REMARK    5  A    between atoms: C_11  and  C_13
REMARK    6  A    between atoms: C_13  and  C_14
REMARK    7  A    between atoms: C_17  and  O_18
REMARK    8  A    between atoms: O_18  and  C_19
REMARK    9  A    between atoms: C_19  and  C_20
REMARK   10  A    between atoms: C_20  and  C_21
REMARK   11  A    between atoms: C_21  and  O_22
REMARK   12  A    between atoms: O_22  and  C_23
REMARK   13  A    between atoms: C_26  and  C_27
REMARK   14  A    between atoms: C_28  and  C_29
REMARK   15  A    between atoms: C_29  and  O_31
REMARK                            x       y       z     vdW  Elec       q    Type
REMARK                         _______ _______ _______ _____ _____    ______ ____
ROOT
ATOM      1  C   UNL     1       1.362   9.614  18.982  0.00  0.00    +0.000 A 
ATOM      2  C   UNL     1       2.086   8.830  18.079  0.00  0.00    +0.000 A 
ATOM      3  C   UNL     1       2.528   7.564  18.447  0.00  0.00    +0.000 A 
ATOM      4  C   UNL     1       2.256   7.057  19.719  0.00  0.00    +0.000 A 
ATOM      5  C   UNL     1       1.570   7.852  20.639  0.00  0.00    +0.000 A 
ATOM      6  C   UNL     1       1.128   9.127  20.276  0.00  0.00    +0.000 A 
ENDROOT
BRANCH   1   7
ATOM      7  C   UNL     1       0.690  10.883  18.506  0.00  0.00    +0.000 C 
BRANCH   7  10
ATOM      8  C   UNL     1      -3.113  11.106  18.612  0.00  0.00    +0.000 C 
ATOM      9  N   UNL     1      -1.730  11.263  19.046  0.00  0.00    +0.000 N 
ATOM     10  C   UNL     1      -0.794  10.647  18.214  0.00  0.00    +0.000 C 
ATOM     11  O   UNL     1      -1.161   9.939  17.272  0.00  0.00    +0.000 OA
BRANCH   9  12
ATOM     12  C   UNL     1      -1.393  12.245  20.093  0.00  0.00    +0.000 C 
BRANCH  12  13
ATOM     13  C   UNL     1      -2.472  13.310  20.327  0.00  0.00    +0.000 C 
BRANCH  13  14
ATOM     14  C   UNL     1      -3.284  13.071  21.574  0.00  0.00    +0.000 A 
ATOM     15  C   UNL     1      -2.647  12.698  22.767  0.00  0.00    +0.000 A 
ATOM     16  C   UNL     1      -3.388  12.517  23.934  0.00  0.00    +0.000 A 
ATOM     17  C   UNL     1      -4.770  12.698  23.918  0.00  0.00    +0.000 A 
ATOM     18  C   UNL     1      -5.413  13.058  22.734  0.00  0.00    +0.000 A 
ATOM     19  C   UNL     1      -4.673  13.241  21.565  0.00  0.00    +0.000 A 
ENDBRANCH  13  14
ENDBRANCH  12  13
ENDBRANCH   9  12
ENDBRANCH   7  10
ENDBRANCH   1   7
BRANCH   4  20
ATOM     20  O   UNL     1       2.603   5.794  20.143  0.00  0.00    +0.000 OA
BRANCH  20  21
ATOM     21  C   UNL     1       1.559   5.094  20.826  0.00  0.00    +0.000 C 
BRANCH  21  22
ATOM     22  C   UNL     1       1.936   3.643  21.064  0.00  0.00    +0.000 C 
BRANCH  22  23
ATOM     23  C   UNL     1       2.544   3.026  19.817  0.00  0.00    +0.000 C 
BRANCH  23  24
ATOM     24  O   UNL     1       3.964   3.012  19.975  0.00  0.00    +0.000 OA
BRANCH  24  25
ATOM     25  C   UNL     1       4.670   3.480  18.902  0.00  0.00    +0.000 A 
ATOM     26  C   UNL     1       4.215   3.058  17.654  0.00  0.00    +0.000 A 
ATOM     27  C   UNL     1       4.851   3.491  16.487  0.00  0.00    +0.000 A 
ATOM     28  C   UNL     1       5.932   4.380  16.551  0.00  0.00    +0.000 A 
ATOM     29  C   UNL     1       6.389   4.790  17.809  0.00  0.00    +0.000 A 
ATOM     30  C   UNL     1       5.758   4.351  18.975  0.00  0.00    +0.000 A 
BRANCH  28  31
ATOM     31  C   UNL     1       6.572   4.817  15.305  0.00  0.00    +0.000 C 
ATOM     32  C   UNL     1       6.497   4.146  14.144  0.00  0.00    +0.000 C 
BRANCH  32  33
ATOM     33  C   UNL     1       7.206   4.669  12.961  0.00  0.00    +0.000 C 
ATOM     34  O   UNL     1       7.149   4.182  11.845  0.00  0.00    +0.000 OA
BRANCH  33  35
ATOM     35  O   UNL     1       7.937   5.764  13.253  0.00  0.00    +0.000 OA
ATOM     36  H   UNL     1       8.781   5.844  12.784  0.00  0.00    +0.000 HD
ENDBRANCH  33  35
ENDBRANCH  32  33
ENDBRANCH  28  31
ENDBRANCH  24  25
ENDBRANCH  23  24
ENDBRANCH  22  23
ENDBRANCH  21  22
ENDBRANCH  20  21
ENDBRANCH   4  20
TORSDOF 14
ENDMDL
MODEL 8
REMARK VINA RESULT:      -7.2      3.762     10.637
REMARK  Name = 
REMARK  15 active torsions:
REMARK  status: ('A' for Active; 'I' for Inactive)
REMARK    1  A    between atoms: C_1  and  N_2
REMARK    2  A    between atoms: N_2  and  C_3
REMARK    3  A    between atoms: C_3  and  C_4
REMARK    4  A    between atoms: C_4  and  C_5
REMARK    5  A    between atoms: C_11  and  C_13
REMARK    6  A    between atoms: C_13  and  C_14
REMARK    7  A    between atoms: C_17  and  O_18
REMARK    8  A    between atoms: O_18  and  C_19
REMARK    9  A    between atoms: C_19  and  C_20
REMARK   10  A    between atoms: C_20  and  C_21
REMARK   11  A    between atoms: C_21  and  O_22
REMARK   12  A    between atoms: O_22  and  C_23
REMARK   13  A    between atoms: C_26  and  C_27
REMARK   14  A    between atoms: C_28  and  C_29
REMARK   15  A    between atoms: C_29  and  O_31
REMARK                            x       y       z     vdW  Elec       q    Type
REMARK                         _______ _______ _______ _____ _____    ______ ____
ROOT
ATOM      1  C   UNL     1       2.230   7.704  18.992  0.00  0.00    +0.000 A 
ATOM      2  C   UNL     1       1.760   8.183  20.219  0.00  0.00    +0.000 A 
ATOM      3  C   UNL     1       0.794   9.184  20.257  0.00  0.00    +0.000 A 
ATOM      4  C   UNL     1       0.281   9.723  19.075  0.00  0.00    +0.000 A 
ATOM      5  C   UNL     1       0.779   9.278  17.849  0.00  0.00    +0.000 A 
ATOM      6  C   UNL     1       1.753   8.277  17.805  0.00  0.00    +0.000 A 
ENDROOT
BRANCH   1   7
ATOM      7  C   UNL     1       3.101   6.468  18.952  0.00  0.00    +0.000 C 
BRANCH   7  10
ATOM      8  C   UNL     1       5.210   5.667  15.880  0.00  0.00    +0.000 C 
ATOM      9  N   UNL     1       4.311   5.446  17.007  0.00  0.00    +0.000 N 
ATOM     10  C   UNL     1       4.140   6.558  17.831  0.00  0.00    +0.000 C 
ATOM     11  O   UNL     1       4.807   7.581  17.653  0.00  0.00    +0.000 OA
BRANCH   9  12
ATOM     12  C   UNL     1       3.457   4.245  17.043  0.00  0.00    +0.000 C 
BRANCH  12  13
ATOM     13  C   UNL     1       3.916   3.176  18.044  0.00  0.00    +0.000 C 
BRANCH  13  14
ATOM     14  C   UNL     1       2.993   3.033  19.227  0.00  0.00    +0.000 A 
ATOM     15  C   UNL     1       3.487   2.560  20.451  0.00  0.00    +0.000 A 
ATOM     16  C   UNL     1       2.648   2.467  21.561  0.00  0.00    +0.000 A 
ATOM     17  C   UNL     1       1.309   2.836  21.455  0.00  0.00    +0.000 A 
ATOM     18  C   UNL     1       0.806   3.298  20.239  0.00  0.00    +0.000 A 
ATOM     19  C   UNL     1       1.644   3.393  19.127  0.00  0.00    +0.000 A 
ENDBRANCH  13  14
ENDBRANCH  12  13
ENDBRANCH   9  12
ENDBRANCH   7  10
ENDBRANCH   1   7
BRANCH   4  20
ATOM     20  O   UNL     1      -0.716  10.670  19.022  0.00  0.00    +0.000 OA
BRANCH  20  21
ATOM     21  C   UNL     1      -0.256  11.996  18.741  0.00  0.00    +0.000 C 
BRANCH  21  22
ATOM     22  C   UNL     1       1.017  12.309  19.507  0.00  0.00    +0.000 C 
BRANCH  22  23
ATOM     23  C   UNL     1       0.869  13.589  20.311  0.00  0.00    +0.000 C 
BRANCH  23  24
ATOM     24  O   UNL     1       0.901  13.248  21.698  0.00  0.00    +0.000 OA
BRANCH  24  25
ATOM     25  C   UNL     1      -0.317  12.983  22.258  0.00  0.00    +0.000 A 
ATOM     26  C   UNL     1      -1.174  14.076  22.376  0.00  0.00    +0.000 A 
ATOM     27  C   UNL     1      -2.453  13.916  22.917  0.00  0.00    +0.000 A 
ATOM     28  C   UNL     1      -2.905  12.652  23.316  0.00  0.00    +0.000 A 
ATOM     29  C   UNL     1      -2.034  11.562  23.205  0.00  0.00    +0.000 A 
ATOM     30  C   UNL     1      -0.753  11.724  22.671  0.00  0.00    +0.000 A 
BRANCH  28  31
ATOM     31  C   UNL     1      -4.256  12.521  23.875  0.00  0.00    +0.000 C 
ATOM     32  C   UNL     1      -5.373  12.923  23.247  0.00  0.00    +0.000 C 
BRANCH  32  33
ATOM     33  C   UNL     1      -6.676  12.765  23.920  0.00  0.00    +0.000 C 
ATOM     34  O   UNL     1      -7.369  11.764  23.866  0.00  0.00    +0.000 OA
BRANCH  33  35
ATOM     35  O   UNL     1      -7.023  13.867  24.613  0.00  0.00    +0.000 OA
ATOM     36  H   UNL     1      -7.951  13.918  24.887  0.00  0.00    +0.000 HD
ENDBRANCH  33  35
ENDBRANCH  32  33
ENDBRANCH  28  31
ENDBRANCH  24  25
ENDBRANCH  23  24
ENDBRANCH  22  23
ENDBRANCH  21  22
ENDBRANCH  20  21
ENDBRANCH   4  20
TORSDOF 14
ENDMDL
MODEL 9
REMARK VINA RESULT:      -7.2      3.456      8.022
REMARK  Name = 
REMARK  15 active torsions:
REMARK  status: ('A' for Active; 'I' for Inactive)
REMARK    1  A    between atoms: C_1  and  N_2
REMARK    2  A    between atoms: N_2  and  C_3
REMARK    3  A    between atoms: C_3  and  C_4
REMARK    4  A    between atoms: C_4  and  C_5
REMARK    5  A    between atoms: C_11  and  C_13
REMARK    6  A    between atoms: C_13  and  C_14
REMARK    7  A    between atoms: C_17  and  O_18
REMARK    8  A    between atoms: O_18  and  C_19
REMARK    9  A    between atoms: C_19  and  C_20
REMARK   10  A    between atoms: C_20  and  C_21
REMARK   11  A    between atoms: C_21  and  O_22
REMARK   12  A    between atoms: O_22  and  C_23
REMARK   13  A    between atoms: C_26  and  C_27
REMARK   14  A    between atoms: C_28  and  C_29
REMARK   15  A    between atoms: C_29  and  O_31
REMARK                            x       y       z     vdW  Elec       q    Type
REMARK                         _______ _______ _______ _____ _____    ______ ____
ROOT
ATOM      1  C   UNL     1       2.582   7.211  18.382  0.00  0.00    +0.000 A 
ATOM      2  C   UNL     1       2.216   7.137  19.729  0.00  0.00    +0.000 A 
ATOM      3  C   UNL     1       1.573   8.208  20.341  0.00  0.00    +0.000 A 
ATOM      4  C   UNL     1       1.284   9.370  19.622  0.00  0.00    +0.000 A 
ATOM      5  C   UNL     1       1.685   9.465  18.288  0.00  0.00    +0.000 A 
ATOM      6  C   UNL     1       2.336   8.394  17.670  0.00  0.00    +0.000 A 
ENDROOT
BRANCH   1   7
ATOM      7  C   UNL     1       3.067   5.970  17.665  0.00  0.00    +0.000 C 
BRANCH   7  10
ATOM      8  C   UNL     1       6.868   5.702  17.649  0.00  0.00    +0.000 C 
ATOM      9  N   UNL     1       5.506   5.677  18.169  0.00  0.00    +0.000 N 
ATOM     10  C   UNL     1       4.537   6.103  17.261  0.00  0.00    +0.000 C 
ATOM     11  O   UNL     1       4.864   6.569  16.165  0.00  0.00    +0.000 OA
BRANCH   9  12
ATOM     12  C   UNL     1       5.212   4.968  19.428  0.00  0.00    +0.000 C 
BRANCH  12  13
ATOM     13  C   UNL     1       4.823   3.495  19.244  0.00  0.00    +0.000 C 
BRANCH  13  14
ATOM     14  C   UNL     1       3.354   3.236  19.459  0.00  0.00    +0.000 A 
ATOM     15  C   UNL     1       2.712   3.734  20.603  0.00  0.00    +0.000 A 
ATOM     16  C   UNL     1       1.344   3.535  20.786  0.00  0.00    +0.000 A 
ATOM     17  C   UNL     1       0.609   2.831  19.834  0.00  0.00    +0.000 A 
ATOM     18  C   UNL     1       1.240   2.324  18.699  0.00  0.00    +0.000 A 
ATOM     19  C   UNL     1       2.609   2.523  18.513  0.00  0.00    +0.000 A 
ENDBRANCH  13  14
ENDBRANCH  12  13
ENDBRANCH   9  12
ENDBRANCH   7  10
ENDBRANCH   1   7
BRANCH   4  20
ATOM     20  O   UNL     1       0.600  10.449  20.133  0.00  0.00    +0.000 OA
BRANCH  20  21
ATOM     21  C   UNL     1       0.488  11.555  19.232  0.00  0.00    +0.000 C 
BRANCH  21  22
ATOM     22  C   UNL     1       1.289  12.747  19.725  0.00  0.00    +0.000 C 
BRANCH  22  23
ATOM     23  C   UNL     1       1.266  13.877  18.711  0.00  0.00    +0.000 C 
BRANCH  23  24
ATOM     24  O   UNL     1       1.902  15.013  19.297  0.00  0.00    +0.000 OA
BRANCH  24  25
ATOM     25  C   UNL     1       3.269  14.985  19.281  0.00  0.00    +0.000 A 
ATOM     26  C   UNL     1       3.850  14.838  18.023  0.00  0.00    +0.000 A 
ATOM     27  C   UNL     1       5.242  14.815  17.887  0.00  0.00    +0.000 A 
ATOM     28  C   UNL     1       6.070  14.973  19.005  0.00  0.00    +0.000 A 
ATOM     29  C   UNL     1       5.477  15.108  20.266  0.00  0.00    +0.000 A 
ATOM     30  C   UNL     1       4.087  15.123  20.402  0.00  0.00    +0.000 A 
BRANCH  28  31
ATOM     31  C   UNL     1       7.527  14.949  18.823  0.00  0.00    +0.000 C 
ATOM     32  C   UNL     1       8.173  14.080  18.030  0.00  0.00    +0.000 C 
BRANCH  32  33
ATOM     33  C   UNL     1       9.645  14.134  17.947  0.00  0.00    +0.000 C 
ATOM     34  O   UNL     1      10.300  15.159  17.897  0.00  0.00    +0.000 OA
BRANCH  33  35
ATOM     35  O   UNL     1      10.195  12.903  17.932  0.00  0.00    +0.000 OA
ATOM     36  H   UNL     1       9.700  12.215  18.401  0.00  0.00    +0.000 HD
ENDBRANCH  33  35
ENDBRANCH  32  33
ENDBRANCH  28  31
ENDBRANCH  24  25
ENDBRANCH  23  24
ENDBRANCH  22  23
ENDBRANCH  21  22
ENDBRANCH  20  21
ENDBRANCH   4  20
TORSDOF 14
ENDMDL
