MODEL 1
REMARK VINA RESULT:      -6.9      0.000      0.000
REMARK  Name = 
REMARK  7 active torsions:
REMARK  status: ('A' for Active; 'I' for Inactive)
REMARK    1  A    between atoms: C_1  and  C_2
REMARK    2  A    between atoms: C_4  and  C_5
REMARK    3  A    between atoms: C_6  and  C_7
REMARK    4  A    between atoms: C_10  and  C_11
REMARK    5  A    between atoms: C_12  and  N_13
REMARK    6  A    between atoms: N_19  and  C_20
REMARK    7  A    between atoms: C_23  and  C_24
REMARK                            x       y       z     vdW  Elec       q    Type
REMARK                         _______ _______ _______ _____ _____    ______ ____
ROOT
ATOM      1  N   UNL     1       9.800  14.520  20.355  0.00  0.00    +0.000 N 
ATOM      2  C   UNL     1       8.748  15.459  20.125  0.00  0.00    +0.000 A 
ATOM      3  C   UNL     1       8.975  16.836  19.951  0.00  0.00    +0.000 A 
ATOM      4  C   UNL     1       7.879  17.683  19.919  0.00  0.00    +0.000 A 
ATOM      5  N   UNL     1       6.629  17.171  19.882  0.00  0.00    +0.000 NA
ATOM      6  C   UNL     1       6.431  15.832  19.940  0.00  0.00    +0.000 A 
ATOM      7  N   UNL     1       5.132  15.294  19.856  0.00  0.00    +0.000 N 
ATOM      8  N   UNL     1       7.472  15.022  20.188  0.00  0.00    +0.000 NA
ATOM      9  H   UNL     1      10.575  14.889  20.904  0.00  0.00    +0.000 HD
ATOM     10  H   UNL     1       4.914  14.471  20.436  0.00  0.00    +0.000 HD
ENDROOT
BRANCH   1  18
ATOM     11  C   UNL     1      10.239  13.678  17.364  0.00  0.00    +0.000 C 
ATOM     12  C   UNL     1       9.987  12.718  18.531  0.00  0.00    +0.000 A 
ATOM     13  C   UNL     1       9.777  11.364  18.179  0.00  0.00    +0.000 A 
ATOM     14  C   UNL     1       9.341  10.430  19.122  0.00  0.00    +0.000 A 
ATOM     15  C   UNL     1       9.164  10.843  20.450  0.00  0.00    +0.000 A 
ATOM     16  C   UNL     1       9.379  12.149  20.865  0.00  0.00    +0.000 A 
ATOM     17  C   UNL     1       8.973  12.442  22.302  0.00  0.00    +0.000 C 
ATOM     18  C   UNL     1       9.792  13.135  19.924  0.00  0.00    +0.000 A 
BRANCH  14  19
ATOM     19  C   UNL     1       8.956   9.036  18.717  0.00  0.00    +0.000 C 
ATOM     20  C   UNL     1       7.982   8.734  17.825  0.00  0.00    +0.000 C 
BRANCH  20  21
ATOM     21  C   UNL     1       7.537   7.363  17.599  0.00  0.00    +0.000 C 
ATOM     22  N   UNL     1       7.151   6.276  17.460  0.00  0.00    +0.000 NA
ENDBRANCH  20  21
ENDBRANCH  14  19
ENDBRANCH   1  18
BRANCH   7  23
ATOM     23  C   UNL     1       4.100  16.008  19.210  0.00  0.00    +0.000 A 
ATOM     24  C   UNL     1       3.142  16.734  19.951  0.00  0.00    +0.000 A 
ATOM     25  C   UNL     1       2.096  17.386  19.293  0.00  0.00    +0.000 A 
ATOM     26  C   UNL     1       1.996  17.287  17.891  0.00  0.00    +0.000 A 
ATOM     27  C   UNL     1       2.966  16.585  17.171  0.00  0.00    +0.000 A 
ATOM     28  C   UNL     1       4.020  15.961  17.824  0.00  0.00    +0.000 A 
BRANCH  26  29
ATOM     29  C   UNL     1       0.899  17.879  17.191  0.00  0.00    +0.000 C 
ATOM     30  N   UNL     1      -0.009  18.411  16.703  0.00  0.00    +0.000 NA
ENDBRANCH  26  29
ENDBRANCH   7  23
TORSDOF 5
ENDMDL
MODEL 2
REMARK VINA RESULT:      -6.3      6.648     10.070
REMARK  Name = 
REMARK  7 active torsions:
REMARK  status: ('A' for Active; 'I' for Inactive)
REMARK    1  A    between atoms: C_1  and  C_2
REMARK    2  A    between atoms: C_4  and  C_5
REMARK    3  A    between atoms: C_6  and  C_7
REMARK    4  A    between atoms: C_10  and  C_11
REMARK    5  A    between atoms: C_12  and  N_13
REMARK    6  A    between atoms: N_19  and  C_20
REMARK    7  A    between atoms: C_23  and  C_24
REMARK                            x       y       z     vdW  Elec       q    Type
REMARK                         _______ _______ _______ _____ _____    ______ ____
ROOT
ATOM      1  N   UNL     1      -2.731  11.651  19.881  0.00  0.00    +0.000 N 
ATOM      2  C   UNL     1      -1.660  12.496  20.303  0.00  0.00    +0.000 A 
ATOM      3  C   UNL     1      -1.175  12.517  21.624  0.00  0.00    +0.000 A 
ATOM      4  C   UNL     1      -0.264  13.500  21.974  0.00  0.00    +0.000 A 
ATOM      5  N   UNL     1       0.267  14.300  21.023  0.00  0.00    +0.000 NA
ATOM      6  C   UNL     1      -0.131  14.193  19.731  0.00  0.00    +0.000 A 
ATOM      7  N   UNL     1       0.453  14.994  18.731  0.00  0.00    +0.000 N 
ATOM      8  N   UNL     1      -1.166  13.394  19.425  0.00  0.00    +0.000 NA
ATOM      9  H   UNL     1      -3.444  11.496  20.591  0.00  0.00    +0.000 HD
ATOM     10  H   UNL     1      -0.157  15.342  17.977  0.00  0.00    +0.000 HD
ENDROOT
BRANCH   1  18
ATOM     11  C   UNL     1      -0.453   9.994  18.495  0.00  0.00    +0.000 C 
ATOM     12  C   UNL     1      -1.820  10.315  17.883  0.00  0.00    +0.000 A 
ATOM     13  C   UNL     1      -1.980   9.964  16.521  0.00  0.00    +0.000 A 
ATOM     14  C   UNL     1      -3.098  10.381  15.793  0.00  0.00    +0.000 A 
ATOM     15  C   UNL     1      -4.097  11.111  16.450  0.00  0.00    +0.000 A 
ATOM     16  C   UNL     1      -4.014  11.463  17.788  0.00  0.00    +0.000 A 
ATOM     17  C   UNL     1      -5.110  12.398  18.278  0.00  0.00    +0.000 C 
ATOM     18  C   UNL     1      -2.873  11.085  18.553  0.00  0.00    +0.000 A 
BRANCH  14  19
ATOM     19  C   UNL     1      -3.190  10.156  14.311  0.00  0.00    +0.000 C 
ATOM     20  C   UNL     1      -4.348  10.100  13.610  0.00  0.00    +0.000 C 
BRANCH  20  21
ATOM     21  C   UNL     1      -4.385   9.709  12.205  0.00  0.00    +0.000 C 
ATOM     22  N   UNL     1      -4.378   9.363  11.096  0.00  0.00    +0.000 NA
ENDBRANCH  20  21
ENDBRANCH  14  19
ENDBRANCH   1  18
BRANCH   7  23
ATOM     23  C   UNL     1       1.754  15.515  18.898  0.00  0.00    +0.000 A 
ATOM     24  C   UNL     1       1.964  16.767  19.518  0.00  0.00    +0.000 A 
ATOM     25  C   UNL     1       3.256  17.289  19.621  0.00  0.00    +0.000 A 
ATOM     26  C   UNL     1       4.336  16.566  19.077  0.00  0.00    +0.000 A 
ATOM     27  C   UNL     1       4.114  15.318  18.489  0.00  0.00    +0.000 A 
ATOM     28  C   UNL     1       2.833  14.789  18.412  0.00  0.00    +0.000 A 
BRANCH  26  29
ATOM     29  C   UNL     1       5.661  17.102  19.099  0.00  0.00    +0.000 C 
ATOM     30  N   UNL     1       6.698  17.622  19.091  0.00  0.00    +0.000 NA
ENDBRANCH  26  29
ENDBRANCH   7  23
TORSDOF 5
ENDMDL
MODEL 3
REMARK VINA RESULT:      -6.1      6.663     10.113
REMARK  Name = 
REMARK  7 active torsions:
REMARK  status: ('A' for Active; 'I' for Inactive)
REMARK    1  A    between atoms: C_1  and  C_2
REMARK    2  A    between atoms: C_4  and  C_5
REMARK    3  A    between atoms: C_6  and  C_7
REMARK    4  A    between atoms: C_10  and  C_11
REMARK    5  A    between atoms: C_12  and  N_13
REMARK    6  A    between atoms: N_19  and  C_20
REMARK    7  A    between atoms: C_23  and  C_24
REMARK                            x       y       z     vdW  Elec       q    Type
REMARK                         _______ _______ _______ _____ _____    ______ ____
ROOT
ATOM      1  N   UNL     1      -2.389  11.517  19.708  0.00  0.00    +0.000 N 
ATOM      2  C   UNL     1      -1.217  12.224  20.117  0.00  0.00    +0.000 A 
ATOM      3  C   UNL     1      -0.484  11.888  21.270  0.00  0.00    +0.000 A 
ATOM      4  C   UNL     1       0.524  12.746  21.680  0.00  0.00    +0.000 A 
ATOM      5  N   UNL     1       0.896  13.779  20.891  0.00  0.00    +0.000 NA
ATOM      6  C   UNL     1       0.249  14.024  19.726  0.00  0.00    +0.000 A 
ATOM      7  N   UNL     1       0.664  15.072  18.881  0.00  0.00    +0.000 N 
ATOM      8  N   UNL     1      -0.863  13.331  19.431  0.00  0.00    +0.000 NA
ATOM      9  H   UNL     1      -2.957  11.169  20.478  0.00  0.00    +0.000 HD
ATOM     10  H   UNL     1      -0.065  15.607  18.386  0.00  0.00    +0.000 HD
ENDROOT
BRANCH   1  18
ATOM     11  C   UNL     1      -5.243  12.346  18.697  0.00  0.00    +0.000 C 
ATOM     12  C   UNL     1      -4.146  11.705  17.840  0.00  0.00    +0.000 A 
ATOM     13  C   UNL     1      -4.534  11.317  16.535  0.00  0.00    +0.000 A 
ATOM     14  C   UNL     1      -3.692  10.546  15.730  0.00  0.00    +0.000 A 
ATOM     15  C   UNL     1      -2.422  10.203  16.214  0.00  0.00    +0.000 A 
ATOM     16  C   UNL     1      -1.972  10.575  17.472  0.00  0.00    +0.000 A 
ATOM     17  C   UNL     1      -0.638   9.968  17.884  0.00  0.00    +0.000 C 
ATOM     18  C   UNL     1      -2.815  11.333  18.333  0.00  0.00    +0.000 A 
BRANCH  14  19
ATOM     19  C   UNL     1      -4.165   9.992  14.417  0.00  0.00    +0.000 C 
ATOM     20  C   UNL     1      -3.451  10.022  13.266  0.00  0.00    +0.000 C 
BRANCH  20  21
ATOM     21  C   UNL     1      -4.027   9.625  11.986  0.00  0.00    +0.000 C 
ATOM     22  N   UNL     1      -4.498   9.263  10.987  0.00  0.00    +0.000 NA
ENDBRANCH  20  21
ENDBRANCH  14  19
ENDBRANCH   1  18
BRANCH   7  23
ATOM     23  C   UNL     1       1.995  15.538  18.917  0.00  0.00    +0.000 A 
ATOM     24  C   UNL     1       2.355  16.657  19.699  0.00  0.00    +0.000 A 
ATOM     25  C   UNL     1       3.668  17.135  19.674  0.00  0.00    +0.000 A 
ATOM     26  C   UNL     1       4.614  16.505  18.842  0.00  0.00    +0.000 A 
ATOM     27  C   UNL     1       4.248  15.384  18.093  0.00  0.00    +0.000 A 
ATOM     28  C   UNL     1       2.950  14.894  18.140  0.00  0.00    +0.000 A 
BRANCH  26  29
ATOM     29  C   UNL     1       5.947  17.011  18.735  0.00  0.00    +0.000 C 
ATOM     30  N   UNL     1       6.998  17.476  18.574  0.00  0.00    +0.000 NA
ENDBRANCH  26  29
ENDBRANCH   7  23
TORSDOF 5
ENDMDL
MODEL 4
REMARK VINA RESULT:      -6.0      5.851      8.618
REMARK  Name = 
REMARK  7 active torsions:
REMARK  status: ('A' for Active; 'I' for Inactive)
REMARK    1  A    between atoms: C_1  and  C_2
REMARK    2  A    between atoms: C_4  and  C_5
REMARK    3  A    between atoms: C_6  and  C_7
REMARK    4  A    between atoms: C_10  and  C_11
REMARK    5  A    between atoms: C_12  and  N_13
REMARK    6  A    between atoms: N_19  and  C_20
REMARK    7  A    between atoms: C_23  and  C_24
REMARK                            x       y       z     vdW  Elec       q    Type
REMARK                         _______ _______ _______ _____ _____    ______ ____
ROOT
ATOM      1  N   UNL     1       3.168   4.698  19.538  0.00  0.00    +0.000 N 
ATOM      2  C   UNL     1       2.614   5.983  19.824  0.00  0.00    +0.000 A 
ATOM      3  C   UNL     1       2.308   6.412  21.129  0.00  0.00    +0.000 A 
ATOM      4  C   UNL     1       1.606   7.596  21.283  0.00  0.00    +0.000 A 
ATOM      5  N   UNL     1       1.379   8.392  20.215  0.00  0.00    +0.000 NA
ATOM      6  C   UNL     1       1.779   8.014  18.976  0.00  0.00    +0.000 A 
ATOM      7  N   UNL     1       1.584   8.862  17.869  0.00  0.00    +0.000 N 
ATOM      8  N   UNL     1       2.264   6.776  18.790  0.00  0.00    +0.000 NA
ATOM      9  H   UNL     1       2.844   3.956  20.157  0.00  0.00    +0.000 HD
ATOM     10  H   UNL     1       1.334   8.427  16.969  0.00  0.00    +0.000 HD
ENDROOT
BRANCH   1  18
ATOM     11  C   UNL     1       6.175   5.598  19.527  0.00  0.00    +0.000 C 
ATOM     12  C   UNL     1       5.474   4.820  18.408  0.00  0.00    +0.000 A 
ATOM     13  C   UNL     1       6.220   4.650  17.218  0.00  0.00    +0.000 A 
ATOM     14  C   UNL     1       5.628   4.140  16.060  0.00  0.00    +0.000 A 
ATOM     15  C   UNL     1       4.285   3.741  16.107  0.00  0.00    +0.000 A 
ATOM     16  C   UNL     1       3.508   3.856  17.250  0.00  0.00    +0.000 A 
ATOM     17  C   UNL     1       2.033   3.530  17.060  0.00  0.00    +0.000 C 
ATOM     18  C   UNL     1       4.068   4.403  18.439  0.00  0.00    +0.000 A 
BRANCH  14  19
ATOM     19  C   UNL     1       6.368   4.116  14.753  0.00  0.00    +0.000 C 
ATOM     20  C   UNL     1       5.803   3.839  13.553  0.00  0.00    +0.000 C 
BRANCH  20  21
ATOM     21  C   UNL     1       6.601   3.663  12.344  0.00  0.00    +0.000 C 
ATOM     22  N   UNL     1       7.278   3.539  11.408  0.00  0.00    +0.000 NA
ENDBRANCH  20  21
ENDBRANCH  14  19
ENDBRANCH   1  18
BRANCH   7  23
ATOM     23  C   UNL     1       1.476  10.258  18.045  0.00  0.00    +0.000 A 
ATOM     24  C   UNL     1       2.594  11.104  17.874  0.00  0.00    +0.000 A 
ATOM     25  C   UNL     1       2.476  12.476  18.109  0.00  0.00    +0.000 A 
ATOM     26  C   UNL     1       1.241  12.996  18.542  0.00  0.00    +0.000 A 
ATOM     27  C   UNL     1       0.138  12.150  18.683  0.00  0.00    +0.000 A 
ATOM     28  C   UNL     1       0.250  10.791  18.423  0.00  0.00    +0.000 A 
BRANCH  26  29
ATOM     29  C   UNL     1       1.102  14.383  18.864  0.00  0.00    +0.000 C 
ATOM     30  N   UNL     1       0.934  15.516  19.046  0.00  0.00    +0.000 NA
ENDBRANCH  26  29
ENDBRANCH   7  23
TORSDOF 5
ENDMDL
MODEL 5
REMARK VINA RESULT:      -5.9      6.594     11.819
REMARK  Name = 
REMARK  7 active torsions:
REMARK  status: ('A' for Active; 'I' for Inactive)
REMARK    1  A    between atoms: C_1  and  C_2
REMARK    2  A    between atoms: C_4  and  C_5
REMARK    3  A    between atoms: C_6  and  C_7
REMARK    4  A    between atoms: C_10  and  C_11
REMARK    5  A    between atoms: C_12  and  N_13
REMARK    6  A    between atoms: N_19  and  C_20
REMARK    7  A    between atoms: C_23  and  C_24
REMARK                            x       y       z     vdW  Elec       q    Type
REMARK                         _______ _______ _______ _____ _____    ______ ____
ROOT
ATOM      1  N   UNL     1      -0.532  13.324  19.168  0.00  0.00    +0.000 N 
ATOM      2  C   UNL     1       0.550  12.463  18.809  0.00  0.00    +0.000 A 
ATOM      3  C   UNL     1       1.824  12.942  18.453  0.00  0.00    +0.000 A 
ATOM      4  C   UNL     1       2.746  12.042  17.944  0.00  0.00    +0.000 A 
ATOM      5  N   UNL     1       2.476  10.718  17.957  0.00  0.00    +0.000 NA
ATOM      6  C   UNL     1       1.281  10.262  18.406  0.00  0.00    +0.000 A 
ATOM      7  N   UNL     1       1.015   8.880  18.463  0.00  0.00    +0.000 N 
ATOM      8  N   UNL     1       0.308  11.140  18.696  0.00  0.00    +0.000 NA
ATOM      9  H   UNL     1      -0.543  14.211  18.668  0.00  0.00    +0.000 HD
ATOM     10  H   UNL     1       0.062   8.565  18.232  0.00  0.00    +0.000 HD
ENDROOT
BRANCH   1  18
ATOM     11  C   UNL     1      -3.206  11.932  18.292  0.00  0.00    +0.000 C 
ATOM     12  C   UNL     1      -2.846  12.349  19.722  0.00  0.00    +0.000 A 
ATOM     13  C   UNL     1      -3.885  12.235  20.676  0.00  0.00    +0.000 A 
ATOM     14  C   UNL     1      -3.750  12.768  21.960  0.00  0.00    +0.000 A 
ATOM     15  C   UNL     1      -2.538  13.374  22.316  0.00  0.00    +0.000 A 
ATOM     16  C   UNL     1      -1.471  13.493  21.438  0.00  0.00    +0.000 A 
ATOM     17  C   UNL     1      -0.306  14.328  21.949  0.00  0.00    +0.000 C 
ATOM     18  C   UNL     1      -1.585  12.992  20.110  0.00  0.00    +0.000 A 
BRANCH  14  19
ATOM     19  C   UNL     1      -4.908  12.798  22.915  0.00  0.00    +0.000 C 
ATOM     20  C   UNL     1      -6.081  13.436  22.685  0.00  0.00    +0.000 C 
BRANCH  20  21
ATOM     21  C   UNL     1      -7.103  13.576  23.717  0.00  0.00    +0.000 C 
ATOM     22  N   UNL     1      -7.916  13.636  24.544  0.00  0.00    +0.000 NA
ENDBRANCH  20  21
ENDBRANCH  14  19
ENDBRANCH   1  18
BRANCH   7  23
ATOM     23  C   UNL     1       2.071   7.950  18.570  0.00  0.00    +0.000 A 
ATOM     24  C   UNL     1       3.015   7.796  17.531  0.00  0.00    +0.000 A 
ATOM     25  C   UNL     1       4.018   6.829  17.635  0.00  0.00    +0.000 A 
ATOM     26  C   UNL     1       4.057   5.997  18.770  0.00  0.00    +0.000 A 
ATOM     27  C   UNL     1       3.131   6.177  19.800  0.00  0.00    +0.000 A 
ATOM     28  C   UNL     1       2.151   7.157  19.708  0.00  0.00    +0.000 A 
BRANCH  26  29
ATOM     29  C   UNL     1       5.023   4.948  18.877  0.00  0.00    +0.000 C 
ATOM     30  N   UNL     1       5.734   4.036  18.979  0.00  0.00    +0.000 NA
ENDBRANCH  26  29
ENDBRANCH   7  23
TORSDOF 5
ENDMDL
MODEL 6
REMARK VINA RESULT:      -5.8      6.444      9.956
REMARK  Name = 
REMARK  7 active torsions:
REMARK  status: ('A' for Active; 'I' for Inactive)
REMARK    1  A    between atoms: C_1  and  C_2
REMARK    2  A    between atoms: C_4  and  C_5
REMARK    3  A    between atoms: C_6  and  C_7
REMARK    4  A    between atoms: C_10  and  C_11
REMARK    5  A    between atoms: C_12  and  N_13
REMARK    6  A    between atoms: N_19  and  C_20
REMARK    7  A    between atoms: C_23  and  C_24
REMARK                            x       y       z     vdW  Elec       q    Type
REMARK                         _______ _______ _______ _____ _____    ______ ____
ROOT
ATOM      1  N   UNL     1      -2.604  12.190  20.405  0.00  0.00    +0.000 N 
ATOM      2  C   UNL     1      -1.398  12.927  20.610  0.00  0.00    +0.000 A 
ATOM      3  C   UNL     1      -0.772  13.037  21.865  0.00  0.00    +0.000 A 
ATOM      4  C   UNL     1       0.286  13.922  21.997  0.00  0.00    +0.000 A 
ATOM      5  N   UNL     1       0.803  14.525  20.903  0.00  0.00    +0.000 NA
ATOM      6  C   UNL     1       0.255  14.321  19.680  0.00  0.00    +0.000 A 
ATOM      7  N   UNL     1       0.821  14.912  18.533  0.00  0.00    +0.000 N 
ATOM      8  N   UNL     1      -0.897  13.640  19.580  0.00  0.00    +0.000 NA
ATOM      9  H   UNL     1      -3.249  12.218  21.192  0.00  0.00    +0.000 HD
ATOM     10  H   UNL     1       0.178  15.248  17.800  0.00  0.00    +0.000 HD
ENDROOT
BRANCH   1  18
ATOM     11  C   UNL     1      -0.566  10.408  18.817  0.00  0.00    +0.000 C 
ATOM     12  C   UNL     1      -2.023  10.665  18.419  0.00  0.00    +0.000 A 
ATOM     13  C   UNL     1      -2.406  10.182  17.145  0.00  0.00    +0.000 A 
ATOM     14  C   UNL     1      -3.638  10.524  16.582  0.00  0.00    +0.000 A 
ATOM     15  C   UNL     1      -4.524  11.315  17.326  0.00  0.00    +0.000 A 
ATOM     16  C   UNL     1      -4.221  11.797  18.590  0.00  0.00    +0.000 A 
ATOM     17  C   UNL     1      -5.235  12.774  19.167  0.00  0.00    +0.000 C 
ATOM     18  C   UNL     1      -2.961  11.496  19.181  0.00  0.00    +0.000 A 
BRANCH  14  19
ATOM     19  C   UNL     1      -3.976  10.155  15.166  0.00  0.00    +0.000 C 
ATOM     20  C   UNL     1      -3.067   9.981  14.177  0.00  0.00    +0.000 C 
BRANCH  20  21
ATOM     21  C   UNL     1      -3.463   9.792  12.785  0.00  0.00    +0.000 C 
ATOM     22  N   UNL     1      -3.774   9.590  11.684  0.00  0.00    +0.000 NA
ENDBRANCH  20  21
ENDBRANCH  14  19
ENDBRANCH   1  18
BRANCH   7  23
ATOM     23  C   UNL     1       2.186  15.268  18.508  0.00  0.00    +0.000 A 
ATOM     24  C   UNL     1       3.181  14.320  18.184  0.00  0.00    +0.000 A 
ATOM     25  C   UNL     1       4.530  14.681  18.221  0.00  0.00    +0.000 A 
ATOM     26  C   UNL     1       4.882  15.988  18.610  0.00  0.00    +0.000 A 
ATOM     27  C   UNL     1       3.885  16.921  18.904  0.00  0.00    +0.000 A 
ATOM     28  C   UNL     1       2.544  16.568  18.840  0.00  0.00    +0.000 A 
BRANCH  26  29
ATOM     29  C   UNL     1       6.255  16.371  18.731  0.00  0.00    +0.000 C 
ATOM     30  N   UNL     1       7.383  16.642  18.743  0.00  0.00    +0.000 NA
ENDBRANCH  26  29
ENDBRANCH   7  23
TORSDOF 5
ENDMDL
MODEL 7
REMARK VINA RESULT:      -5.7      6.727     10.236
REMARK  Name = 
REMARK  7 active torsions:
REMARK  status: ('A' for Active; 'I' for Inactive)
REMARK    1  A    between atoms: C_1  and  C_2
REMARK    2  A    between atoms: C_4  and  C_5
REMARK    3  A    between atoms: C_6  and  C_7
REMARK    4  A    between atoms: C_10  and  C_11
REMARK    5  A    between atoms: C_12  and  N_13
REMARK    6  A    between atoms: N_19  and  C_20
REMARK    7  A    between atoms: C_23  and  C_24
REMARK                            x       y       z     vdW  Elec       q    Type
REMARK                         _______ _______ _______ _____ _____    ______ ____
ROOT
ATOM      1  N   UNL     1      -2.586  11.596  19.616  0.00  0.00    +0.000 N 
ATOM      2  C   UNL     1      -1.508  12.398  20.101  0.00  0.00    +0.000 A 
ATOM      3  C   UNL     1      -0.884  12.174  21.341  0.00  0.00    +0.000 A 
ATOM      4  C   UNL     1       0.023  13.116  21.800  0.00  0.00    +0.000 A 
ATOM      5  N   UNL     1       0.417  14.125  20.992  0.00  0.00    +0.000 NA
ATOM      6  C   UNL     1      -0.116  14.264  19.753  0.00  0.00    +0.000 A 
ATOM      7  N   UNL     1       0.326  15.288  18.892  0.00  0.00    +0.000 N 
ATOM      8  N   UNL     1      -1.147  13.486  19.388  0.00  0.00    +0.000 NA
ATOM      9  H   UNL     1      -3.212  11.255  20.344  0.00  0.00    +0.000 HD
ATOM     10  H   UNL     1      -0.376  15.747  18.294  0.00  0.00    +0.000 HD
ENDROOT
BRANCH   1  18
ATOM     11  C   UNL     1      -5.343  12.227  18.256  0.00  0.00    +0.000 C 
ATOM     12  C   UNL     1      -4.134  11.588  17.564  0.00  0.00    +0.000 A 
ATOM     13  C   UNL     1      -4.361  11.105  16.253  0.00  0.00    +0.000 A 
ATOM     14  C   UNL     1      -3.406  10.327  15.594  0.00  0.00    +0.000 A 
ATOM     15  C   UNL     1      -2.184  10.074  16.232  0.00  0.00    +0.000 A 
ATOM     16  C   UNL     1      -1.889  10.541  17.504  0.00  0.00    +0.000 A 
ATOM     17  C   UNL     1      -0.585  10.024  18.094  0.00  0.00    +0.000 C 
ATOM     18  C   UNL     1      -2.852  11.309  18.219  0.00  0.00    +0.000 A 
BRANCH  14  19
ATOM     19  C   UNL     1      -3.709   9.673  14.277  0.00  0.00    +0.000 C 
ATOM     20  C   UNL     1      -4.243  10.309  13.206  0.00  0.00    +0.000 C 
BRANCH  20  21
ATOM     21  C   UNL     1      -4.675   9.588  12.013  0.00  0.00    +0.000 C 
ATOM     22  N   UNL     1      -4.969   9.011  11.048  0.00  0.00    +0.000 NA
ENDBRANCH  20  21
ENDBRANCH  14  19
ENDBRANCH   1  18
BRANCH   7  23
ATOM     23  C   UNL     1       1.617  15.840  19.037  0.00  0.00    +0.000 A 
ATOM     24  C   UNL     1       2.750  15.195  18.494  0.00  0.00    +0.000 A 
ATOM     25  C   UNL     1       4.024  15.731  18.699  0.00  0.00    +0.000 A 
ATOM     26  C   UNL     1       4.164  16.900  19.472  0.00  0.00    +0.000 A 
ATOM     27  C   UNL     1       3.030  17.539  19.982  0.00  0.00    +0.000 A 
ATOM     28  C   UNL     1       1.763  17.020  19.755  0.00  0.00    +0.000 A 
BRANCH  26  29
ATOM     29  C   UNL     1       5.457  17.435  19.765  0.00  0.00    +0.000 C 
ATOM     30  N   UNL     1       6.505  17.911  19.915  0.00  0.00    +0.000 NA
ENDBRANCH  26  29
ENDBRANCH   7  23
TORSDOF 5
ENDMDL
MODEL 8
REMARK VINA RESULT:      -5.7      5.702      7.589
REMARK  Name = 
REMARK  7 active torsions:
REMARK  status: ('A' for Active; 'I' for Inactive)
REMARK    1  A    between atoms: C_1  and  C_2
REMARK    2  A    between atoms: C_4  and  C_5
REMARK    3  A    between atoms: C_6  and  C_7
REMARK    4  A    between atoms: C_10  and  C_11
REMARK    5  A    between atoms: C_12  and  N_13
REMARK    6  A    between atoms: N_19  and  C_20
REMARK    7  A    between atoms: C_23  and  C_24
REMARK                            x       y       z     vdW  Elec       q    Type
REMARK                         _______ _______ _______ _____ _____    ______ ____
ROOT
ATOM      1  N   UNL     1       0.864   7.586  20.445  0.00  0.00    +0.000 N 
ATOM      2  C   UNL     1       0.643   8.871  21.027  0.00  0.00    +0.000 A 
ATOM      3  C   UNL     1      -0.061   9.056  22.231  0.00  0.00    +0.000 A 
ATOM      4  C   UNL     1      -0.380  10.349  22.613  0.00  0.00    +0.000 A 
ATOM      5  N   UNL     1       0.126  11.400  21.932  0.00  0.00    +0.000 NA
ATOM      6  C   UNL     1       0.897  11.204  20.834  0.00  0.00    +0.000 A 
ATOM      7  N   UNL     1       1.463  12.296  20.149  0.00  0.00    +0.000 N 
ATOM      8  N   UNL     1       1.029   9.964  20.336  0.00  0.00    +0.000 NA
ATOM      9  H   UNL     1       0.102   6.926  20.590  0.00  0.00    +0.000 HD
ATOM     10  H   UNL     1       1.515  12.244  19.121  0.00  0.00    +0.000 HD
ENDROOT
BRANCH   1  18
ATOM     11  C   UNL     1       1.694   9.119  17.835  0.00  0.00    +0.000 C 
ATOM     12  C   UNL     1       2.426   7.911  18.430  0.00  0.00    +0.000 A 
ATOM     13  C   UNL     1       3.457   7.363  17.630  0.00  0.00    +0.000 A 
ATOM     14  C   UNL     1       4.062   6.149  17.962  0.00  0.00    +0.000 A 
ATOM     15  C   UNL     1       3.670   5.499  19.140  0.00  0.00    +0.000 A 
ATOM     16  C   UNL     1       2.686   5.996  19.980  0.00  0.00    +0.000 A 
ATOM     17  C   UNL     1       2.280   5.069  21.117  0.00  0.00    +0.000 C 
ATOM     18  C   UNL     1       2.024   7.215  19.656  0.00  0.00    +0.000 A 
BRANCH  14  19
ATOM     19  C   UNL     1       5.034   5.483  17.030  0.00  0.00    +0.000 C 
ATOM     20  C   UNL     1       5.208   5.819  15.729  0.00  0.00    +0.000 C 
BRANCH  20  21
ATOM     21  C   UNL     1       6.040   5.028  14.829  0.00  0.00    +0.000 C 
ATOM     22  N   UNL     1       6.712   4.365  14.152  0.00  0.00    +0.000 NA
ENDBRANCH  20  21
ENDBRANCH  14  19
ENDBRANCH   1  18
BRANCH   7  23
ATOM     23  C   UNL     1       1.702  13.517  20.817  0.00  0.00    +0.000 A 
ATOM     24  C   UNL     1       0.655  14.434  21.056  0.00  0.00    +0.000 A 
ATOM     25  C   UNL     1       0.926  15.660  21.668  0.00  0.00    +0.000 A 
ATOM     26  C   UNL     1       2.253  15.978  22.016  0.00  0.00    +0.000 A 
ATOM     27  C   UNL     1       3.274  15.049  21.795  0.00  0.00    +0.000 A 
ATOM     28  C   UNL     1       2.998  13.820  21.211  0.00  0.00    +0.000 A 
BRANCH  26  29
ATOM     29  C   UNL     1       2.579  17.252  22.576  0.00  0.00    +0.000 C 
ATOM     30  N   UNL     1       2.825  18.325  22.944  0.00  0.00    +0.000 NA
ENDBRANCH  26  29
ENDBRANCH   7  23
TORSDOF 5
ENDMDL
MODEL 9
REMARK VINA RESULT:      -5.5      6.242     11.018
REMARK  Name = 
REMARK  7 active torsions:
REMARK  status: ('A' for Active; 'I' for Inactive)
REMARK    1  A    between atoms: C_1  and  C_2
REMARK    2  A    between atoms: C_4  and  C_5
REMARK    3  A    between atoms: C_6  and  C_7
REMARK    4  A    between atoms: C_10  and  C_11
REMARK    5  A    between atoms: C_12  and  N_13
REMARK    6  A    between atoms: N_19  and  C_20
REMARK    7  A    between atoms: C_23  and  C_24
REMARK                            x       y       z     vdW  Elec       q    Type
REMARK                         _______ _______ _______ _____ _____    ______ ____
ROOT
ATOM      1  N   UNL     1      -2.472  13.461  19.859  0.00  0.00    +0.000 N 
ATOM      2  C   UNL     1      -1.965  12.252  19.294  0.00  0.00    +0.000 A 
ATOM      3  C   UNL     1      -2.438  11.714  18.083  0.00  0.00    +0.000 A 
ATOM      4  C   UNL     1      -2.015  10.447  17.716  0.00  0.00    +0.000 A 
ATOM      5  N   UNL     1      -1.042   9.829  18.421  0.00  0.00    +0.000 NA
ATOM      6  C   UNL     1      -0.516  10.410  19.527  0.00  0.00    +0.000 A 
ATOM      7  N   UNL     1       0.530   9.789  20.237  0.00  0.00    +0.000 N 
ATOM      8  N   UNL     1      -1.072  11.534  20.008  0.00  0.00    +0.000 NA
ATOM      9  H   UNL     1      -3.465  13.615  19.693  0.00  0.00    +0.000 HD
ATOM     10  H   UNL     1       0.525   9.867  21.265  0.00  0.00    +0.000 HD
ENDROOT
BRANCH   1  18
ATOM     11  C   UNL     1      -0.228  15.285  18.637  0.00  0.00    +0.000 C 
ATOM     12  C   UNL     1      -0.644  15.252  20.111  0.00  0.00    +0.000 A 
ATOM     13  C   UNL     1       0.175  15.991  20.998  0.00  0.00    +0.000 A 
ATOM     14  C   UNL     1       0.025  15.882  22.382  0.00  0.00    +0.000 A 
ATOM     15  C   UNL     1      -0.994  15.063  22.889  0.00  0.00    +0.000 A 
ATOM     16  C   UNL     1      -1.847  14.334  22.074  0.00  0.00    +0.000 A 
ATOM     17  C   UNL     1      -2.775  13.376  22.807  0.00  0.00    +0.000 C 
ATOM     18  C   UNL     1      -1.702  14.396  20.659  0.00  0.00    +0.000 A 
BRANCH  14  19
ATOM     19  C   UNL     1       0.998  16.531  23.324  0.00  0.00    +0.000 C 
ATOM     20  C   UNL     1       2.305  16.758  23.046  0.00  0.00    +0.000 C 
BRANCH  20  21
ATOM     21  C   UNL     1       3.240  17.234  24.059  0.00  0.00    +0.000 C 
ATOM     22  N   UNL     1       3.958  17.658  24.868  0.00  0.00    +0.000 NA
ENDBRANCH  20  21
ENDBRANCH  14  19
ENDBRANCH   1  18
BRANCH   7  23
ATOM     23  C   UNL     1       1.393   8.878  19.592  0.00  0.00    +0.000 A 
ATOM     24  C   UNL     1       1.894   9.140  18.298  0.00  0.00    +0.000 A 
ATOM     25  C   UNL     1       2.701   8.198  17.656  0.00  0.00    +0.000 A 
ATOM     26  C   UNL     1       2.984   6.979  18.303  0.00  0.00    +0.000 A 
ATOM     27  C   UNL     1       2.501   6.745  19.593  0.00  0.00    +0.000 A 
ATOM     28  C   UNL     1       1.721   7.695  20.240  0.00  0.00    +0.000 A 
BRANCH  26  29
ATOM     29  C   UNL     1       3.745   5.961  17.647  0.00  0.00    +0.000 C 
ATOM     30  N   UNL     1       4.283   5.114  17.064  0.00  0.00    +0.000 NA
ENDBRANCH  26  29
ENDBRANCH   7  23
TORSDOF 5
ENDMDL
