MODEL 1
REMARK VINA RESULT:      -8.8      0.000      0.000
REMARK  Name = 
REMARK  3 active torsions:
REMARK  status: ('A' for Active; 'I' for Inactive)
REMARK    1  A    between atoms: C_2  and  C_3
REMARK    2  A    between atoms: CA_6  and  C_7
REMARK    3  A    between atoms: N_18  and  C_19
REMARK                            x       y       z     vdW  Elec       q    Type
REMARK                         _______ _______ _______ _____ _____    ______ ____
ROOT
ATOM      1  C   UNL     1       2.731   7.147  19.047  0.00  0.00    +0.000 C 
ATOM      2  C   UNL     1       2.715   5.991  18.354  0.00  0.00    +0.000 C 
ATOM      3  C   UNL     1       1.710   4.868  18.518  0.00  0.00    +0.000 C 
ATOM      4  CA  UNL     1       2.502   3.654  19.002  0.00  0.00    +0.000 C 
ATOM      5  N   UNL     1       3.416   3.202  17.947  0.00  0.00    +0.000 N 
ATOM      6  C   UNL     1       4.017   4.202  17.161  0.00  0.00    +0.000 A 
ATOM      7  C   UNL     1       4.969   3.808  16.212  0.00  0.00    +0.000 A 
ATOM      8  C   UNL     1       5.697   4.765  15.509  0.00  0.00    +0.000 A 
ATOM      9 CL   UNL     1       6.881   4.271  14.362  0.00  0.00    +0.000 Cl
ATOM     10  C   UNL     1       5.488   6.122  15.736  0.00  0.00    +0.000 A 
ATOM     11  C   UNL     1       4.527   6.535  16.661  0.00  0.00    +0.000 A 
ATOM     12  C   UNL     1       3.786   5.591  17.387  0.00  0.00    +0.000 A 
ATOM     13  H   UNL     1       3.068   2.374  17.458  0.00  0.00    +0.000 HD
ENDROOT
BRANCH   1  15
ATOM     14  O   UNL     1       1.427   6.660  20.985  0.00  0.00    +0.000 OA
ATOM     15  C   UNL     1       1.800   7.500  20.170  0.00  0.00    +0.000 C 
ATOM     16  N   UNL     1       1.460   8.841  20.162  0.00  0.00    +0.000 N 
ATOM     17  H   UNL     1       1.760   9.394  19.367  0.00  0.00    +0.000 HD
BRANCH  16  18
ATOM     18  C   UNL     1       0.643   9.514  21.100  0.00  0.00    +0.000 A 
ATOM     19  C   UNL     1       0.527   9.130  22.439  0.00  0.00    +0.000 A 
ATOM     20  C   UNL     1      -0.339   9.805  23.303  0.00  0.00    +0.000 A 
ATOM     21  C   UNL     1      -1.091  10.880  22.842  0.00  0.00    +0.000 A 
ATOM     22  C   UNL     1      -0.955  11.299  21.520  0.00  0.00    +0.000 A 
ATOM     23  C   UNL     1      -0.085  10.626  20.654  0.00  0.00    +0.000 A 
ENDBRANCH  16  18
ENDBRANCH   1  15
BRANCH   4  24
ATOM     24  C   UNL     1       1.469   2.646  19.539  0.00  0.00    +0.000 C 
ATOM     25  O   UNL     1       1.636   2.351  20.774  0.00  0.00    +0.000 OA
ATOM     26  OXT UNL     1       0.587   2.240  18.742  0.00  0.00    +0.000 OA
ENDBRANCH   4  24
TORSDOF 3
ENDMDL
MODEL 2
REMARK VINA RESULT:      -8.5      0.780      1.291
REMARK  Name = 
REMARK  3 active torsions:
REMARK  status: ('A' for Active; 'I' for Inactive)
REMARK    1  A    between atoms: C_2  and  C_3
REMARK    2  A    between atoms: CA_6  and  C_7
REMARK    3  A    between atoms: N_18  and  C_19
REMARK                            x       y       z     vdW  Elec       q    Type
REMARK                         _______ _______ _______ _____ _____    ______ ____
ROOT
ATOM      1  C   UNL     1       2.490   7.483  19.242  0.00  0.00    +0.000 C 
ATOM      2  C   UNL     1       2.669   6.219  18.810  0.00  0.00    +0.000 C 
ATOM      3  C   UNL     1       1.924   4.995  19.305  0.00  0.00    +0.000 C 
ATOM      4  CA  UNL     1       2.972   4.088  19.950  0.00  0.00    +0.000 C 
ATOM      5  N   UNL     1       3.897   3.589  18.926  0.00  0.00    +0.000 N 
ATOM      6  C   UNL     1       4.236   4.481  17.892  0.00  0.00    +0.000 A 
ATOM      7  C   UNL     1       5.192   4.068  16.956  0.00  0.00    +0.000 A 
ATOM      8  C   UNL     1       5.669   4.960  15.999  0.00  0.00    +0.000 A 
ATOM      9 CL   UNL     1       6.861   4.451  14.867  0.00  0.00    +0.000 Cl
ATOM     10  C   UNL     1       5.203   6.271  15.958  0.00  0.00    +0.000 A 
ATOM     11  C   UNL     1       4.233   6.695  16.868  0.00  0.00    +0.000 A 
ATOM     12  C   UNL     1       3.742   5.818  17.845  0.00  0.00    +0.000 A 
ATOM     13  H   UNL     1       3.696   2.623  18.658  0.00  0.00    +0.000 HD
ENDROOT
BRANCH   1  15
ATOM     14  O   UNL     1       1.335   7.158  21.305  0.00  0.00    +0.000 OA
ATOM     15  C   UNL     1       1.573   7.900  20.355  0.00  0.00    +0.000 C 
ATOM     16  N   UNL     1       1.079   9.179  20.170  0.00  0.00    +0.000 N 
ATOM     17  H   UNL     1       1.278   9.633  19.286  0.00  0.00    +0.000 HD
BRANCH  16  18
ATOM     18  C   UNL     1       0.230   9.894  21.046  0.00  0.00    +0.000 A 
ATOM     19  C   UNL     1      -0.408  11.089  20.698  0.00  0.00    +0.000 A 
ATOM     20  C   UNL     1      -1.193  11.776  21.628  0.00  0.00    +0.000 A 
ATOM     21  C   UNL     1      -1.359  11.272  22.913  0.00  0.00    +0.000 A 
ATOM     22  C   UNL     1      -0.761  10.062  23.261  0.00  0.00    +0.000 A 
ATOM     23  C   UNL     1       0.021   9.370  22.329  0.00  0.00    +0.000 A 
ENDBRANCH  16  18
ENDBRANCH   1  15
BRANCH   4  24
ATOM     24  C   UNL     1       2.197   3.053  20.786  0.00  0.00    +0.000 C 
ATOM     25  O   UNL     1       2.251   3.270  22.047  0.00  0.00    +0.000 OA
ATOM     26  OXT UNL     1       1.599   2.139  20.167  0.00  0.00    +0.000 OA
ENDBRANCH   4  24
TORSDOF 3
ENDMDL
MODEL 3
REMARK VINA RESULT:      -8.5      0.967      1.209
REMARK  Name = 
REMARK  3 active torsions:
REMARK  status: ('A' for Active; 'I' for Inactive)
REMARK    1  A    between atoms: C_2  and  C_3
REMARK    2  A    between atoms: CA_6  and  C_7
REMARK    3  A    between atoms: N_18  and  C_19
REMARK                            x       y       z     vdW  Elec       q    Type
REMARK                         _______ _______ _______ _____ _____    ______ ____
ROOT
ATOM      1  C   UNL     1       2.345   7.601  19.256  0.00  0.00    +0.000 C 
ATOM      2  C   UNL     1       2.553   6.321  18.888  0.00  0.00    +0.000 C 
ATOM      3  C   UNL     1       1.820   5.109  19.429  0.00  0.00    +0.000 C 
ATOM      4  CA  UNL     1       2.872   4.253  20.134  0.00  0.00    +0.000 C 
ATOM      5  N   UNL     1       3.823   3.722  19.150  0.00  0.00    +0.000 N 
ATOM      6  C   UNL     1       4.166   4.569  18.081  0.00  0.00    +0.000 A 
ATOM      7  C   UNL     1       5.144   4.129  17.181  0.00  0.00    +0.000 A 
ATOM      8  C   UNL     1       5.623   4.983  16.191  0.00  0.00    +0.000 A 
ATOM      9 CL   UNL     1       6.843   4.442  15.105  0.00  0.00    +0.000 Cl
ATOM     10  C   UNL     1       5.135   6.282  16.079  0.00  0.00    +0.000 A 
ATOM     11  C   UNL     1       4.142   6.732  16.952  0.00  0.00    +0.000 A 
ATOM     12  C   UNL     1       3.649   5.893  17.961  0.00  0.00    +0.000 A 
ATOM     13  H   UNL     1       3.644   2.740  18.926  0.00  0.00    +0.000 HD
ENDROOT
BRANCH   1  15
ATOM     14  O   UNL     1       1.062   7.307  21.246  0.00  0.00    +0.000 OA
ATOM     15  C   UNL     1       1.401   8.054  20.331  0.00  0.00    +0.000 C 
ATOM     16  N   UNL     1       1.008   9.368  20.159  0.00  0.00    +0.000 N 
ATOM     17  H   UNL     1       1.284   9.830  19.300  0.00  0.00    +0.000 HD
BRANCH  16  18
ATOM     18  C   UNL     1       0.166  10.120  21.010  0.00  0.00    +0.000 A 
ATOM     19  C   UNL     1      -0.001   9.846  22.371  0.00  0.00    +0.000 A 
ATOM     20  C   UNL     1      -0.890  10.594  23.147  0.00  0.00    +0.000 A 
ATOM     21  C   UNL     1      -1.615  11.634  22.575  0.00  0.00    +0.000 A 
ATOM     22  C   UNL     1      -1.429  11.944  21.229  0.00  0.00    +0.000 A 
ATOM     23  C   UNL     1      -0.536  11.199  20.452  0.00  0.00    +0.000 A 
ENDBRANCH  16  18
ENDBRANCH   1  15
BRANCH   4  24
ATOM     24  C   UNL     1       2.101   3.245  21.006  0.00  0.00    +0.000 C 
ATOM     25  O   UNL     1       0.952   2.933  20.533  0.00  0.00    +0.000 OA
ATOM     26  OXT UNL     1       2.664   2.833  22.050  0.00  0.00    +0.000 OA
ENDBRANCH   4  24
TORSDOF 3
ENDMDL
MODEL 4
REMARK VINA RESULT:      -8.4      1.194      1.379
REMARK  Name = 
REMARK  3 active torsions:
REMARK  status: ('A' for Active; 'I' for Inactive)
REMARK    1  A    between atoms: C_2  and  C_3
REMARK    2  A    between atoms: CA_6  and  C_7
REMARK    3  A    between atoms: N_18  and  C_19
REMARK                            x       y       z     vdW  Elec       q    Type
REMARK                         _______ _______ _______ _____ _____    ______ ____
ROOT
ATOM      1  C   UNL     1       3.001   6.983  18.553  0.00  0.00    +0.000 C 
ATOM      2  C   UNL     1       3.427   5.770  18.147  0.00  0.00    +0.000 C 
ATOM      3  C   UNL     1       3.044   4.440  18.764  0.00  0.00    +0.000 C 
ATOM      4  CA  UNL     1       4.334   3.837  19.318  0.00  0.00    +0.000 C 
ATOM      5  N   UNL     1       5.243   3.504  18.215  0.00  0.00    +0.000 N 
ATOM      6  C   UNL     1       5.258   4.387  17.120  0.00  0.00    +0.000 A 
ATOM      7  C   UNL     1       6.185   4.149  16.098  0.00  0.00    +0.000 A 
ATOM      8  C   UNL     1       6.341   5.069  15.064  0.00  0.00    +0.000 A 
ATOM      9 CL   UNL     1       7.500   4.780  13.824  0.00  0.00    +0.000 Cl
ATOM     10  C   UNL     1       5.579   6.233  15.030  0.00  0.00    +0.000 A 
ATOM     11  C   UNL     1       4.633   6.477  16.028  0.00  0.00    +0.000 A 
ATOM     12  C   UNL     1       4.462   5.569  17.083  0.00  0.00    +0.000 A 
ATOM     13  H   UNL     1       5.248   2.503  18.005  0.00  0.00    +0.000 HD
ENDROOT
BRANCH   1  15
ATOM     14  O   UNL     1       1.829   6.349  20.532  0.00  0.00    +0.000 OA
ATOM     15  C   UNL     1       2.128   7.244  19.745  0.00  0.00    +0.000 C 
ATOM     16  N   UNL     1       1.748   8.571  19.832  0.00  0.00    +0.000 N 
ATOM     17  H   UNL     1       1.983   9.176  19.053  0.00  0.00    +0.000 HD
BRANCH  16  18
ATOM     18  C   UNL     1       0.969   9.165  20.851  0.00  0.00    +0.000 A 
ATOM     19  C   UNL     1       1.116   8.867  22.209  0.00  0.00    +0.000 A 
ATOM     20  C   UNL     1       0.278   9.449  23.163  0.00  0.00    +0.000 A 
ATOM     21  C   UNL     1      -0.711  10.345  22.773  0.00  0.00    +0.000 A 
ATOM     22  C   UNL     1      -0.843  10.682  21.427  0.00  0.00    +0.000 A 
ATOM     23  C   UNL     1      -0.001  10.103  20.471  0.00  0.00    +0.000 A 
ENDBRANCH  16  18
ENDBRANCH   1  15
BRANCH   4  24
ATOM     24  C   UNL     1       3.912   2.703  20.271  0.00  0.00    +0.000 C 
ATOM     25  O   UNL     1       4.848   1.865  20.515  0.00  0.00    +0.000 OA
ATOM     26  OXT UNL     1       2.735   2.723  20.709  0.00  0.00    +0.000 OA
ENDBRANCH   4  24
TORSDOF 3
ENDMDL
MODEL 5
REMARK VINA RESULT:      -8.1      1.555      1.992
REMARK  Name = 
REMARK  3 active torsions:
REMARK  status: ('A' for Active; 'I' for Inactive)
REMARK    1  A    between atoms: C_2  and  C_3
REMARK    2  A    between atoms: CA_6  and  C_7
REMARK    3  A    between atoms: N_18  and  C_19
REMARK                            x       y       z     vdW  Elec       q    Type
REMARK                         _______ _______ _______ _____ _____    ______ ____
ROOT
ATOM      1  C   UNL     1       2.465   8.364  17.972  0.00  0.00    +0.000 C 
ATOM      2  C   UNL     1       2.710   7.039  18.027  0.00  0.00    +0.000 C 
ATOM      3  C   UNL     1       1.867   6.007  18.748  0.00  0.00    +0.000 C 
ATOM      4  CA  UNL     1       2.756   5.418  19.843  0.00  0.00    +0.000 C 
ATOM      5  N   UNL     1       3.858   4.662  19.238  0.00  0.00    +0.000 N 
ATOM      6  C   UNL     1       4.405   5.183  18.052  0.00  0.00    +0.000 A 
ATOM      7  C   UNL     1       5.521   4.538  17.505  0.00  0.00    +0.000 A 
ATOM      8  C   UNL     1       6.189   5.092  16.416  0.00  0.00    +0.000 A 
ATOM      9 CL   UNL     1       7.574   4.305  15.764  0.00  0.00    +0.000 Cl
ATOM     10  C   UNL     1       5.756   6.290  15.854  0.00  0.00    +0.000 A 
ATOM     11  C   UNL     1       4.631   6.937  16.370  0.00  0.00    +0.000 A 
ATOM     12  C   UNL     1       3.946   6.402  17.471  0.00  0.00    +0.000 A 
ATOM     13  H   UNL     1       3.702   3.652  19.273  0.00  0.00    +0.000 HD
ENDROOT
BRANCH   1  15
ATOM     14  O   UNL     1       0.367   9.495  18.088  0.00  0.00    +0.000 OA
ATOM     15  C   UNL     1       1.352   9.072  18.688  0.00  0.00    +0.000 C 
ATOM     16  N   UNL     1       1.580   9.156  20.050  0.00  0.00    +0.000 N 
ATOM     17  H   UNL     1       2.486   8.856  20.391  0.00  0.00    +0.000 HD
BRANCH  16  18
ATOM     18  C   UNL     1       0.717   9.715  21.021  0.00  0.00    +0.000 A 
ATOM     19  C   UNL     1       0.337  11.060  21.033  0.00  0.00    +0.000 A 
ATOM     20  C   UNL     1      -0.476  11.564  22.052  0.00  0.00    +0.000 A 
ATOM     21  C   UNL     1      -0.929  10.725  23.064  0.00  0.00    +0.000 A 
ATOM     22  C   UNL     1      -0.591   9.373  23.042  0.00  0.00    +0.000 A 
ATOM     23  C   UNL     1       0.220   8.867  22.020  0.00  0.00    +0.000 A 
ENDBRANCH  16  18
ENDBRANCH   1  15
BRANCH   4  24
ATOM     24  C   UNL     1       1.819   4.674  20.813  0.00  0.00    +0.000 C 
ATOM     25  O   UNL     1       0.587   4.707  20.461  0.00  0.00    +0.000 OA
ATOM     26  OXT UNL     1       2.341   4.116  21.809  0.00  0.00    +0.000 OA
ENDBRANCH   4  24
TORSDOF 3
ENDMDL
MODEL 6
REMARK VINA RESULT:      -8.1      2.196      2.503
REMARK  Name = 
REMARK  3 active torsions:
REMARK  status: ('A' for Active; 'I' for Inactive)
REMARK    1  A    between atoms: C_2  and  C_3
REMARK    2  A    between atoms: CA_6  and  C_7
REMARK    3  A    between atoms: N_18  and  C_19
REMARK                            x       y       z     vdW  Elec       q    Type
REMARK                         _______ _______ _______ _____ _____    ______ ____
ROOT
ATOM      1  C   UNL     1       2.513   8.276  18.127  0.00  0.00    +0.000 C 
ATOM      2  C   UNL     1       2.746   6.948  18.126  0.00  0.00    +0.000 C 
ATOM      3  C   UNL     1       1.872   5.889  18.768  0.00  0.00    +0.000 C 
ATOM      4  CA  UNL     1       2.719   5.242  19.864  0.00  0.00    +0.000 C 
ATOM      5  N   UNL     1       3.836   4.506  19.261  0.00  0.00    +0.000 N 
ATOM      6  C   UNL     1       4.428   5.079  18.120  0.00  0.00    +0.000 A 
ATOM      7  C   UNL     1       5.558   4.452  17.582  0.00  0.00    +0.000 A 
ATOM      8  C   UNL     1       6.266   5.051  16.544  0.00  0.00    +0.000 A 
ATOM      9 CL   UNL     1       7.668   4.285  15.903  0.00  0.00    +0.000 Cl
ATOM     10  C   UNL     1       5.861   6.278  16.026  0.00  0.00    +0.000 A 
ATOM     11  C   UNL     1       4.723   6.909  16.534  0.00  0.00    +0.000 A 
ATOM     12  C   UNL     1       3.997   6.328  17.584  0.00  0.00    +0.000 A 
ATOM     13  H   UNL     1       3.673   3.497  19.242  0.00  0.00    +0.000 HD
ENDROOT
BRANCH   1  15
ATOM     14  O   UNL     1       1.227   8.855  20.052  0.00  0.00    +0.000 OA
ATOM     15  C   UNL     1       1.380   8.958  18.837  0.00  0.00    +0.000 C 
ATOM     16  N   UNL     1       0.591   9.693  17.972  0.00  0.00    +0.000 N 
ATOM     17  H   UNL     1       0.775   9.601  16.979  0.00  0.00    +0.000 HD
BRANCH  16  18
ATOM     18  C   UNL     1      -0.525  10.491  18.313  0.00  0.00    +0.000 A 
ATOM     19  C   UNL     1      -0.444  11.624  19.128  0.00  0.00    +0.000 A 
ATOM     20  C   UNL     1      -1.594  12.341  19.472  0.00  0.00    +0.000 A 
ATOM     21  C   UNL     1      -2.837  11.940  18.995  0.00  0.00    +0.000 A 
ATOM     22  C   UNL     1      -2.927  10.836  18.148  0.00  0.00    +0.000 A 
ATOM     23  C   UNL     1      -1.777  10.121  17.800  0.00  0.00    +0.000 A 
ENDBRANCH  16  18
ENDBRANCH   1  15
BRANCH   4  24
ATOM     24  C   UNL     1       1.744   4.460  20.764  0.00  0.00    +0.000 C 
ATOM     25  O   UNL     1       2.303   3.938  21.791  0.00  0.00    +0.000 OA
ATOM     26  OXT UNL     1       0.537   4.427  20.419  0.00  0.00    +0.000 OA
ENDBRANCH   4  24
TORSDOF 3
ENDMDL
MODEL 7
REMARK VINA RESULT:      -8.0      3.001      4.343
REMARK  Name = 
REMARK  3 active torsions:
REMARK  status: ('A' for Active; 'I' for Inactive)
REMARK    1  A    between atoms: C_2  and  C_3
REMARK    2  A    between atoms: CA_6  and  C_7
REMARK    3  A    between atoms: N_18  and  C_19
REMARK                            x       y       z     vdW  Elec       q    Type
REMARK                         _______ _______ _______ _____ _____    ______ ____
ROOT
ATOM      1  C   UNL     1       3.736   5.457  17.356  0.00  0.00    +0.000 C 
ATOM      2  C   UNL     1       5.039   5.290  17.051  0.00  0.00    +0.000 C 
ATOM      3  C   UNL     1       6.214   5.618  17.950  0.00  0.00    +0.000 C 
ATOM      4  CA  UNL     1       7.000   6.721  17.242  0.00  0.00    +0.000 C 
ATOM      5  N   UNL     1       7.593   6.196  16.007  0.00  0.00    +0.000 N 
ATOM      6  C   UNL     1       6.828   5.263  15.284  0.00  0.00    +0.000 A 
ATOM      7  C   UNL     1       7.324   4.819  14.053  0.00  0.00    +0.000 A 
ATOM      8  C   UNL     1       6.544   4.009  13.232  0.00  0.00    +0.000 A 
ATOM      9 CL   UNL     1       7.154   3.487  11.709  0.00  0.00    +0.000 Cl
ATOM     10  C   UNL     1       5.265   3.627  13.623  0.00  0.00    +0.000 A 
ATOM     11  C   UNL     1       4.760   4.040  14.859  0.00  0.00    +0.000 A 
ATOM     12  C   UNL     1       5.524   4.862  15.699  0.00  0.00    +0.000 A 
ATOM     13  H   UNL     1       8.592   5.998  16.109  0.00  0.00    +0.000 HD
ENDROOT
BRANCH   1  15
ATOM     14  O   UNL     1       3.466   5.600  19.723  0.00  0.00    +0.000 OA
ATOM     15  C   UNL     1       3.213   6.076  18.619  0.00  0.00    +0.000 C 
ATOM     16  N   UNL     1       2.462   7.210  18.369  0.00  0.00    +0.000 N 
ATOM     17  H   UNL     1       2.248   7.426  17.402  0.00  0.00    +0.000 HD
BRANCH  16  18
ATOM     18  C   UNL     1       1.862   8.058  19.329  0.00  0.00    +0.000 A 
ATOM     19  C   UNL     1       1.711   7.716  20.676  0.00  0.00    +0.000 A 
ATOM     20  C   UNL     1       1.062   8.578  21.564  0.00  0.00    +0.000 A 
ATOM     21  C   UNL     1       0.565   9.798  21.118  0.00  0.00    +0.000 A 
ATOM     22  C   UNL     1       0.744  10.169  19.787  0.00  0.00    +0.000 A 
ATOM     23  C   UNL     1       1.398   9.309  18.898  0.00  0.00    +0.000 A 
ENDBRANCH  16  18
ENDBRANCH   1  15
BRANCH   4  24
ATOM     24  C   UNL     1       7.946   7.327  18.295  0.00  0.00    +0.000 C 
ATOM     25  O   UNL     1       8.311   6.493  19.195  0.00  0.00    +0.000 OA
ATOM     26  OXT UNL     1       8.265   8.534  18.160  0.00  0.00    +0.000 OA
ENDBRANCH   4  24
TORSDOF 3
ENDMDL
MODEL 8
REMARK VINA RESULT:      -7.9      1.337      1.815
REMARK  Name = 
REMARK  3 active torsions:
REMARK  status: ('A' for Active; 'I' for Inactive)
REMARK    1  A    between atoms: C_2  and  C_3
REMARK    2  A    between atoms: CA_6  and  C_7
REMARK    3  A    between atoms: N_18  and  C_19
REMARK                            x       y       z     vdW  Elec       q    Type
REMARK                         _______ _______ _______ _____ _____    ______ ____
ROOT
ATOM      1  C   UNL     1       2.450   7.970  18.785  0.00  0.00    +0.000 C 
ATOM      2  C   UNL     1       2.603   6.651  18.552  0.00  0.00    +0.000 C 
ATOM      3  C   UNL     1       1.772   5.537  19.158  0.00  0.00    +0.000 C 
ATOM      4  CA  UNL     1       2.731   4.699  20.003  0.00  0.00    +0.000 C 
ATOM      5  N   UNL     1       3.704   4.027  19.134  0.00  0.00    +0.000 N 
ATOM      6  C   UNL     1       4.154   4.747  18.012  0.00  0.00    +0.000 A 
ATOM      7  C   UNL     1       5.155   4.172  17.220  0.00  0.00    +0.000 A 
ATOM      8  C   UNL     1       5.737   4.899  16.186  0.00  0.00    +0.000 A 
ATOM      9 CL   UNL     1       6.982   4.192  15.231  0.00  0.00    +0.000 Cl
ATOM     10  C   UNL     1       5.332   6.205  15.923  0.00  0.00    +0.000 A 
ATOM     11  C   UNL     1       4.320   6.789  16.687  0.00  0.00    +0.000 A 
ATOM     12  C   UNL     1       3.723   6.079  17.738  0.00  0.00    +0.000 A 
ATOM     13  H   UNL     1       3.481   3.039  18.991  0.00  0.00    +0.000 HD
ENDROOT
BRANCH   1  15
ATOM     14  O   UNL     1       1.216   8.034  20.826  0.00  0.00    +0.000 OA
ATOM     15  C   UNL     1       1.475   8.574  19.753  0.00  0.00    +0.000 C 
ATOM     16  N   UNL     1       0.957   9.770  19.292  0.00  0.00    +0.000 N 
ATOM     17  H   UNL     1       1.182  10.041  18.342  0.00  0.00    +0.000 HD
BRANCH  16  18
ATOM     18  C   UNL     1       0.053  10.620  19.970  0.00  0.00    +0.000 A 
ATOM     19  C   UNL     1      -1.167  11.038  19.431  0.00  0.00    +0.000 A 
ATOM     20  C   UNL     1      -1.993  11.922  20.131  0.00  0.00    +0.000 A 
ATOM     21  C   UNL     1      -1.613  12.391  21.384  0.00  0.00    +0.000 A 
ATOM     22  C   UNL     1      -0.419  11.951  21.951  0.00  0.00    +0.000 A 
ATOM     23  C   UNL     1       0.407  11.062  21.253  0.00  0.00    +0.000 A 
ENDBRANCH  16  18
ENDBRANCH   1  15
BRANCH   4  24
ATOM     24  C   UNL     1       1.855   3.822  20.916  0.00  0.00    +0.000 C 
ATOM     25  O   UNL     1       0.761   3.445  20.368  0.00  0.00    +0.000 OA
ATOM     26  OXT UNL     1       2.294   3.562  22.064  0.00  0.00    +0.000 OA
ENDBRANCH   4  24
TORSDOF 3
ENDMDL
MODEL 9
REMARK VINA RESULT:      -7.9      3.713      8.451
REMARK  Name = 
REMARK  3 active torsions:
REMARK  status: ('A' for Active; 'I' for Inactive)
REMARK    1  A    between atoms: C_2  and  C_3
REMARK    2  A    between atoms: CA_6  and  C_7
REMARK    3  A    between atoms: N_18  and  C_19
REMARK                            x       y       z     vdW  Elec       q    Type
REMARK                         _______ _______ _______ _____ _____    ______ ____
ROOT
ATOM      1  C   UNL     1       5.008   5.551  15.880  0.00  0.00    +0.000 C 
ATOM      2  C   UNL     1       4.654   5.434  17.176  0.00  0.00    +0.000 C 
ATOM      3  C   UNL     1       5.050   4.308  18.110  0.00  0.00    +0.000 C 
ATOM      4  CA  UNL     1       3.752   3.606  18.507  0.00  0.00    +0.000 C 
ATOM      5  N   UNL     1       2.926   4.507  19.319  0.00  0.00    +0.000 N 
ATOM      6  C   UNL     1       2.944   5.870  18.967  0.00  0.00    +0.000 A 
ATOM      7  C   UNL     1       2.091   6.738  19.659  0.00  0.00    +0.000 A 
ATOM      8  C   UNL     1       1.964   8.065  19.257  0.00  0.00    +0.000 A 
ATOM      9 CL   UNL     1       0.896   9.119  20.100  0.00  0.00    +0.000 Cl
ATOM     10  C   UNL     1       2.682   8.547  18.167  0.00  0.00    +0.000 A 
ATOM     11  C   UNL     1       3.555   7.703  17.478  0.00  0.00    +0.000 A 
ATOM     12  C   UNL     1       3.696   6.361  17.859  0.00  0.00    +0.000 A 
ATOM     13  H   UNL     1       2.972   4.285  20.316  0.00  0.00    +0.000 HD
ENDROOT
BRANCH   1  15
ATOM     14  O   UNL     1       6.691   3.880  15.622  0.00  0.00    +0.000 OA
ATOM     15  C   UNL     1       5.796   4.539  15.101  0.00  0.00    +0.000 C 
ATOM     16  N   UNL     1       5.373   4.452  13.787  0.00  0.00    +0.000 N 
ATOM     17  H   UNL     1       4.693   5.132  13.468  0.00  0.00    +0.000 HD
BRANCH  16  18
ATOM     18  C   UNL     1       5.864   3.572  12.795  0.00  0.00    +0.000 A 
ATOM     19  C   UNL     1       5.092   2.570  12.199  0.00  0.00    +0.000 A 
ATOM     20  C   UNL     1       5.652   1.697  11.263  0.00  0.00    +0.000 A 
ATOM     21  C   UNL     1       6.989   1.823  10.901  0.00  0.00    +0.000 A 
ATOM     22  C   UNL     1       7.760   2.842  11.456  0.00  0.00    +0.000 A 
ATOM     23  C   UNL     1       7.199   3.719  12.391  0.00  0.00    +0.000 A 
ENDBRANCH  16  18
ENDBRANCH   1  15
BRANCH   4  24
ATOM     24  C   UNL     1       4.158   2.253  19.121  0.00  0.00    +0.000 C 
ATOM     25  O   UNL     1       3.646   1.244  18.522  0.00  0.00    +0.000 OA
ATOM     26  OXT UNL     1       4.937   2.275  20.107  0.00  0.00    +0.000 OA
ENDBRANCH   4  24
TORSDOF 3
ENDMDL
