MODEL 1
REMARK VINA RESULT:      -8.9      0.000      0.000
REMARK  Name = 
REMARK  3 active torsions:
REMARK  status: ('A' for Active; 'I' for Inactive)
REMARK    1  A    between atoms: C_2  and  C_3
REMARK    2  A    between atoms: C_12  and  C_13
REMARK    3  A    between atoms: C_16  and  C_17
REMARK                            x       y       z     vdW  Elec       q    Type
REMARK                         _______ _______ _______ _____ _____    ______ ____
ROOT
ATOM      1  O   UNL     1       1.750   5.747  19.891  0.00  0.00    +0.000 OA
ATOM      2  C   UNL     1       2.791   5.126  19.639  0.00  0.00    +0.000 C 
ATOM      3  N   UNL     1       3.694   5.687  18.765  0.00  0.00    +0.000 N 
ATOM      4  C   UNL     1       3.443   7.024  18.258  0.00  0.00    +0.000 C 
ATOM      5  C   UNL     1       4.351   7.167  17.052  0.00  0.00    +0.000 C 
ATOM      6  C   UNL     1       5.563   6.314  17.425  0.00  0.00    +0.000 C 
ATOM      7  C   UNL     1       4.975   5.187  18.281  0.00  0.00    +0.000 C 
ENDROOT
BRANCH   2   8
ATOM      8  C   UNL     1       3.031   3.730  20.264  0.00  0.00    +0.000 C 
ATOM      9  C   UNL     1       1.847   3.103  21.003  0.00  0.00    +0.000 C 
ATOM     10  C   UNL     1       0.630   3.028  20.090  0.00  0.00    +0.000 C 
ATOM     11  C   UNL     1       0.917   2.149  18.873  0.00  0.00    +0.000 C 
ATOM     12  C   UNL     1       2.245   2.463  18.179  0.00  0.00    +0.000 C 
ATOM     13  C   UNL     1       3.408   2.718  19.151  0.00  0.00    +0.000 C 
ENDBRANCH   2   8
BRANCH   6  14
ATOM     14  C   UNL     1       6.303   5.831  16.241  0.00  0.00    +0.000 A 
ATOM     15  N   UNL     1       7.564   6.026  15.898  0.00  0.00    +0.000 NA
ATOM     16  N   UNL     1       7.746   5.345  14.715  0.00  0.00    +0.000 NA
ATOM     17  C   UNL     1       6.590   4.792  14.407  0.00  0.00    +0.000 A 
ATOM     18  O   UNL     1       5.618   5.069  15.337  0.00  0.00    +0.000 OA
BRANCH  17  19
ATOM     19  C   UNL     1       6.214   3.983  13.258  0.00  0.00    +0.000 A 
ATOM     20  C   UNL     1       4.861   3.886  12.892  0.00  0.00    +0.000 A 
ATOM     21  C   UNL     1       4.466   3.084  11.820  0.00  0.00    +0.000 A 
ATOM     22  C   UNL     1       5.418   2.367  11.100  0.00  0.00    +0.000 A 
ATOM     23  C   UNL     1       6.765   2.465  11.438  0.00  0.00    +0.000 A 
ATOM     24  C   UNL     1       7.162   3.271  12.508  0.00  0.00    +0.000 A 
ENDBRANCH  17  19
ENDBRANCH   6  14
TORSDOF 3
ENDMDL
MODEL 2
REMARK VINA RESULT:      -8.5      0.791      1.824
REMARK  Name = 
REMARK  3 active torsions:
REMARK  status: ('A' for Active; 'I' for Inactive)
REMARK    1  A    between atoms: C_2  and  C_3
REMARK    2  A    between atoms: C_12  and  C_13
REMARK    3  A    between atoms: C_16  and  C_17
REMARK                            x       y       z     vdW  Elec       q    Type
REMARK                         _______ _______ _______ _____ _____    ______ ____
ROOT
ATOM      1  O   UNL     1       1.618   5.566  19.344  0.00  0.00    +0.000 OA
ATOM      2  C   UNL     1       2.370   4.734  18.820  0.00  0.00    +0.000 C 
ATOM      3  N   UNL     1       3.527   5.180  18.223  0.00  0.00    +0.000 N 
ATOM      4  C   UNL     1       3.871   6.588  18.323  0.00  0.00    +0.000 C 
ATOM      5  C   UNL     1       4.919   6.816  17.252  0.00  0.00    +0.000 C 
ATOM      6  C   UNL     1       5.656   5.479  17.194  0.00  0.00    +0.000 C 
ATOM      7  C   UNL     1       4.576   4.444  17.528  0.00  0.00    +0.000 C 
ENDROOT
BRANCH   2   8
ATOM      8  C   UNL     1       1.977   3.237  18.802  0.00  0.00    +0.000 C 
ATOM      9  C   UNL     1       3.065   2.242  19.216  0.00  0.00    +0.000 C 
ATOM     10  C   UNL     1       3.603   2.590  20.598  0.00  0.00    +0.000 C 
ATOM     11  C   UNL     1       2.497   2.510  21.649  0.00  0.00    +0.000 C 
ATOM     12  C   UNL     1       1.204   3.224  21.245  0.00  0.00    +0.000 C 
ATOM     13  C   UNL     1       0.799   2.994  19.780  0.00  0.00    +0.000 C 
ENDBRANCH   2   8
BRANCH   6  14
ATOM     14  C   UNL     1       6.310   5.247  15.890  0.00  0.00    +0.000 A 
ATOM     15  N   UNL     1       7.409   5.786  15.390  0.00  0.00    +0.000 NA
ATOM     16  N   UNL     1       7.585   5.214  14.150  0.00  0.00    +0.000 NA
ATOM     17  C   UNL     1       6.583   4.377  13.968  0.00  0.00    +0.000 A 
ATOM     18  O   UNL     1       5.723   4.354  15.039  0.00  0.00    +0.000 OA
BRANCH  17  19
ATOM     19  C   UNL     1       6.265   3.528  12.830  0.00  0.00    +0.000 A 
ATOM     20  C   UNL     1       7.303   2.881  12.138  0.00  0.00    +0.000 A 
ATOM     21  C   UNL     1       7.032   2.094  11.017  0.00  0.00    +0.000 A 
ATOM     22  C   UNL     1       5.721   1.944  10.572  0.00  0.00    +0.000 A 
ATOM     23  C   UNL     1       4.679   2.564  11.257  0.00  0.00    +0.000 A 
ATOM     24  C   UNL     1       4.949   3.348  12.382  0.00  0.00    +0.000 A 
ENDBRANCH  17  19
ENDBRANCH   6  14
TORSDOF 3
ENDMDL
MODEL 3
REMARK VINA RESULT:      -8.5      4.518      6.936
REMARK  Name = 
REMARK  3 active torsions:
REMARK  status: ('A' for Active; 'I' for Inactive)
REMARK    1  A    between atoms: C_2  and  C_3
REMARK    2  A    between atoms: C_12  and  C_13
REMARK    3  A    between atoms: C_16  and  C_17
REMARK                            x       y       z     vdW  Elec       q    Type
REMARK                         _______ _______ _______ _____ _____    ______ ____
ROOT
ATOM      1  O   UNL     1       4.569   3.323  19.508  0.00  0.00    +0.000 OA
ATOM      2  C   UNL     1       4.554   4.250  18.687  0.00  0.00    +0.000 C 
ATOM      3  N   UNL     1       5.687   5.015  18.542  0.00  0.00    +0.000 N 
ATOM      4  C   UNL     1       6.885   4.644  19.275  0.00  0.00    +0.000 C 
ATOM      5  C   UNL     1       7.772   5.872  19.232  0.00  0.00    +0.000 C 
ATOM      6  C   UNL     1       7.429   6.504  17.884  0.00  0.00    +0.000 C 
ATOM      7  C   UNL     1       5.950   6.160  17.678  0.00  0.00    +0.000 C 
ENDROOT
BRANCH   2   8
ATOM      8  C   UNL     1       3.264   4.556  17.888  0.00  0.00    +0.000 C 
ATOM      9  C   UNL     1       2.246   3.418  17.777  0.00  0.00    +0.000 C 
ATOM     10  C   UNL     1       1.856   2.918  19.162  0.00  0.00    +0.000 C 
ATOM     11  C   UNL     1       1.199   4.031  19.977  0.00  0.00    +0.000 C 
ATOM     12  C   UNL     1       1.963   5.357  19.945  0.00  0.00    +0.000 C 
ATOM     13  C   UNL     1       2.503   5.730  18.555  0.00  0.00    +0.000 C 
ENDBRANCH   2   8
BRANCH   6  14
ATOM     14  C   UNL     1       7.708   7.954  17.849  0.00  0.00    +0.000 A 
ATOM     15  N   UNL     1       7.125   8.908  17.144  0.00  0.00    +0.000 NA
ATOM     16  N   UNL     1       7.754  10.081  17.497  0.00  0.00    +0.000 NA
ATOM     17  C   UNL     1       8.682   9.769  18.379  0.00  0.00    +0.000 A 
ATOM     18  O   UNL     1       8.715   8.422  18.644  0.00  0.00    +0.000 OA
BRANCH  17  19
ATOM     19  C   UNL     1       9.649  10.615  19.062  0.00  0.00    +0.000 A 
ATOM     20  C   UNL     1       9.394  11.033  20.379  0.00  0.00    +0.000 A 
ATOM     21  C   UNL     1      10.283  11.879  21.045  0.00  0.00    +0.000 A 
ATOM     22  C   UNL     1      11.438  12.319  20.404  0.00  0.00    +0.000 A 
ATOM     23  C   UNL     1      11.715  11.900  19.105  0.00  0.00    +0.000 A 
ATOM     24  C   UNL     1      10.828  11.050  18.439  0.00  0.00    +0.000 A 
ENDBRANCH  17  19
ENDBRANCH   6  14
TORSDOF 3
ENDMDL
MODEL 4
REMARK VINA RESULT:      -8.5      0.997      1.491
REMARK  Name = 
REMARK  3 active torsions:
REMARK  status: ('A' for Active; 'I' for Inactive)
REMARK    1  A    between atoms: C_2  and  C_3
REMARK    2  A    between atoms: C_12  and  C_13
REMARK    3  A    between atoms: C_16  and  C_17
REMARK                            x       y       z     vdW  Elec       q    Type
REMARK                         _______ _______ _______ _____ _____    ______ ____
ROOT
ATOM      1  O   UNL     1       3.187   5.332  20.140  0.00  0.00    +0.000 OA
ATOM      2  C   UNL     1       3.868   4.534  19.483  0.00  0.00    +0.000 C 
ATOM      3  N   UNL     1       4.756   5.035  18.559  0.00  0.00    +0.000 N 
ATOM      4  C   UNL     1       4.936   6.473  18.466  0.00  0.00    +0.000 C 
ATOM      5  C   UNL     1       5.619   6.701  17.132  0.00  0.00    +0.000 C 
ATOM      6  C   UNL     1       6.475   5.447  16.959  0.00  0.00    +0.000 C 
ATOM      7  C   UNL     1       5.663   4.346  17.650  0.00  0.00    +0.000 C 
ENDROOT
BRANCH   2   8
ATOM      8  C   UNL     1       3.676   3.010  19.675  0.00  0.00    +0.000 C 
ATOM      9  C   UNL     1       2.841   2.576  20.882  0.00  0.00    +0.000 C 
ATOM     10  C   UNL     1       1.471   3.241  20.847  0.00  0.00    +0.000 C 
ATOM     11  C   UNL     1       0.699   2.829  19.595  0.00  0.00    +0.000 C 
ATOM     12  C   UNL     1       1.513   2.927  18.302  0.00  0.00    +0.000 C 
ATOM     13  C   UNL     1       2.957   2.414  18.437  0.00  0.00    +0.000 C 
ENDBRANCH   2   8
BRANCH   6  14
ATOM     14  C   UNL     1       6.778   5.157  15.543  0.00  0.00    +0.000 A 
ATOM     15  N   UNL     1       7.777   5.582  14.790  0.00  0.00    +0.000 NA
ATOM     16  N   UNL     1       7.597   5.001  13.555  0.00  0.00    +0.000 NA
ATOM     17  C   UNL     1       6.501   4.273  13.628  0.00  0.00    +0.000 A 
ATOM     18  O   UNL     1       5.919   4.333  14.871  0.00  0.00    +0.000 OA
BRANCH  17  19
ATOM     19  C   UNL     1       5.841   3.467  12.612  0.00  0.00    +0.000 A 
ATOM     20  C   UNL     1       6.496   2.340  12.088  0.00  0.00    +0.000 A 
ATOM     21  C   UNL     1       5.905   1.572  11.083  0.00  0.00    +0.000 A 
ATOM     22  C   UNL     1       4.651   1.922  10.588  0.00  0.00    +0.000 A 
ATOM     23  C   UNL     1       3.980   3.026  11.109  0.00  0.00    +0.000 A 
ATOM     24  C   UNL     1       4.569   3.791  12.118  0.00  0.00    +0.000 A 
ENDBRANCH  17  19
ENDBRANCH   6  14
TORSDOF 3
ENDMDL
MODEL 5
REMARK VINA RESULT:      -8.3      0.992      1.633
REMARK  Name = 
REMARK  3 active torsions:
REMARK  status: ('A' for Active; 'I' for Inactive)
REMARK    1  A    between atoms: C_2  and  C_3
REMARK    2  A    between atoms: C_12  and  C_13
REMARK    3  A    between atoms: C_16  and  C_17
REMARK                            x       y       z     vdW  Elec       q    Type
REMARK                         _______ _______ _______ _____ _____    ______ ____
ROOT
ATOM      1  O   UNL     1       2.556   6.000  19.888  0.00  0.00    +0.000 OA
ATOM      2  C   UNL     1       2.966   5.113  19.129  0.00  0.00    +0.000 C 
ATOM      3  N   UNL     1       4.148   5.319  18.456  0.00  0.00    +0.000 N 
ATOM      4  C   UNL     1       4.919   6.517  18.741  0.00  0.00    +0.000 C 
ATOM      5  C   UNL     1       5.890   6.648  17.585  0.00  0.00    +0.000 C 
ATOM      6  C   UNL     1       6.168   5.196  17.197  0.00  0.00    +0.000 C 
ATOM      7  C   UNL     1       4.854   4.471  17.504  0.00  0.00    +0.000 C 
ENDROOT
BRANCH   2   8
ATOM      8  C   UNL     1       2.129   3.828  18.915  0.00  0.00    +0.000 C 
ATOM      9  C   UNL     1       2.874   2.498  19.054  0.00  0.00    +0.000 C 
ATOM     10  C   UNL     1       3.561   2.415  20.411  0.00  0.00    +0.000 C 
ATOM     11  C   UNL     1       2.537   2.476  21.543  0.00  0.00    +0.000 C 
ATOM     12  C   UNL     1       1.511   3.602  21.392  0.00  0.00    +0.000 C 
ATOM     13  C   UNL     1       0.983   3.772  19.958  0.00  0.00    +0.000 C 
ENDBRANCH   2   8
BRANCH   6  14
ATOM     14  C   UNL     1       6.604   5.058  15.792  0.00  0.00    +0.000 A 
ATOM     15  N   UNL     1       7.586   5.666  15.150  0.00  0.00    +0.000 NA
ATOM     16  N   UNL     1       7.572   5.164  13.868  0.00  0.00    +0.000 NA
ATOM     17  C   UNL     1       6.583   4.296  13.806  0.00  0.00    +0.000 A 
ATOM     18  O   UNL     1       5.914   4.184  15.001  0.00  0.00    +0.000 OA
BRANCH  17  19
ATOM     19  C   UNL     1       6.109   3.492  12.690  0.00  0.00    +0.000 A 
ATOM     20  C   UNL     1       4.774   3.611  12.269  0.00  0.00    +0.000 A 
ATOM     21  C   UNL     1       4.280   2.823  11.227  0.00  0.00    +0.000 A 
ATOM     22  C   UNL     1       5.114   1.904  10.594  0.00  0.00    +0.000 A 
ATOM     23  C   UNL     1       6.445   1.787  10.988  0.00  0.00    +0.000 A 
ATOM     24  C   UNL     1       6.941   2.579  12.027  0.00  0.00    +0.000 A 
ENDBRANCH  17  19
ENDBRANCH   6  14
TORSDOF 3
ENDMDL
MODEL 6
REMARK VINA RESULT:      -8.2      3.818      6.195
REMARK  Name = 
REMARK  3 active torsions:
REMARK  status: ('A' for Active; 'I' for Inactive)
REMARK    1  A    between atoms: C_2  and  C_3
REMARK    2  A    between atoms: C_12  and  C_13
REMARK    3  A    between atoms: C_16  and  C_17
REMARK                            x       y       z     vdW  Elec       q    Type
REMARK                         _______ _______ _______ _____ _____    ______ ____
ROOT
ATOM      1  O   UNL     1       3.364   2.807  17.096  0.00  0.00    +0.000 OA
ATOM      2  C   UNL     1       3.454   3.999  17.417  0.00  0.00    +0.000 C 
ATOM      3  N   UNL     1       4.633   4.660  17.161  0.00  0.00    +0.000 N 
ATOM      4  C   UNL     1       5.682   3.969  16.432  0.00  0.00    +0.000 C 
ATOM      5  C   UNL     1       6.937   4.780  16.681  0.00  0.00    +0.000 C 
ATOM      6  C   UNL     1       6.411   6.209  16.810  0.00  0.00    +0.000 C 
ATOM      7  C   UNL     1       5.023   6.037  17.436  0.00  0.00    +0.000 C 
ENDROOT
BRANCH   2   8
ATOM      8  C   UNL     1       2.275   4.699  18.136  0.00  0.00    +0.000 C 
ATOM      9  C   UNL     1       0.955   3.926  18.190  0.00  0.00    +0.000 C 
ATOM     10  C   UNL     1       1.169   2.556  18.822  0.00  0.00    +0.000 C 
ATOM     11  C   UNL     1       1.670   2.692  20.259  0.00  0.00    +0.000 C 
ATOM     12  C   UNL     1       2.827   3.681  20.422  0.00  0.00    +0.000 C 
ATOM     13  C   UNL     1       2.654   4.977  19.613  0.00  0.00    +0.000 C 
ENDBRANCH   2   8
BRANCH   6  14
ATOM     14  C   UNL     1       7.310   7.076  17.597  0.00  0.00    +0.000 A 
ATOM     15  N   UNL     1       8.045   6.789  18.658  0.00  0.00    +0.000 NA
ATOM     16  N   UNL     1       8.706   7.950  18.990  0.00  0.00    +0.000 NA
ATOM     17  C   UNL     1       8.327   8.869  18.125  0.00  0.00    +0.000 A 
ATOM     18  O   UNL     1       7.427   8.381  17.209  0.00  0.00    +0.000 OA
BRANCH  17  19
ATOM     19  C   UNL     1       8.698  10.272  18.024  0.00  0.00    +0.000 A 
ATOM     20  C   UNL     1       9.948  10.694  18.507  0.00  0.00    +0.000 A 
ATOM     21  C   UNL     1      10.315  12.040  18.462  0.00  0.00    +0.000 A 
ATOM     22  C   UNL     1       9.436  12.983  17.935  0.00  0.00    +0.000 A 
ATOM     23  C   UNL     1       8.200  12.579  17.435  0.00  0.00    +0.000 A 
ATOM     24  C   UNL     1       7.835  11.231  17.476  0.00  0.00    +0.000 A 
ENDBRANCH  17  19
ENDBRANCH   6  14
TORSDOF 3
ENDMDL
MODEL 7
REMARK VINA RESULT:      -8.2      4.041      6.344
REMARK  Name = 
REMARK  3 active torsions:
REMARK  status: ('A' for Active; 'I' for Inactive)
REMARK    1  A    between atoms: C_2  and  C_3
REMARK    2  A    between atoms: C_12  and  C_13
REMARK    3  A    between atoms: C_16  and  C_17
REMARK                            x       y       z     vdW  Elec       q    Type
REMARK                         _______ _______ _______ _____ _____    ______ ____
ROOT
ATOM      1  O   UNL     1       3.703   3.121  17.213  0.00  0.00    +0.000 OA
ATOM      2  C   UNL     1       3.776   4.342  17.404  0.00  0.00    +0.000 C 
ATOM      3  N   UNL     1       4.991   4.962  17.225  0.00  0.00    +0.000 N 
ATOM      4  C   UNL     1       6.109   4.185  16.720  0.00  0.00    +0.000 C 
ATOM      5  C   UNL     1       7.340   5.012  17.032  0.00  0.00    +0.000 C 
ATOM      6  C   UNL     1       6.830   6.449  16.928  0.00  0.00    +0.000 C 
ATOM      7  C   UNL     1       5.371   6.360  17.387  0.00  0.00    +0.000 C 
ENDROOT
BRANCH   2   8
ATOM      8  C   UNL     1       2.530   5.128  17.880  0.00  0.00    +0.000 C 
ATOM      9  C   UNL     1       1.188   4.398  17.786  0.00  0.00    +0.000 C 
ATOM     10  C   UNL     1       1.249   3.075  18.538  0.00  0.00    +0.000 C 
ATOM     11  C   UNL     1       1.532   3.306  20.022  0.00  0.00    +0.000 C 
ATOM     12  C   UNL     1       2.689   4.272  20.291  0.00  0.00    +0.000 C 
ATOM     13  C   UNL     1       2.692   5.507  19.375  0.00  0.00    +0.000 C 
ENDBRANCH   2   8
BRANCH   6  14
ATOM     14  C   UNL     1       7.640   7.398  17.718  0.00  0.00    +0.000 A 
ATOM     15  N   UNL     1       8.328   7.198  18.829  0.00  0.00    +0.000 NA
ATOM     16  N   UNL     1       8.912   8.407  19.138  0.00  0.00    +0.000 NA
ATOM     17  C   UNL     1       8.537   9.263  18.210  0.00  0.00    +0.000 A 
ATOM     18  O   UNL     1       7.714   8.687  17.273  0.00  0.00    +0.000 OA
BRANCH  17  19
ATOM     19  C   UNL     1       8.844  10.678  18.060  0.00  0.00    +0.000 A 
ATOM     20  C   UNL     1       7.869  11.546  17.542  0.00  0.00    +0.000 A 
ATOM     21  C   UNL     1       8.149  12.901  17.348  0.00  0.00    +0.000 A 
ATOM     22  C   UNL     1       9.407  13.404  17.668  0.00  0.00    +0.000 A 
ATOM     23  C   UNL     1      10.379  12.560  18.200  0.00  0.00    +0.000 A 
ATOM     24  C   UNL     1      10.098  11.205  18.398  0.00  0.00    +0.000 A 
ENDBRANCH  17  19
ENDBRANCH   6  14
TORSDOF 3
ENDMDL
MODEL 8
REMARK VINA RESULT:      -7.9      3.897      7.940
REMARK  Name = 
REMARK  3 active torsions:
REMARK  status: ('A' for Active; 'I' for Inactive)
REMARK    1  A    between atoms: C_2  and  C_3
REMARK    2  A    between atoms: C_12  and  C_13
REMARK    3  A    between atoms: C_16  and  C_17
REMARK                            x       y       z     vdW  Elec       q    Type
REMARK                         _______ _______ _______ _____ _____    ______ ____
ROOT
ATOM      1  O   UNL     1       5.542   4.074  18.794  0.00  0.00    +0.000 OA
ATOM      2  C   UNL     1       4.393   4.459  19.047  0.00  0.00    +0.000 C 
ATOM      3  N   UNL     1       3.961   5.642  18.492  0.00  0.00    +0.000 N 
ATOM      4  C   UNL     1       4.825   6.334  17.552  0.00  0.00    +0.000 C 
ATOM      5  C   UNL     1       4.268   7.741  17.464  0.00  0.00    +0.000 C 
ATOM      6  C   UNL     1       2.768   7.536  17.673  0.00  0.00    +0.000 C 
ATOM      7  C   UNL     1       2.685   6.335  18.622  0.00  0.00    +0.000 C 
ENDROOT
BRANCH   2   8
ATOM      8  C   UNL     1       3.495   3.642  20.008  0.00  0.00    +0.000 C 
ATOM      9  C   UNL     1       1.996   3.637  19.700  0.00  0.00    +0.000 C 
ATOM     10  C   UNL     1       1.749   3.159  18.274  0.00  0.00    +0.000 C 
ATOM     11  C   UNL     1       2.252   1.729  18.085  0.00  0.00    +0.000 C 
ATOM     12  C   UNL     1       3.664   1.491  18.625  0.00  0.00    +0.000 C 
ATOM     13  C   UNL     1       3.928   2.154  19.987  0.00  0.00    +0.000 C 
ENDBRANCH   2   8
BRANCH   6  14
ATOM     14  C   UNL     1       2.097   8.745  18.192  0.00  0.00    +0.000 A 
ATOM     15  N   UNL     1       1.994   9.948  17.655  0.00  0.00    +0.000 NA
ATOM     16  N   UNL     1       1.255  10.699  18.542  0.00  0.00    +0.000 NA
ATOM     17  C   UNL     1       0.966   9.916  19.561  0.00  0.00    +0.000 A 
ATOM     18  O   UNL     1       1.481   8.652  19.408  0.00  0.00    +0.000 OA
BRANCH  17  19
ATOM     19  C   UNL     1       0.227  10.200  20.783  0.00  0.00    +0.000 A 
ATOM     20  C   UNL     1      -0.567  11.356  20.858  0.00  0.00    +0.000 A 
ATOM     21  C   UNL     1      -1.254  11.676  22.031  0.00  0.00    +0.000 A 
ATOM     22  C   UNL     1      -1.155  10.845  23.144  0.00  0.00    +0.000 A 
ATOM     23  C   UNL     1      -0.385   9.686  23.080  0.00  0.00    +0.000 A 
ATOM     24  C   UNL     1       0.298   9.363  21.905  0.00  0.00    +0.000 A 
ENDBRANCH  17  19
ENDBRANCH   6  14
TORSDOF 3
ENDMDL
MODEL 9
REMARK VINA RESULT:      -7.9      1.065      1.465
REMARK  Name = 
REMARK  3 active torsions:
REMARK  status: ('A' for Active; 'I' for Inactive)
REMARK    1  A    between atoms: C_2  and  C_3
REMARK    2  A    between atoms: C_12  and  C_13
REMARK    3  A    between atoms: C_16  and  C_17
REMARK                            x       y       z     vdW  Elec       q    Type
REMARK                         _______ _______ _______ _____ _____    ______ ____
ROOT
ATOM      1  O   UNL     1       1.231   5.688  20.318  0.00  0.00    +0.000 OA
ATOM      2  C   UNL     1       2.306   5.074  20.299  0.00  0.00    +0.000 C 
ATOM      3  N   UNL     1       3.325   5.562  19.514  0.00  0.00    +0.000 N 
ATOM      4  C   UNL     1       3.139   6.829  18.827  0.00  0.00    +0.000 C 
ATOM      5  C   UNL     1       4.220   6.865  17.765  0.00  0.00    +0.000 C 
ATOM      6  C   UNL     1       5.370   6.094  18.411  0.00  0.00    +0.000 C 
ATOM      7  C   UNL     1       4.671   5.051  19.289  0.00  0.00    +0.000 C 
ENDROOT
BRANCH   2   8
ATOM      8  C   UNL     1       2.464   3.763  21.105  0.00  0.00    +0.000 C 
ATOM      9  C   UNL     1       1.184   2.961  21.358  0.00  0.00    +0.000 C 
ATOM     10  C   UNL     1       0.487   2.645  20.042  0.00  0.00    +0.000 C 
ATOM     11  C   UNL     1       1.381   1.792  19.144  0.00  0.00    +0.000 C 
ATOM     12  C   UNL     1       2.816   2.312  19.022  0.00  0.00    +0.000 C 
ATOM     13  C   UNL     1       3.415   2.798  20.352  0.00  0.00    +0.000 C 
ENDBRANCH   2   8
BRANCH   6  14
ATOM     14  C   UNL     1       6.290   5.507  17.415  0.00  0.00    +0.000 A 
ATOM     15  N   UNL     1       7.547   5.123  17.551  0.00  0.00    +0.000 NA
ATOM     16  N   UNL     1       7.931   4.633  16.323  0.00  0.00    +0.000 NA
ATOM     17  C   UNL     1       6.895   4.759  15.518  0.00  0.00    +0.000 A 
ATOM     18  O   UNL     1       5.812   5.320  16.149  0.00  0.00    +0.000 OA
BRANCH  17  19
ATOM     19  C   UNL     1       6.755   4.421  14.110  0.00  0.00    +0.000 A 
ATOM     20  C   UNL     1       7.622   5.001  13.169  0.00  0.00    +0.000 A 
ATOM     21  C   UNL     1       7.486   4.727  11.807  0.00  0.00    +0.000 A 
ATOM     22  C   UNL     1       6.480   3.871  11.367  0.00  0.00    +0.000 A 
ATOM     23  C   UNL     1       5.623   3.273  12.288  0.00  0.00    +0.000 A 
ATOM     24  C   UNL     1       5.762   3.543  13.652  0.00  0.00    +0.000 A 
ENDBRANCH  17  19
ENDBRANCH   6  14
TORSDOF 3
ENDMDL
