MODEL 1
REMARK VINA RESULT:      -7.6      0.000      0.000
REMARK  Name = 
REMARK  8 active torsions:
REMARK  status: ('A' for Active; 'I' for Inactive)
REMARK    1  A    between atoms: C_5  and  C_6
REMARK    2  A    between atoms: C_6  and  O_7
REMARK    3  A    between atoms: O_7  and  C_8
REMARK    4  A    between atoms: C_8  and  C_9
REMARK    5  A    between atoms: C_8  and  C_18
REMARK    6  A    between atoms: C_9  and  C_10
REMARK    7  A    between atoms: C_10  and  C_11
REMARK    8  A    between atoms: C_18  and  N_19
REMARK                            x       y       z     vdW  Elec       q    Type
REMARK                         _______ _______ _______ _____ _____    ______ ____
ROOT
ATOM      1  C   UNL     1       3.506   4.659  17.946  0.00  0.00    +0.000 C 
ENDROOT
BRANCH   1   2
ATOM      2  O   UNL     1       4.123   4.577  16.651  0.00  0.00    +0.000 OA
BRANCH   2   3
ATOM      3  C   UNL     1       5.472   4.112  16.648  0.00  0.00    +0.000 C 
BRANCH   3   8
ATOM      4  F   UNL     1       8.782   8.074  18.934  0.00  0.00    +0.000 F 
ATOM      5  C   UNL     1       8.006   7.132  18.379  0.00  0.00    +0.000 A 
ATOM      6  C   UNL     1       7.288   7.427  17.226  0.00  0.00    +0.000 A 
ATOM      7  C   UNL     1       6.477   6.445  16.654  0.00  0.00    +0.000 A 
ATOM      8  C   UNL     1       6.391   5.163  17.225  0.00  0.00    +0.000 A 
ATOM      9  C   UNL     1       7.110   4.898  18.401  0.00  0.00    +0.000 A 
ATOM     10  C   UNL     1       7.920   5.880  18.975  0.00  0.00    +0.000 A 
ENDBRANCH   3   8
ENDBRANCH   2   3
ENDBRANCH   1   2
BRANCH   1  11
ATOM     11  C   UNL     1       2.559   5.872  18.070  0.00  0.00    +0.000 C 
BRANCH  11  12
ATOM     12  C   UNL     1       2.762   6.655  19.368  0.00  0.00    +0.000 C 
BRANCH  12  13
ATOM     13  C   UNL     1       1.981   7.945  19.410  0.00  0.00    +0.000 A 
ATOM     14  C   UNL     1       1.812   8.699  18.239  0.00  0.00    +0.000 A 
ATOM     15  C   UNL     1       1.020   9.850  18.246  0.00  0.00    +0.000 A 
ATOM     16  C   UNL     1       0.407  10.260  19.427  0.00  0.00    +0.000 A 
ATOM     17 CL   UNL     1      -0.604  11.652  19.425  0.00  0.00    +0.000 Cl
ATOM     18  C   UNL     1       0.599   9.544  20.606  0.00  0.00    +0.000 A 
ATOM     19  C   UNL     1       1.388   8.391  20.599  0.00  0.00    +0.000 A 
ENDBRANCH  12  13
ENDBRANCH  11  12
ENDBRANCH   1  11
BRANCH   1  20
ATOM     20  C   UNL     1       2.816   3.301  18.210  0.00  0.00    +0.000 C 
BRANCH  20  21
ATOM     21  N   UNL     1       2.427   3.072  19.590  0.00  0.00    +0.000 N 
ATOM     22  C   UNL     1       3.246   2.699  20.620  0.00  0.00    +0.000 A 
ATOM     23  C   UNL     1       2.408   2.541  21.700  0.00  0.00    +0.000 A 
ATOM     24  N   UNL     1       1.109   2.799  21.350  0.00  0.00    +0.000 NA
ATOM     25  C   UNL     1       1.146   3.101  20.072  0.00  0.00    +0.000 A 
ENDBRANCH  20  21
ENDBRANCH   1  20
TORSDOF 8
ENDMDL
MODEL 2
REMARK VINA RESULT:      -7.6      2.785      4.876
REMARK  Name = 
REMARK  8 active torsions:
REMARK  status: ('A' for Active; 'I' for Inactive)
REMARK    1  A    between atoms: C_5  and  C_6
REMARK    2  A    between atoms: C_6  and  O_7
REMARK    3  A    between atoms: O_7  and  C_8
REMARK    4  A    between atoms: C_8  and  C_9
REMARK    5  A    between atoms: C_8  and  C_18
REMARK    6  A    between atoms: C_9  and  C_10
REMARK    7  A    between atoms: C_10  and  C_11
REMARK    8  A    between atoms: C_18  and  N_19
REMARK                            x       y       z     vdW  Elec       q    Type
REMARK                         _______ _______ _______ _____ _____    ______ ____
ROOT
ATOM      1  C   UNL     1       4.309   5.150  16.631  0.00  0.00    +0.000 C 
ENDROOT
BRANCH   1   2
ATOM      2  O   UNL     1       3.278   4.189  16.912  0.00  0.00    +0.000 OA
BRANCH   2   3
ATOM      3  C   UNL     1       3.696   3.051  17.665  0.00  0.00    +0.000 C 
BRANCH   3   8
ATOM      4  F   UNL     1       0.799   2.540  22.484  0.00  0.00    +0.000 F 
ATOM      5  C   UNL     1       1.484   2.677  21.339  0.00  0.00    +0.000 A 
ATOM      6  C   UNL     1       0.808   3.000  20.170  0.00  0.00    +0.000 A 
ATOM      7  C   UNL     1       1.524   3.136  18.979  0.00  0.00    +0.000 A 
ATOM      8  C   UNL     1       2.919   2.963  18.957  0.00  0.00    +0.000 A 
ATOM      9  C   UNL     1       3.575   2.617  20.149  0.00  0.00    +0.000 A 
ATOM     10  C   UNL     1       2.859   2.479  21.340  0.00  0.00    +0.000 A 
ENDBRANCH   3   8
ENDBRANCH   2   3
ENDBRANCH   1   2
BRANCH   1  11
ATOM     11  C   UNL     1       4.103   6.474  17.396  0.00  0.00    +0.000 C 
BRANCH  11  12
ATOM     12  C   UNL     1       3.128   6.339  18.566  0.00  0.00    +0.000 C 
BRANCH  12  13
ATOM     13  C   UNL     1       2.360   7.607  18.847  0.00  0.00    +0.000 A 
ATOM     14  C   UNL     1       2.131   8.530  17.815  0.00  0.00    +0.000 A 
ATOM     15  C   UNL     1       1.349   9.665  18.041  0.00  0.00    +0.000 A 
ATOM     16  C   UNL     1       0.805   9.890  19.303  0.00  0.00    +0.000 A 
ATOM     17 CL   UNL     1      -0.196  11.264  19.569  0.00  0.00    +0.000 Cl
ATOM     18  C   UNL     1       1.056   9.003  20.347  0.00  0.00    +0.000 A 
ATOM     19  C   UNL     1       1.836   7.866  20.121  0.00  0.00    +0.000 A 
ENDBRANCH  12  13
ENDBRANCH  11  12
ENDBRANCH   1  11
BRANCH   1  20
ATOM     20  C   UNL     1       5.664   4.465  16.926  0.00  0.00    +0.000 C 
BRANCH  20  21
ATOM     21  N   UNL     1       6.479   5.129  17.926  0.00  0.00    +0.000 N 
ATOM     22  C   UNL     1       7.467   6.046  17.699  0.00  0.00    +0.000 A 
ATOM     23  C   UNL     1       7.987   6.324  18.943  0.00  0.00    +0.000 A 
ATOM     24  N   UNL     1       7.347   5.595  19.911  0.00  0.00    +0.000 NA
ATOM     25  C   UNL     1       6.455   4.874  19.271  0.00  0.00    +0.000 A 
ENDBRANCH  20  21
ENDBRANCH   1  20
TORSDOF 8
ENDMDL
MODEL 3
REMARK VINA RESULT:      -7.5      3.107      5.266
REMARK  Name = 
REMARK  8 active torsions:
REMARK  status: ('A' for Active; 'I' for Inactive)
REMARK    1  A    between atoms: C_5  and  C_6
REMARK    2  A    between atoms: C_6  and  O_7
REMARK    3  A    between atoms: O_7  and  C_8
REMARK    4  A    between atoms: C_8  and  C_9
REMARK    5  A    between atoms: C_8  and  C_18
REMARK    6  A    between atoms: C_9  and  C_10
REMARK    7  A    between atoms: C_10  and  C_11
REMARK    8  A    between atoms: C_18  and  N_19
REMARK                            x       y       z     vdW  Elec       q    Type
REMARK                         _______ _______ _______ _____ _____    ______ ____
ROOT
ATOM      1  C   UNL     1       3.972   6.817  17.076  0.00  0.00    +0.000 C 
ENDROOT
BRANCH   1   2
ATOM      2  O   UNL     1       3.943   5.639  17.899  0.00  0.00    +0.000 OA
BRANCH   2   3
ATOM      3  C   UNL     1       2.907   4.708  17.591  0.00  0.00    +0.000 C 
BRANCH   3   8
ATOM      4  F   UNL     1       0.882   2.445  22.351  0.00  0.00    +0.000 F 
ATOM      5  C   UNL     1       1.349   2.990  21.218  0.00  0.00    +0.000 A 
ATOM      6  C   UNL     1       0.848   2.563  19.995  0.00  0.00    +0.000 A 
ATOM      7  C   UNL     1       1.341   3.128  18.817  0.00  0.00    +0.000 A 
ATOM      8  C   UNL     1       2.326   4.130  18.860  0.00  0.00    +0.000 A 
ATOM      9  C   UNL     1       2.829   4.530  20.108  0.00  0.00    +0.000 A 
ATOM     10  C   UNL     1       2.338   3.963  21.286  0.00  0.00    +0.000 A 
ENDBRANCH   3   8
ENDBRANCH   2   3
ENDBRANCH   1   2
BRANCH   1  11
ATOM     11  C   UNL     1       3.569   8.088  17.855  0.00  0.00    +0.000 C 
BRANCH  11  12
ATOM     12  C   UNL     1       2.081   8.414  17.734  0.00  0.00    +0.000 C 
BRANCH  12  13
ATOM     13  C   UNL     1       1.432   8.727  19.059  0.00  0.00    +0.000 A 
ATOM     14  C   UNL     1       1.740   7.954  20.189  0.00  0.00    +0.000 A 
ATOM     15  C   UNL     1       1.213   8.287  21.439  0.00  0.00    +0.000 A 
ATOM     16  C   UNL     1       0.364   9.384  21.563  0.00  0.00    +0.000 A 
ATOM     17 CL   UNL     1      -0.248   9.821  23.110  0.00  0.00    +0.000 Cl
ATOM     18  C   UNL     1       0.019  10.137  20.443  0.00  0.00    +0.000 A 
ATOM     19  C   UNL     1       0.548   9.807  19.192  0.00  0.00    +0.000 A 
ENDBRANCH  12  13
ENDBRANCH  11  12
ENDBRANCH   1  11
BRANCH   1  20
ATOM     20  C   UNL     1       5.379   6.896  16.441  0.00  0.00    +0.000 C 
BRANCH  20  21
ATOM     21  N   UNL     1       6.347   5.959  16.981  0.00  0.00    +0.000 N 
ATOM     22  C   UNL     1       6.901   5.985  18.231  0.00  0.00    +0.000 A 
ATOM     23  C   UNL     1       7.802   4.945  18.242  0.00  0.00    +0.000 A 
ATOM     24  N   UNL     1       7.815   4.300  17.033  0.00  0.00    +0.000 NA
ATOM     25  C   UNL     1       6.941   4.939  16.288  0.00  0.00    +0.000 A 
ENDBRANCH  20  21
ENDBRANCH   1  20
TORSDOF 8
ENDMDL
MODEL 4
REMARK VINA RESULT:      -7.4      3.109      5.527
REMARK  Name = 
REMARK  8 active torsions:
REMARK  status: ('A' for Active; 'I' for Inactive)
REMARK    1  A    between atoms: C_5  and  C_6
REMARK    2  A    between atoms: C_6  and  O_7
REMARK    3  A    between atoms: O_7  and  C_8
REMARK    4  A    between atoms: C_8  and  C_9
REMARK    5  A    between atoms: C_8  and  C_18
REMARK    6  A    between atoms: C_9  and  C_10
REMARK    7  A    between atoms: C_10  and  C_11
REMARK    8  A    between atoms: C_18  and  N_19
REMARK                            x       y       z     vdW  Elec       q    Type
REMARK                         _______ _______ _______ _____ _____    ______ ____
ROOT
ATOM      1  C   UNL     1       3.797   5.078  17.212  0.00  0.00    +0.000 C 
ENDROOT
BRANCH   1   2
ATOM      2  O   UNL     1       3.007   3.898  16.992  0.00  0.00    +0.000 OA
BRANCH   2   3
ATOM      3  C   UNL     1       3.428   2.742  17.715  0.00  0.00    +0.000 C 
BRANCH   3   8
ATOM      4  F   UNL     1       0.780   2.661  22.701  0.00  0.00    +0.000 F 
ATOM      5  C   UNL     1       1.412   2.665  21.518  0.00  0.00    +0.000 A 
ATOM      6  C   UNL     1       2.792   2.506  21.477  0.00  0.00    +0.000 A 
ATOM      7  C   UNL     1       3.447   2.517  20.245  0.00  0.00    +0.000 A 
ATOM      8  C   UNL     1       2.724   2.672  19.049  0.00  0.00    +0.000 A 
ATOM      9  C   UNL     1       1.333   2.850  19.119  0.00  0.00    +0.000 A 
ATOM     10  C   UNL     1       0.678   2.842  20.352  0.00  0.00    +0.000 A 
ENDBRANCH   3   8
ENDBRANCH   2   3
ENDBRANCH   1   2
BRANCH   1  11
ATOM     11  C   UNL     1       3.290   5.910  18.409  0.00  0.00    +0.000 C 
BRANCH  11  12
ATOM     12  C   UNL     1       2.991   7.363  18.040  0.00  0.00    +0.000 C 
BRANCH  12  13
ATOM     13  C   UNL     1       2.068   8.046  19.020  0.00  0.00    +0.000 A 
ATOM     14  C   UNL     1       1.887   7.506  20.302  0.00  0.00    +0.000 A 
ATOM     15  C   UNL     1       1.104   8.174  21.247  0.00  0.00    +0.000 A 
ATOM     16  C   UNL     1       0.486   9.376  20.909  0.00  0.00    +0.000 A 
ATOM     17 CL   UNL     1      -0.441  10.221  22.085  0.00  0.00    +0.000 Cl
ATOM     18  C   UNL     1       0.625   9.902  19.626  0.00  0.00    +0.000 A 
ATOM     19  C   UNL     1       1.411   9.237  18.682  0.00  0.00    +0.000 A 
ENDBRANCH  12  13
ENDBRANCH  11  12
ENDBRANCH   1  11
BRANCH   1  20
ATOM     20  C   UNL     1       5.269   4.625  17.347  0.00  0.00    +0.000 C 
BRANCH  20  21
ATOM     21  N   UNL     1       6.060   4.750  16.137  0.00  0.00    +0.000 N 
ATOM     22  C   UNL     1       5.899   4.043  14.978  0.00  0.00    +0.000 A 
ATOM     23  C   UNL     1       6.923   4.463  14.160  0.00  0.00    +0.000 A 
ATOM     24  N   UNL     1       7.702   5.395  14.795  0.00  0.00    +0.000 NA
ATOM     25  C   UNL     1       7.170   5.538  15.988  0.00  0.00    +0.000 A 
ENDBRANCH  20  21
ENDBRANCH   1  20
TORSDOF 8
ENDMDL
MODEL 5
REMARK VINA RESULT:      -7.4      3.486      5.943
REMARK  Name = 
REMARK  8 active torsions:
REMARK  status: ('A' for Active; 'I' for Inactive)
REMARK    1  A    between atoms: C_5  and  C_6
REMARK    2  A    between atoms: C_6  and  O_7
REMARK    3  A    between atoms: O_7  and  C_8
REMARK    4  A    between atoms: C_8  and  C_9
REMARK    5  A    between atoms: C_8  and  C_18
REMARK    6  A    between atoms: C_9  and  C_10
REMARK    7  A    between atoms: C_10  and  C_11
REMARK    8  A    between atoms: C_18  and  N_19
REMARK                            x       y       z     vdW  Elec       q    Type
REMARK                         _______ _______ _______ _____ _____    ______ ____
ROOT
ATOM      1  C   UNL     1       4.873   4.407  15.998  0.00  0.00    +0.000 C 
ENDROOT
BRANCH   1   2
ATOM      2  O   UNL     1       4.424   3.496  17.015  0.00  0.00    +0.000 OA
BRANCH   2   3
ATOM      3  C   UNL     1       3.021   3.241  17.026  0.00  0.00    +0.000 C 
BRANCH   3   8
ATOM      4  F   UNL     1       1.137   2.718  22.323  0.00  0.00    +0.000 F 
ATOM      5  C   UNL     1       1.582   2.858  21.066  0.00  0.00    +0.000 A 
ATOM      6  C   UNL     1       0.682   3.157  20.050  0.00  0.00    +0.000 A 
ATOM      7  C   UNL     1       1.148   3.295  18.741  0.00  0.00    +0.000 A 
ATOM      8  C   UNL     1       2.515   3.149  18.446  0.00  0.00    +0.000 A 
ATOM      9  C   UNL     1       3.399   2.827  19.488  0.00  0.00    +0.000 A 
ATOM     10  C   UNL     1       2.934   2.686  20.797  0.00  0.00    +0.000 A 
ENDBRANCH   3   8
ENDBRANCH   2   3
ENDBRANCH   1   2
BRANCH   1  11
ATOM     11  C   UNL     1       4.725   5.883  16.424  0.00  0.00    +0.000 C 
BRANCH  11  12
ATOM     12  C   UNL     1       4.690   6.064  17.941  0.00  0.00    +0.000 C 
BRANCH  12  13
ATOM     13  C   UNL     1       3.520   6.892  18.413  0.00  0.00    +0.000 A 
ATOM     14  C   UNL     1       2.885   6.579  19.624  0.00  0.00    +0.000 A 
ATOM     15  C   UNL     1       1.857   7.388  20.114  0.00  0.00    +0.000 A 
ATOM     16  C   UNL     1       1.450   8.504  19.388  0.00  0.00    +0.000 A 
ATOM     17 CL   UNL     1       0.215   9.526  20.014  0.00  0.00    +0.000 Cl
ATOM     18  C   UNL     1       2.045   8.805  18.165  0.00  0.00    +0.000 A 
ATOM     19  C   UNL     1       3.075   7.997  17.676  0.00  0.00    +0.000 A 
ENDBRANCH  12  13
ENDBRANCH  11  12
ENDBRANCH   1  11
BRANCH   1  20
ATOM     20  C   UNL     1       6.322   4.006  15.634  0.00  0.00    +0.000 C 
BRANCH  20  21
ATOM     21  N   UNL     1       6.660   4.147  14.230  0.00  0.00    +0.000 N 
ATOM     22  C   UNL     1       7.526   5.053  13.683  0.00  0.00    +0.000 A 
ATOM     23  C   UNL     1       7.453   4.840  12.326  0.00  0.00    +0.000 A 
ATOM     24  N   UNL     1       6.562   3.840  12.037  0.00  0.00    +0.000 NA
ATOM     25  C   UNL     1       6.088   3.451  13.199  0.00  0.00    +0.000 A 
ENDBRANCH  20  21
ENDBRANCH   1  20
TORSDOF 8
ENDMDL
MODEL 6
REMARK VINA RESULT:      -7.4      3.038      5.478
REMARK  Name = 
REMARK  8 active torsions:
REMARK  status: ('A' for Active; 'I' for Inactive)
REMARK    1  A    between atoms: C_5  and  C_6
REMARK    2  A    between atoms: C_6  and  O_7
REMARK    3  A    between atoms: O_7  and  C_8
REMARK    4  A    between atoms: C_8  and  C_9
REMARK    5  A    between atoms: C_8  and  C_18
REMARK    6  A    between atoms: C_9  and  C_10
REMARK    7  A    between atoms: C_10  and  C_11
REMARK    8  A    between atoms: C_18  and  N_19
REMARK                            x       y       z     vdW  Elec       q    Type
REMARK                         _______ _______ _______ _____ _____    ______ ____
ROOT
ATOM      1  C   UNL     1       5.146   4.811  17.180  0.00  0.00    +0.000 C 
ENDROOT
BRANCH   1   2
ATOM      2  O   UNL     1       4.849   3.476  17.619  0.00  0.00    +0.000 OA
BRANCH   2   3
ATOM      3  C   UNL     1       3.503   3.051  17.409  0.00  0.00    +0.000 C 
BRANCH   3   8
ATOM      4  F   UNL     1       0.811   2.693  22.358  0.00  0.00    +0.000 F 
ATOM      5  C   UNL     1       1.453   2.762  21.183  0.00  0.00    +0.000 A 
ATOM      6  C   UNL     1       2.827   2.563  21.140  0.00  0.00    +0.000 A 
ATOM      7  C   UNL     1       3.493   2.642  19.916  0.00  0.00    +0.000 A 
ATOM      8  C   UNL     1       2.785   2.907  18.730  0.00  0.00    +0.000 A 
ATOM      9  C   UNL     1       1.400   3.124  18.804  0.00  0.00    +0.000 A 
ATOM     10  C   UNL     1       0.734   3.047  20.029  0.00  0.00    +0.000 A 
ENDBRANCH   3   8
ENDBRANCH   2   3
ENDBRANCH   1   2
BRANCH   1  11
ATOM     11  C   UNL     1       4.526   5.884  18.099  0.00  0.00    +0.000 C 
BRANCH  11  12
ATOM     12  C   UNL     1       3.267   6.520  17.508  0.00  0.00    +0.000 C 
BRANCH  12  13
ATOM     13  C   UNL     1       2.535   7.405  18.486  0.00  0.00    +0.000 A 
ATOM     14  C   UNL     1       2.090   8.674  18.083  0.00  0.00    +0.000 A 
ATOM     15  C   UNL     1       1.336   9.468  18.950  0.00  0.00    +0.000 A 
ATOM     16  C   UNL     1       1.037   9.005  20.229  0.00  0.00    +0.000 A 
ATOM     17 CL   UNL     1       0.071   9.964  21.281  0.00  0.00    +0.000 Cl
ATOM     18  C   UNL     1       1.506   7.764  20.656  0.00  0.00    +0.000 A 
ATOM     19  C   UNL     1       2.257   6.968  19.788  0.00  0.00    +0.000 A 
ENDBRANCH  12  13
ENDBRANCH  11  12
ENDBRANCH   1  11
BRANCH   1  20
ATOM     20  C   UNL     1       6.683   4.917  17.047  0.00  0.00    +0.000 C 
BRANCH  20  21
ATOM     21  N   UNL     1       7.253   6.162  17.529  0.00  0.00    +0.000 N 
ATOM     22  C   UNL     1       7.266   7.363  16.875  0.00  0.00    +0.000 A 
ATOM     23  C   UNL     1       7.974   8.208  17.699  0.00  0.00    +0.000 A 
ATOM     24  N   UNL     1       8.396   7.550  18.825  0.00  0.00    +0.000 NA
ATOM     25  C   UNL     1       7.962   6.317  18.690  0.00  0.00    +0.000 A 
ENDBRANCH  20  21
ENDBRANCH   1  20
TORSDOF 8
ENDMDL
MODEL 7
REMARK VINA RESULT:      -7.4      2.954      5.258
REMARK  Name = 
REMARK  8 active torsions:
REMARK  status: ('A' for Active; 'I' for Inactive)
REMARK    1  A    between atoms: C_5  and  C_6
REMARK    2  A    between atoms: C_6  and  O_7
REMARK    3  A    between atoms: O_7  and  C_8
REMARK    4  A    between atoms: C_8  and  C_9
REMARK    5  A    between atoms: C_8  and  C_18
REMARK    6  A    between atoms: C_9  and  C_10
REMARK    7  A    between atoms: C_10  and  C_11
REMARK    8  A    between atoms: C_18  and  N_19
REMARK                            x       y       z     vdW  Elec       q    Type
REMARK                         _______ _______ _______ _____ _____    ______ ____
ROOT
ATOM      1  C   UNL     1       4.617   5.552  16.548  0.00  0.00    +0.000 C 
ENDROOT
BRANCH   1   2
ATOM      2  O   UNL     1       4.515   4.479  17.498  0.00  0.00    +0.000 OA
BRANCH   2   3
ATOM      3  C   UNL     1       3.394   3.615  17.322  0.00  0.00    +0.000 C 
BRANCH   3   8
ATOM      4  F   UNL     1       0.901   2.447  22.251  0.00  0.00    +0.000 F 
ATOM      5  C   UNL     1       1.489   2.740  21.082  0.00  0.00    +0.000 A 
ATOM      6  C   UNL     1       0.706   3.094  19.991  0.00  0.00    +0.000 A 
ATOM      7  C   UNL     1       1.322   3.392  18.774  0.00  0.00    +0.000 A 
ATOM      8  C   UNL     1       2.721   3.350  18.648  0.00  0.00    +0.000 A 
ATOM      9  C   UNL     1       3.488   2.970  19.761  0.00  0.00    +0.000 A 
ATOM     10  C   UNL     1       2.873   2.669  20.978  0.00  0.00    +0.000 A 
ENDBRANCH   3   8
ENDBRANCH   2   3
ENDBRANCH   1   2
BRANCH   1  11
ATOM     11  C   UNL     1       3.953   6.850  17.053  0.00  0.00    +0.000 C 
BRANCH  11  12
ATOM     12  C   UNL     1       3.383   6.716  18.466  0.00  0.00    +0.000 C 
BRANCH  12  13
ATOM     13  C   UNL     1       2.361   7.776  18.796  0.00  0.00    +0.000 A 
ATOM     14  C   UNL     1       1.866   7.886  20.104  0.00  0.00    +0.000 A 
ATOM     15  C   UNL     1       0.986   8.916  20.443  0.00  0.00    +0.000 A 
ATOM     16  C   UNL     1       0.583   9.830  19.472  0.00  0.00    +0.000 A 
ATOM     17 CL   UNL     1      -0.466  11.125  19.900  0.00  0.00    +0.000 Cl
ATOM     18  C   UNL     1       1.036   9.709  18.160  0.00  0.00    +0.000 A 
ATOM     19  C   UNL     1       1.919   8.681  17.821  0.00  0.00    +0.000 A 
ENDBRANCH  12  13
ENDBRANCH  11  12
ENDBRANCH   1  11
BRANCH   1  20
ATOM     20  C   UNL     1       6.116   5.714  16.201  0.00  0.00    +0.000 C 
BRANCH  20  21
ATOM     21  N   UNL     1       6.944   6.209  17.285  0.00  0.00    +0.000 N 
ATOM     22  C   UNL     1       7.449   7.472  17.418  0.00  0.00    +0.000 A 
ATOM     23  C   UNL     1       8.219   7.429  18.558  0.00  0.00    +0.000 A 
ATOM     24  N   UNL     1       8.200   6.175  19.111  0.00  0.00    +0.000 NA
ATOM     25  C   UNL     1       7.438   5.457  18.317  0.00  0.00    +0.000 A 
ENDBRANCH  20  21
ENDBRANCH   1  20
TORSDOF 8
ENDMDL
MODEL 8
REMARK VINA RESULT:      -7.4      3.089      5.384
REMARK  Name = 
REMARK  8 active torsions:
REMARK  status: ('A' for Active; 'I' for Inactive)
REMARK    1  A    between atoms: C_5  and  C_6
REMARK    2  A    between atoms: C_6  and  O_7
REMARK    3  A    between atoms: O_7  and  C_8
REMARK    4  A    between atoms: C_8  and  C_9
REMARK    5  A    between atoms: C_8  and  C_18
REMARK    6  A    between atoms: C_9  and  C_10
REMARK    7  A    between atoms: C_10  and  C_11
REMARK    8  A    between atoms: C_18  and  N_19
REMARK                            x       y       z     vdW  Elec       q    Type
REMARK                         _______ _______ _______ _____ _____    ______ ____
ROOT
ATOM      1  C   UNL     1       3.929   5.729  17.619  0.00  0.00    +0.000 C 
ENDROOT
BRANCH   1   2
ATOM      2  O   UNL     1       4.482   4.405  17.707  0.00  0.00    +0.000 OA
BRANCH   2   3
ATOM      3  C   UNL     1       3.546   3.342  17.536  0.00  0.00    +0.000 C 
BRANCH   3   8
ATOM      4  F   UNL     1       0.801   2.508  22.399  0.00  0.00    +0.000 F 
ATOM      5  C   UNL     1       1.457   2.690  21.244  0.00  0.00    +0.000 A 
ATOM      6  C   UNL     1       2.843   2.605  21.221  0.00  0.00    +0.000 A 
ATOM      7  C   UNL     1       3.523   2.802  20.018  0.00  0.00    +0.000 A 
ATOM      8  C   UNL     1       2.818   3.071  18.832  0.00  0.00    +0.000 A 
ATOM      9  C   UNL     1       1.419   3.172  18.885  0.00  0.00    +0.000 A 
ATOM     10  C   UNL     1       0.739   2.977  20.089  0.00  0.00    +0.000 A 
ENDBRANCH   3   8
ENDBRANCH   2   3
ENDBRANCH   1   2
BRANCH   1  11
ATOM     11  C   UNL     1       3.957   6.469  18.973  0.00  0.00    +0.000 C 
BRANCH  11  12
ATOM     12  C   UNL     1       2.593   6.502  19.661  0.00  0.00    +0.000 C 
BRANCH  12  13
ATOM     13  C   UNL     1       1.931   7.856  19.602  0.00  0.00    +0.000 A 
ATOM     14  C   UNL     1       1.294   8.375  20.740  0.00  0.00    +0.000 A 
ATOM     15  C   UNL     1       0.753   9.662  20.724  0.00  0.00    +0.000 A 
ATOM     16  C   UNL     1       0.831  10.431  19.565  0.00  0.00    +0.000 A 
ATOM     17 CL   UNL     1       0.205  12.033  19.559  0.00  0.00    +0.000 Cl
ATOM     18  C   UNL     1       1.425   9.914  18.415  0.00  0.00    +0.000 A 
ATOM     19  C   UNL     1       1.970   8.627  18.432  0.00  0.00    +0.000 A 
ENDBRANCH  12  13
ENDBRANCH  11  12
ENDBRANCH   1  11
BRANCH   1  20
ATOM     20  C   UNL     1       4.687   6.466  16.490  0.00  0.00    +0.000 C 
BRANCH  20  21
ATOM     21  N   UNL     1       5.728   5.688  15.845  0.00  0.00    +0.000 N 
ATOM     22  C   UNL     1       5.599   4.924  14.718  0.00  0.00    +0.000 A 
ATOM     23  C   UNL     1       6.830   4.334  14.547  0.00  0.00    +0.000 A 
ATOM     24  N   UNL     1       7.695   4.712  15.541  0.00  0.00    +0.000 NA
ATOM     25  C   UNL     1       7.002   5.515  16.316  0.00  0.00    +0.000 A 
ENDBRANCH  20  21
ENDBRANCH   1  20
TORSDOF 8
ENDMDL
MODEL 9
REMARK VINA RESULT:      -7.4      3.301      5.628
REMARK  Name = 
REMARK  8 active torsions:
REMARK  status: ('A' for Active; 'I' for Inactive)
REMARK    1  A    between atoms: C_5  and  C_6
REMARK    2  A    between atoms: C_6  and  O_7
REMARK    3  A    between atoms: O_7  and  C_8
REMARK    4  A    between atoms: C_8  and  C_9
REMARK    5  A    between atoms: C_8  and  C_18
REMARK    6  A    between atoms: C_9  and  C_10
REMARK    7  A    between atoms: C_10  and  C_11
REMARK    8  A    between atoms: C_18  and  N_19
REMARK                            x       y       z     vdW  Elec       q    Type
REMARK                         _______ _______ _______ _____ _____    ______ ____
ROOT
ATOM      1  C   UNL     1       4.818   5.177  17.002  0.00  0.00    +0.000 C 
ENDROOT
BRANCH   1   2
ATOM      2  O   UNL     1       4.901   3.889  17.633  0.00  0.00    +0.000 OA
BRANCH   2   3
ATOM      3  C   UNL     1       3.770   3.042  17.439  0.00  0.00    +0.000 C 
BRANCH   3   8
ATOM      4  F   UNL     1       0.818   2.744  22.243  0.00  0.00    +0.000 F 
ATOM      5  C   UNL     1       1.522   2.799  21.103  0.00  0.00    +0.000 A 
ATOM      6  C   UNL     1       2.901   2.633  21.140  0.00  0.00    +0.000 A 
ATOM      7  C   UNL     1       3.631   2.698  19.952  0.00  0.00    +0.000 A 
ATOM      8  C   UNL     1       2.984   2.914  18.723  0.00  0.00    +0.000 A 
ATOM      9  C   UNL     1       1.592   3.098  18.716  0.00  0.00    +0.000 A 
ATOM     10  C   UNL     1       0.861   3.036  19.904  0.00  0.00    +0.000 A 
ENDBRANCH   3   8
ENDBRANCH   2   3
ENDBRANCH   1   2
BRANCH   1  11
ATOM     11  C   UNL     1       4.398   6.289  17.988  0.00  0.00    +0.000 C 
BRANCH  11  12
ATOM     12  C   UNL     1       3.369   7.251  17.395  0.00  0.00    +0.000 C 
BRANCH  12  13
ATOM     13  C   UNL     1       2.456   7.857  18.433  0.00  0.00    +0.000 A 
ATOM     14  C   UNL     1       2.286   7.220  19.672  0.00  0.00    +0.000 A 
ATOM     15  C   UNL     1       1.513   7.814  20.672  0.00  0.00    +0.000 A 
ATOM     16  C   UNL     1       0.894   9.039  20.434  0.00  0.00    +0.000 A 
ATOM     17 CL   UNL     1      -0.021   9.791  21.681  0.00  0.00    +0.000 Cl
ATOM     18  C   UNL     1       1.022   9.663  19.195  0.00  0.00    +0.000 A 
ATOM     19  C   UNL     1       1.798   9.071  18.194  0.00  0.00    +0.000 A 
ENDBRANCH  12  13
ENDBRANCH  11  12
ENDBRANCH   1  11
BRANCH   1  20
ATOM     20  C   UNL     1       6.178   5.438  16.314  0.00  0.00    +0.000 C 
BRANCH  20  21
ATOM     21  N   UNL     1       6.315   4.853  14.992  0.00  0.00    +0.000 N 
ATOM     22  C   UNL     1       7.375   4.995  14.140  0.00  0.00    +0.000 A 
ATOM     23  C   UNL     1       7.005   4.321  12.999  0.00  0.00    +0.000 A 
ATOM     24  N   UNL     1       5.752   3.785  13.134  0.00  0.00    +0.000 NA
ATOM     25  C   UNL     1       5.353   4.133  14.336  0.00  0.00    +0.000 A 
ENDBRANCH  20  21
ENDBRANCH   1  20
TORSDOF 8
ENDMDL
