MODEL 1
REMARK VINA RESULT:      -7.9      0.000      0.000
REMARK  Name = 
REMARK  4 active torsions:
REMARK  status: ('A' for Active; 'I' for Inactive)
REMARK    1  A    between atoms: C_1  and  C_2
REMARK    2  A    between atoms: C_4  and  C_5
REMARK    3  A    between atoms: N_8  and  N_9
REMARK    4  A    between atoms: C_10  and  C_11
REMARK                            x       y       z     vdW  Elec       q    Type
REMARK                         _______ _______ _______ _____ _____    ______ ____
ROOT
ATOM      1  N   UNL     1       5.650   3.939  16.714  0.00  0.00    +0.000 NA
ATOM      2  C   UNL     1       4.511   4.445  17.049  0.00  0.00    +0.000 C 
ENDROOT
BRANCH   1  10
ATOM      3  C   UNL     1       8.860   6.266  12.206  0.00  0.00    +0.000 C 
ATOM      4  C   UNL     1       7.845   5.349  12.822  0.00  0.00    +0.000 A 
ATOM      5  C   UNL     1       7.169   4.429  12.047  0.00  0.00    +0.000 A 
ATOM      6  C   UNL     1       6.263   3.627  12.699  0.00  0.00    +0.000 A 
ATOM      7  C   UNL     1       5.467   2.590  11.971  0.00  0.00    +0.000 C 
ATOM      8  N   UNL     1       6.043   3.730  14.021  0.00  0.00    +0.000 NA
ATOM      9  C   UNL     1       6.740   4.644  14.718  0.00  0.00    +0.000 A 
ATOM     10  N   UNL     1       6.538   4.759  16.100  0.00  0.00    +0.000 N 
ATOM     11  N   UNL     1       7.643   5.468  14.154  0.00  0.00    +0.000 NA
ATOM     12  H   UNL     1       7.150   5.423  16.551  0.00  0.00    +0.000 HD
ENDBRANCH   1  10
BRANCH   2  13
ATOM     13  C   UNL     1       3.537   3.579  17.688  0.00  0.00    +0.000 A 
ATOM     14  C   UNL     1       3.011   2.426  17.134  0.00  0.00    +0.000 A 
ATOM     15  N   UNL     1       2.151   1.862  18.033  0.00  0.00    +0.000 N 
ATOM     16  C   UNL     1       2.060   2.648  19.157  0.00  0.00    +0.000 A 
ATOM     17  C   UNL     1       1.289   2.478  20.313  0.00  0.00    +0.000 A 
ATOM     18  C   UNL     1       1.383   3.458  21.305  0.00  0.00    +0.000 A 
ATOM     19  C   UNL     1       2.229   4.553  21.151  0.00  0.00    +0.000 A 
ATOM     20  C   UNL     1       3.009   4.698  19.997  0.00  0.00    +0.000 A 
ATOM     21  C   UNL     1       2.921   3.735  18.971  0.00  0.00    +0.000 A 
ATOM     22  H   UNL     1       1.646   0.999  17.890  0.00  0.00    +0.000 HD
ENDBRANCH   2  13
TORSDOF 2
ENDMDL
MODEL 2
REMARK VINA RESULT:      -7.7      1.550      7.946
REMARK  Name = 
REMARK  4 active torsions:
REMARK  status: ('A' for Active; 'I' for Inactive)
REMARK    1  A    between atoms: C_1  and  C_2
REMARK    2  A    between atoms: C_4  and  C_5
REMARK    3  A    between atoms: N_8  and  N_9
REMARK    4  A    between atoms: C_10  and  C_11
REMARK                            x       y       z     vdW  Elec       q    Type
REMARK                         _______ _______ _______ _____ _____    ______ ____
ROOT
ATOM      1  N   UNL     1       5.604   3.762  17.936  0.00  0.00    +0.000 NA
ATOM      2  C   UNL     1       5.469   3.545  16.671  0.00  0.00    +0.000 C 
ENDROOT
BRANCH   1  10
ATOM      3  C   UNL     1       1.201   2.711  21.880  0.00  0.00    +0.000 C 
ATOM      4  C   UNL     1       2.017   3.552  20.944  0.00  0.00    +0.000 A 
ATOM      5  C   UNL     1       1.740   4.894  20.785  0.00  0.00    +0.000 A 
ATOM      6  C   UNL     1       2.543   5.587  19.910  0.00  0.00    +0.000 A 
ATOM      7  C   UNL     1       2.344   7.047  19.651  0.00  0.00    +0.000 C 
ATOM      8  N   UNL     1       3.548   4.992  19.243  0.00  0.00    +0.000 NA
ATOM      9  C   UNL     1       3.768   3.682  19.449  0.00  0.00    +0.000 A 
ATOM     10  N   UNL     1       4.818   3.044  18.777  0.00  0.00    +0.000 N 
ATOM     11  N   UNL     1       3.025   2.933  20.286  0.00  0.00    +0.000 NA
ATOM     12  H   UNL     1       4.951   2.079  19.042  0.00  0.00    +0.000 HD
ENDBRANCH   1  10
BRANCH   2  13
ATOM     13  C   UNL     1       6.284   4.318  15.752  0.00  0.00    +0.000 A 
ATOM     14  C   UNL     1       7.061   5.409  16.099  0.00  0.00    +0.000 A 
ATOM     15  N   UNL     1       7.705   5.859  14.982  0.00  0.00    +0.000 N 
ATOM     16  C   UNL     1       7.331   5.116  13.888  0.00  0.00    +0.000 A 
ATOM     17  C   UNL     1       7.714   5.235  12.547  0.00  0.00    +0.000 A 
ATOM     18  C   UNL     1       7.155   4.339  11.632  0.00  0.00    +0.000 A 
ATOM     19  C   UNL     1       6.262   3.354  12.047  0.00  0.00    +0.000 A 
ATOM     20  C   UNL     1       5.904   3.237  13.396  0.00  0.00    +0.000 A 
ATOM     21  C   UNL     1       6.439   4.138  14.340  0.00  0.00    +0.000 A 
ATOM     22  H   UNL     1       8.354   6.633  14.959  0.00  0.00    +0.000 HD
ENDBRANCH   2  13
TORSDOF 2
ENDMDL
MODEL 3
REMARK VINA RESULT:      -7.5      4.417      8.102
REMARK  Name = 
REMARK  4 active torsions:
REMARK  status: ('A' for Active; 'I' for Inactive)
REMARK    1  A    between atoms: C_1  and  C_2
REMARK    2  A    between atoms: C_4  and  C_5
REMARK    3  A    between atoms: N_8  and  N_9
REMARK    4  A    between atoms: C_10  and  C_11
REMARK                            x       y       z     vdW  Elec       q    Type
REMARK                         _______ _______ _______ _____ _____    ______ ____
ROOT
ATOM      1  N   UNL     1       2.558   6.201  19.967  0.00  0.00    +0.000 NA
ATOM      2  C   UNL     1       2.658   4.915  19.925  0.00  0.00    +0.000 C 
ENDROOT
BRANCH   1  10
ATOM      3  C   UNL     1      -0.642  10.312  22.951  0.00  0.00    +0.000 C 
ATOM      4  C   UNL     1       0.109   9.764  21.774  0.00  0.00    +0.000 A 
ATOM      5  C   UNL     1       0.262  10.516  20.628  0.00  0.00    +0.000 A 
ATOM      6  C   UNL     1       0.969   9.934  19.602  0.00  0.00    +0.000 A 
ATOM      7  C   UNL     1       1.204  10.648  18.308  0.00  0.00    +0.000 C 
ATOM      8  N   UNL     1       1.487   8.698  19.707  0.00  0.00    +0.000 NA
ATOM      9  C   UNL     1       1.307   8.022  20.854  0.00  0.00    +0.000 A 
ATOM     10  N   UNL     1       1.850   6.738  20.991  0.00  0.00    +0.000 N 
ATOM     11  N   UNL     1       0.624   8.519  21.903  0.00  0.00    +0.000 NA
ATOM     12  H   UNL     1       1.722   6.332  21.907  0.00  0.00    +0.000 HD
ENDBRANCH   1  10
BRANCH   2  13
ATOM     13  C   UNL     1       3.393   4.320  18.824  0.00  0.00    +0.000 A 
ATOM     14  C   UNL     1       3.593   2.963  18.641  0.00  0.00    +0.000 A 
ATOM     15  N   UNL     1       4.301   2.778  17.488  0.00  0.00    +0.000 N 
ATOM     16  C   UNL     1       4.616   3.993  16.927  0.00  0.00    +0.000 A 
ATOM     17  C   UNL     1       5.346   4.286  15.768  0.00  0.00    +0.000 A 
ATOM     18  C   UNL     1       5.528   5.632  15.441  0.00  0.00    +0.000 A 
ATOM     19  C   UNL     1       4.987   6.642  16.232  0.00  0.00    +0.000 A 
ATOM     20  C   UNL     1       4.243   6.331  17.378  0.00  0.00    +0.000 A 
ATOM     21  C   UNL     1       4.058   4.982  17.743  0.00  0.00    +0.000 A 
ATOM     22  H   UNL     1       4.566   1.881  17.107  0.00  0.00    +0.000 HD
ENDBRANCH   2  13
TORSDOF 2
ENDMDL
MODEL 4
REMARK VINA RESULT:      -7.4      4.776      7.530
REMARK  Name = 
REMARK  4 active torsions:
REMARK  status: ('A' for Active; 'I' for Inactive)
REMARK    1  A    between atoms: C_1  and  C_2
REMARK    2  A    between atoms: C_4  and  C_5
REMARK    3  A    between atoms: N_8  and  N_9
REMARK    4  A    between atoms: C_10  and  C_11
REMARK                            x       y       z     vdW  Elec       q    Type
REMARK                         _______ _______ _______ _____ _____    ______ ____
ROOT
ATOM      1  N   UNL     1       2.652   7.344  18.159  0.00  0.00    +0.000 NA
ATOM      2  C   UNL     1       3.793   6.903  17.748  0.00  0.00    +0.000 C 
ENDROOT
BRANCH   1  10
ATOM      3  C   UNL     1       0.102  12.754  18.685  0.00  0.00    +0.000 C 
ATOM      4  C   UNL     1       0.466  11.372  19.139  0.00  0.00    +0.000 A 
ATOM      5  C   UNL     1       0.036  10.899  20.362  0.00  0.00    +0.000 A 
ATOM      6  C   UNL     1       0.414   9.619  20.691  0.00  0.00    +0.000 A 
ATOM      7  C   UNL     1       0.010   8.991  21.989  0.00  0.00    +0.000 C 
ATOM      8  N   UNL     1       1.163   8.863  19.869  0.00  0.00    +0.000 NA
ATOM      9  C   UNL     1       1.544   9.384  18.690  0.00  0.00    +0.000 A 
ATOM     10  N   UNL     1       2.312   8.610  17.810  0.00  0.00    +0.000 N 
ATOM     11  N   UNL     1       1.218  10.629  18.294  0.00  0.00    +0.000 NA
ATOM     12  H   UNL     1       2.496   9.056  16.923  0.00  0.00    +0.000 HD
ENDBRANCH   1  10
BRANCH   2  13
ATOM     13  C   UNL     1       4.185   5.558  18.129  0.00  0.00    +0.000 A 
ATOM     14  C   UNL     1       5.480   5.152  18.400  0.00  0.00    +0.000 A 
ATOM     15  N   UNL     1       5.459   3.833  18.750  0.00  0.00    +0.000 N 
ATOM     16  C   UNL     1       4.177   3.342  18.670  0.00  0.00    +0.000 A 
ATOM     17  C   UNL     1       3.692   2.051  18.910  0.00  0.00    +0.000 A 
ATOM     18  C   UNL     1       2.324   1.829  18.732  0.00  0.00    +0.000 A 
ATOM     19  C   UNL     1       1.475   2.864  18.346  0.00  0.00    +0.000 A 
ATOM     20  C   UNL     1       1.974   4.155  18.128  0.00  0.00    +0.000 A 
ATOM     21  C   UNL     1       3.353   4.403  18.283  0.00  0.00    +0.000 A 
ATOM     22  H   UNL     1       6.268   3.291  19.019  0.00  0.00    +0.000 HD
ENDBRANCH   2  13
TORSDOF 2
ENDMDL
MODEL 5
REMARK VINA RESULT:      -7.4      4.697      8.310
REMARK  Name = 
REMARK  4 active torsions:
REMARK  status: ('A' for Active; 'I' for Inactive)
REMARK    1  A    between atoms: C_1  and  C_2
REMARK    2  A    between atoms: C_4  and  C_5
REMARK    3  A    between atoms: N_8  and  N_9
REMARK    4  A    between atoms: C_10  and  C_11
REMARK                            x       y       z     vdW  Elec       q    Type
REMARK                         _______ _______ _______ _____ _____    ______ ____
ROOT
ATOM      1  N   UNL     1       2.538   6.584  19.869  0.00  0.00    +0.000 NA
ATOM      2  C   UNL     1       2.795   5.322  19.794  0.00  0.00    +0.000 C 
ENDROOT
BRANCH   1  10
ATOM      3  C   UNL     1      -0.842  10.314  23.141  0.00  0.00    +0.000 C 
ATOM      4  C   UNL     1      -0.058   9.894  21.933  0.00  0.00    +0.000 A 
ATOM      5  C   UNL     1       0.081  10.746  20.856  0.00  0.00    +0.000 A 
ATOM      6  C   UNL     1       0.821  10.278  19.796  0.00  0.00    +0.000 A 
ATOM      7  C   UNL     1       1.046  11.106  18.571  0.00  0.00    +0.000 C 
ATOM      8  N   UNL     1       1.382   9.056  19.804  0.00  0.00    +0.000 NA
ATOM      9  C   UNL     1       1.212   8.279  20.887  0.00  0.00    +0.000 A 
ATOM     10  N   UNL     1       1.799   7.007  20.924  0.00  0.00    +0.000 N 
ATOM     11  N   UNL     1       0.499   8.662  21.964  0.00  0.00    +0.000 NA
ATOM     12  H   UNL     1       1.675   6.521  21.801  0.00  0.00    +0.000 HD
ENDBRANCH   1  10
BRANCH   2  13
ATOM     13  C   UNL     1       3.566   4.845  18.660  0.00  0.00    +0.000 A 
ATOM     14  C   UNL     1       3.044   4.184  17.562  0.00  0.00    +0.000 A 
ATOM     15  N   UNL     1       4.060   3.917  16.690  0.00  0.00    +0.000 N 
ATOM     16  C   UNL     1       5.257   4.347  17.212  0.00  0.00    +0.000 A 
ATOM     17  C   UNL     1       6.551   4.260  16.685  0.00  0.00    +0.000 A 
ATOM     18  C   UNL     1       7.599   4.774  17.452  0.00  0.00    +0.000 A 
ATOM     19  C   UNL     1       7.358   5.367  18.689  0.00  0.00    +0.000 A 
ATOM     20  C   UNL     1       6.055   5.463  19.194  0.00  0.00    +0.000 A 
ATOM     21  C   UNL     1       4.979   4.936  18.449  0.00  0.00    +0.000 A 
ATOM     22  H   UNL     1       3.953   3.460  15.796  0.00  0.00    +0.000 HD
ENDBRANCH   2  13
TORSDOF 2
ENDMDL
MODEL 6
REMARK VINA RESULT:      -7.3      5.071      7.842
REMARK  Name = 
REMARK  4 active torsions:
REMARK  status: ('A' for Active; 'I' for Inactive)
REMARK    1  A    between atoms: C_1  and  C_2
REMARK    2  A    between atoms: C_4  and  C_5
REMARK    3  A    between atoms: N_8  and  N_9
REMARK    4  A    between atoms: C_10  and  C_11
REMARK                            x       y       z     vdW  Elec       q    Type
REMARK                         _______ _______ _______ _____ _____    ______ ____
ROOT
ATOM      1  N   UNL     1       2.427   7.624  18.850  0.00  0.00    +0.000 NA
ATOM      2  C   UNL     1       2.805   6.714  18.018  0.00  0.00    +0.000 C 
ENDROOT
BRANCH   1  10
ATOM      3  C   UNL     1      -0.754  12.713  18.653  0.00  0.00    +0.000 C 
ATOM      4  C   UNL     1      -0.221  11.465  19.293  0.00  0.00    +0.000 A 
ATOM      5  C   UNL     1      -0.581  11.130  20.582  0.00  0.00    +0.000 A 
ATOM      6  C   UNL     1      -0.048   9.966  21.084  0.00  0.00    +0.000 A 
ATOM      7  C   UNL     1      -0.361   9.494  22.469  0.00  0.00    +0.000 C 
ATOM      8  N   UNL     1       0.780   9.192  20.361  0.00  0.00    +0.000 NA
ATOM      9  C   UNL     1       1.085   9.574  19.108  0.00  0.00    +0.000 A 
ATOM     10  N   UNL     1       1.933   8.776  18.330  0.00  0.00    +0.000 N 
ATOM     11  N   UNL     1       0.607  10.701  18.545  0.00  0.00    +0.000 NA
ATOM     12  H   UNL     1       2.054   9.104  17.383  0.00  0.00    +0.000 HD
ENDBRANCH   1  10
BRANCH   2  13
ATOM     13  C   UNL     1       3.357   5.483  18.553  0.00  0.00    +0.000 A 
ATOM     14  C   UNL     1       4.575   4.933  18.195  0.00  0.00    +0.000 A 
ATOM     15  N   UNL     1       4.771   3.794  18.923  0.00  0.00    +0.000 N 
ATOM     16  C   UNL     1       3.681   3.552  19.725  0.00  0.00    +0.000 A 
ATOM     17  C   UNL     1       3.433   2.497  20.611  0.00  0.00    +0.000 A 
ATOM     18  C   UNL     1       2.214   2.496  21.294  0.00  0.00    +0.000 A 
ATOM     19  C   UNL     1       1.289   3.520  21.108  0.00  0.00    +0.000 A 
ATOM     20  C   UNL     1       1.560   4.579  20.232  0.00  0.00    +0.000 A 
ATOM     21  C   UNL     1       2.775   4.596  19.516  0.00  0.00    +0.000 A 
ATOM     22  H   UNL     1       5.592   3.208  18.874  0.00  0.00    +0.000 HD
ENDBRANCH   2  13
TORSDOF 2
ENDMDL
MODEL 7
REMARK VINA RESULT:      -7.3      6.111      8.523
REMARK  Name = 
REMARK  4 active torsions:
REMARK  status: ('A' for Active; 'I' for Inactive)
REMARK    1  A    between atoms: C_1  and  C_2
REMARK    2  A    between atoms: C_4  and  C_5
REMARK    3  A    between atoms: N_8  and  N_9
REMARK    4  A    between atoms: C_10  and  C_11
REMARK                            x       y       z     vdW  Elec       q    Type
REMARK                         _______ _______ _______ _____ _____    ______ ____
ROOT
ATOM      1  N   UNL     1       1.635   8.902  18.639  0.00  0.00    +0.000 NA
ATOM      2  C   UNL     1       2.127   7.868  19.234  0.00  0.00    +0.000 C 
ENDROOT
BRANCH   1  10
ATOM      3  C   UNL     1      -2.722  12.730  20.189  0.00  0.00    +0.000 C 
ATOM      4  C   UNL     1      -2.049  11.718  19.309  0.00  0.00    +0.000 A 
ATOM      5  C   UNL     1      -2.621  11.339  18.112  0.00  0.00    +0.000 A 
ATOM      6  C   UNL     1      -1.930  10.410  17.370  0.00  0.00    +0.000 A 
ATOM      7  C   UNL     1      -2.445   9.919  16.054  0.00  0.00    +0.000 C 
ATOM      8  N   UNL     1      -0.759   9.896  17.785  0.00  0.00    +0.000 NA
ATOM      9  C   UNL     1      -0.255  10.313  18.959  0.00  0.00    +0.000 A 
ATOM     10  N   UNL     1       0.970   9.802  19.405  0.00  0.00    +0.000 N 
ATOM     11  N   UNL     1      -0.871  11.217  19.746  0.00  0.00    +0.000 NA
ATOM     12  H   UNL     1       1.304  10.220  20.262  0.00  0.00    +0.000 HD
ENDBRANCH   1  10
BRANCH   2  13
ATOM     13  C   UNL     1       2.823   6.880  18.429  0.00  0.00    +0.000 A 
ATOM     14  C   UNL     1       3.902   7.141  17.602  0.00  0.00    +0.000 A 
ATOM     15  N   UNL     1       4.307   5.968  17.031  0.00  0.00    +0.000 N 
ATOM     16  C   UNL     1       3.485   4.940  17.427  0.00  0.00    +0.000 A 
ATOM     17  C   UNL     1       3.507   3.585  17.075  0.00  0.00    +0.000 A 
ATOM     18  C   UNL     1       2.524   2.757  17.624  0.00  0.00    +0.000 A 
ATOM     19  C   UNL     1       1.570   3.263  18.503  0.00  0.00    +0.000 A 
ATOM     20  C   UNL     1       1.573   4.618  18.860  0.00  0.00    +0.000 A 
ATOM     21  C   UNL     1       2.542   5.481  18.307  0.00  0.00    +0.000 A 
ATOM     22  H   UNL     1       5.090   5.870  16.401  0.00  0.00    +0.000 HD
ENDBRANCH   2  13
TORSDOF 2
ENDMDL
MODEL 8
REMARK VINA RESULT:      -7.2      4.941      7.570
REMARK  Name = 
REMARK  4 active torsions:
REMARK  status: ('A' for Active; 'I' for Inactive)
REMARK    1  A    between atoms: C_1  and  C_2
REMARK    2  A    between atoms: C_4  and  C_5
REMARK    3  A    between atoms: N_8  and  N_9
REMARK    4  A    between atoms: C_10  and  C_11
REMARK                            x       y       z     vdW  Elec       q    Type
REMARK                         _______ _______ _______ _____ _____    ______ ____
ROOT
ATOM      1  N   UNL     1       2.095   7.697  17.810  0.00  0.00    +0.000 NA
ATOM      2  C   UNL     1       3.242   7.133  17.993  0.00  0.00    +0.000 C 
ENDROOT
BRANCH   1  10
ATOM      3  C   UNL     1       0.842  13.284  19.614  0.00  0.00    +0.000 C 
ATOM      4  C   UNL     1       0.864  11.789  19.732  0.00  0.00    +0.000 A 
ATOM      5  C   UNL     1       0.297  11.163  20.824  0.00  0.00    +0.000 A 
ATOM      6  C   UNL     1       0.360   9.790  20.844  0.00  0.00    +0.000 A 
ATOM      7  C   UNL     1      -0.218   8.995  21.972  0.00  0.00    +0.000 C 
ATOM      8  N   UNL     1       0.941   9.089  19.855  0.00  0.00    +0.000 NA
ATOM      9  C   UNL     1       1.469   9.761  18.817  0.00  0.00    +0.000 A 
ATOM     10  N   UNL     1       2.067   9.052  17.768  0.00  0.00    +0.000 N 
ATOM     11  N   UNL     1       1.451  11.105  18.724  0.00  0.00    +0.000 NA
ATOM     12  H   UNL     1       2.376   9.632  17.001  0.00  0.00    +0.000 HD
ENDBRANCH   1  10
BRANCH   2  13
ATOM     13  C   UNL     1       3.291   5.685  18.064  0.00  0.00    +0.000 A 
ATOM     14  C   UNL     1       4.022   4.869  17.220  0.00  0.00    +0.000 A 
ATOM     15  N   UNL     1       3.847   3.571  17.606  0.00  0.00    +0.000 N 
ATOM     16  C   UNL     1       2.972   3.507  18.665  0.00  0.00    +0.000 A 
ATOM     17  C   UNL     1       2.484   2.395  19.362  0.00  0.00    +0.000 A 
ATOM     18  C   UNL     1       1.579   2.628  20.401  0.00  0.00    +0.000 A 
ATOM     19  C   UNL     1       1.191   3.922  20.737  0.00  0.00    +0.000 A 
ATOM     20  C   UNL     1       1.703   5.025  20.041  0.00  0.00    +0.000 A 
ATOM     21  C   UNL     1       2.605   4.820  18.977  0.00  0.00    +0.000 A 
ATOM     22  H   UNL     1       4.286   2.771  17.173  0.00  0.00    +0.000 HD
ENDBRANCH   2  13
TORSDOF 2
ENDMDL
MODEL 9
REMARK VINA RESULT:      -7.2      5.955      8.266
REMARK  Name = 
REMARK  4 active torsions:
REMARK  status: ('A' for Active; 'I' for Inactive)
REMARK    1  A    between atoms: C_1  and  C_2
REMARK    2  A    between atoms: C_4  and  C_5
REMARK    3  A    between atoms: N_8  and  N_9
REMARK    4  A    between atoms: C_10  and  C_11
REMARK                            x       y       z     vdW  Elec       q    Type
REMARK                         _______ _______ _______ _____ _____    ______ ____
ROOT
ATOM      1  N   UNL     1       1.687   8.477  18.978  0.00  0.00    +0.000 NA
ATOM      2  C   UNL     1       2.131   7.479  19.665  0.00  0.00    +0.000 C 
ENDROOT
BRANCH   1  10
ATOM      3  C   UNL     1      -1.695  13.254  20.315  0.00  0.00    +0.000 C 
ATOM      4  C   UNL     1      -1.312  12.035  19.529  0.00  0.00    +0.000 A 
ATOM      5  C   UNL     1      -2.054  11.646  18.433  0.00  0.00    +0.000 A 
ATOM      6  C   UNL     1      -1.625  10.519  17.772  0.00  0.00    +0.000 A 
ATOM      7  C   UNL     1      -2.343   9.996  16.568  0.00  0.00    +0.000 C 
ATOM      8  N   UNL     1      -0.541   9.830  18.168  0.00  0.00    +0.000 NA
ATOM      9  C   UNL     1       0.140  10.267  19.242  0.00  0.00    +0.000 A 
ATOM     10  N   UNL     1       1.281   9.574  19.665  0.00  0.00    +0.000 N 
ATOM     11  N   UNL     1      -0.216  11.359  19.945  0.00  0.00    +0.000 NA
ATOM     12  H   UNL     1       1.766  10.010  20.436  0.00  0.00    +0.000 HD
ENDBRANCH   1  10
BRANCH   2  13
ATOM     13  C   UNL     1       2.550   6.287  18.950  0.00  0.00    +0.000 A 
ATOM     14  C   UNL     1       3.479   6.256  17.926  0.00  0.00    +0.000 A 
ATOM     15  N   UNL     1       3.637   4.962  17.519  0.00  0.00    +0.000 N 
ATOM     16  C   UNL     1       2.792   4.138  18.223  0.00  0.00    +0.000 A 
ATOM     17  C   UNL     1       2.596   2.755  18.125  0.00  0.00    +0.000 A 
ATOM     18  C   UNL     1       1.646   2.174  18.968  0.00  0.00    +0.000 A 
ATOM     19  C   UNL     1       0.934   2.944  19.884  0.00  0.00    +0.000 A 
ATOM     20  C   UNL     1       1.156   4.324  19.983  0.00  0.00    +0.000 A 
ATOM     21  C   UNL     1       2.096   4.941  19.132  0.00  0.00    +0.000 A 
ATOM     22  H   UNL     1       4.274   4.654  16.797  0.00  0.00    +0.000 HD
ENDBRANCH   2  13
TORSDOF 2
ENDMDL
