MODEL 1
REMARK VINA RESULT:      -6.8      0.000      0.000
REMARK  Name = 
REMARK  5 active torsions:
REMARK  status: ('A' for Active; 'I' for Inactive)
REMARK    1  A    between atoms: O_1  and  C_2
REMARK    2  A    between atoms: C_7  and  C_8
REMARK    3  A    between atoms: N_9  and  C_10
REMARK    4  A    between atoms: C_10  and  C_11
REMARK    5  A    between atoms: C_11  and  N_12
REMARK                            x       y       z     vdW  Elec       q    Type
REMARK                         _______ _______ _______ _____ _____    ______ ____
ROOT
ATOM      1  C   UNL     1       3.481   5.833  17.803  0.00  0.00    +0.000 C 
ATOM      2  N   UNL     1       4.772   5.948  17.762  0.00  0.00    +0.000 NA
ENDROOT
BRANCH   1   8
ATOM      3  C   UNL     1       2.091   3.657  18.031  0.00  0.00    +0.000 A 
ATOM      4  C   UNL     1       1.289   2.837  18.835  0.00  0.00    +0.000 A 
ATOM      5  C   UNL     1       0.882   3.274  20.090  0.00  0.00    +0.000 A 
ATOM      6  C   UNL     1       1.271   4.528  20.546  0.00  0.00    +0.000 A 
ATOM      7  C   UNL     1       2.117   5.326  19.764  0.00  0.00    +0.000 A 
ATOM      8  C   UNL     1       2.568   4.883  18.507  0.00  0.00    +0.000 A 
BRANCH   3   9
ATOM      9  O   UNL     1       2.302   3.247  16.749  0.00  0.00    +0.000 OA
ATOM     10  H   UNL     1       1.724   2.495  16.540  0.00  0.00    +0.000 HD
ENDBRANCH   3   9
ENDBRANCH   1   8
BRANCH   2  11
ATOM     11  C   UNL     1       5.606   5.004  18.501  0.00  0.00    +0.000 C 
BRANCH  11  12
ATOM     12  C   UNL     1       6.930   4.726  17.806  0.00  0.00    +0.000 C 
BRANCH  12  13
ATOM     13  N   UNL     1       6.691   4.625  16.369  0.00  0.00    +0.000 N 
ATOM     14  C   UNL     1       5.937   3.674  15.735  0.00  0.00    +0.000 A 
ATOM     15  C   UNL     1       6.128   3.872  14.387  0.00  0.00    +0.000 A 
ATOM     16  C   UNL     1       7.016   4.959  14.311  0.00  0.00    +0.000 A 
ATOM     17  N   UNL     1       7.367   5.419  15.515  0.00  0.00    +0.000 NA
ENDBRANCH  12  13
ENDBRANCH  11  12
ENDBRANCH   2  11
TORSDOF 5
ENDMDL
MODEL 2
REMARK VINA RESULT:      -6.7      1.283      1.755
REMARK  Name = 
REMARK  5 active torsions:
REMARK  status: ('A' for Active; 'I' for Inactive)
REMARK    1  A    between atoms: O_1  and  C_2
REMARK    2  A    between atoms: C_7  and  C_8
REMARK    3  A    between atoms: N_9  and  C_10
REMARK    4  A    between atoms: C_10  and  C_11
REMARK    5  A    between atoms: C_11  and  N_12
REMARK                            x       y       z     vdW  Elec       q    Type
REMARK                         _______ _______ _______ _____ _____    ______ ____
ROOT
ATOM      1  C   UNL     1       3.938   6.058  17.826  0.00  0.00    +0.000 C 
ATOM      2  N   UNL     1       5.234   6.112  17.816  0.00  0.00    +0.000 NA
ENDROOT
BRANCH   1   8
ATOM      3  C   UNL     1       2.362   5.171  19.684  0.00  0.00    +0.000 A 
ATOM      4  C   UNL     1       1.415   4.221  20.086  0.00  0.00    +0.000 A 
ATOM      5  C   UNL     1       1.129   3.134  19.271  0.00  0.00    +0.000 A 
ATOM      6  C   UNL     1       1.784   2.989  18.054  0.00  0.00    +0.000 A 
ATOM      7  C   UNL     1       2.692   3.967  17.627  0.00  0.00    +0.000 A 
ATOM      8  C   UNL     1       2.967   5.094  18.425  0.00  0.00    +0.000 A 
BRANCH   3   9
ATOM      9  O   UNL     1       2.726   6.108  20.605  0.00  0.00    +0.000 OA
ATOM     10  H   UNL     1       2.393   5.860  21.482  0.00  0.00    +0.000 HD
ENDBRANCH   3   9
ENDBRANCH   1   8
BRANCH   2  11
ATOM     11  C   UNL     1       6.006   5.065  18.479  0.00  0.00    +0.000 C 
BRANCH  11  12
ATOM     12  C   UNL     1       7.229   4.646  17.678  0.00  0.00    +0.000 C 
BRANCH  12  13
ATOM     13  N   UNL     1       6.865   4.588  16.265  0.00  0.00    +0.000 N 
ATOM     14  C   UNL     1       5.997   3.703  15.684  0.00  0.00    +0.000 A 
ATOM     15  C   UNL     1       6.088   3.912  14.328  0.00  0.00    +0.000 A 
ATOM     16  C   UNL     1       7.039   4.939  14.191  0.00  0.00    +0.000 A 
ATOM     17  N   UNL     1       7.521   5.350  15.367  0.00  0.00    +0.000 NA
ENDBRANCH  12  13
ENDBRANCH  11  12
ENDBRANCH   2  11
TORSDOF 5
ENDMDL
MODEL 3
REMARK VINA RESULT:      -6.6      2.168      2.944
REMARK  Name = 
REMARK  5 active torsions:
REMARK  status: ('A' for Active; 'I' for Inactive)
REMARK    1  A    between atoms: O_1  and  C_2
REMARK    2  A    between atoms: C_7  and  C_8
REMARK    3  A    between atoms: N_9  and  C_10
REMARK    4  A    between atoms: C_10  and  C_11
REMARK    5  A    between atoms: C_11  and  N_12
REMARK                            x       y       z     vdW  Elec       q    Type
REMARK                         _______ _______ _______ _____ _____    ______ ____
ROOT
ATOM      1  C   UNL     1       3.264   3.076  17.411  0.00  0.00    +0.000 C 
ATOM      2  N   UNL     1       4.168   3.757  16.776  0.00  0.00    +0.000 NA
ENDROOT
BRANCH   1   8
ATOM      3  C   UNL     1       3.590   2.590  19.936  0.00  0.00    +0.000 A 
ATOM      4  C   UNL     1       3.082   2.675  21.238  0.00  0.00    +0.000 A 
ATOM      5  C   UNL     1       1.786   3.127  21.453  0.00  0.00    +0.000 A 
ATOM      6  C   UNL     1       0.992   3.493  20.373  0.00  0.00    +0.000 A 
ATOM      7  C   UNL     1       1.518   3.458  19.074  0.00  0.00    +0.000 A 
ATOM      8  C   UNL     1       2.841   3.038  18.843  0.00  0.00    +0.000 A 
BRANCH   3   9
ATOM      9  O   UNL     1       4.795   1.972  19.783  0.00  0.00    +0.000 OA
ATOM     10  H   UNL     1       5.240   2.302  18.986  0.00  0.00    +0.000 HD
ENDBRANCH   3   9
ENDBRANCH   1   8
BRANCH   2  11
ATOM     11  C   UNL     1       5.012   4.696  17.509  0.00  0.00    +0.000 C 
BRANCH  11  12
ATOM     12  C   UNL     1       6.483   4.566  17.144  0.00  0.00    +0.000 C 
BRANCH  12  13
ATOM     13  N   UNL     1       7.166   5.804  17.506  0.00  0.00    +0.000 N 
ATOM     14  C   UNL     1       7.829   6.055  18.678  0.00  0.00    +0.000 A 
ATOM     15  C   UNL     1       8.167   7.388  18.648  0.00  0.00    +0.000 A 
ATOM     16  C   UNL     1       7.661   7.854  17.421  0.00  0.00    +0.000 A 
ATOM     17  N   UNL     1       7.045   6.895  16.725  0.00  0.00    +0.000 NA
ENDBRANCH  12  13
ENDBRANCH  11  12
ENDBRANCH   2  11
TORSDOF 5
ENDMDL
MODEL 4
REMARK VINA RESULT:      -6.5      1.625      1.926
REMARK  Name = 
REMARK  5 active torsions:
REMARK  status: ('A' for Active; 'I' for Inactive)
REMARK    1  A    between atoms: O_1  and  C_2
REMARK    2  A    between atoms: C_7  and  C_8
REMARK    3  A    between atoms: N_9  and  C_10
REMARK    4  A    between atoms: C_10  and  C_11
REMARK    5  A    between atoms: C_11  and  N_12
REMARK                            x       y       z     vdW  Elec       q    Type
REMARK                         _______ _______ _______ _____ _____    ______ ____
ROOT
ATOM      1  C   UNL     1       4.879   5.071  19.130  0.00  0.00    +0.000 C 
ATOM      2  N   UNL     1       5.950   5.311  18.440  0.00  0.00    +0.000 NA
ENDROOT
BRANCH   1   8
ATOM      3  C   UNL     1       3.676   2.777  19.243  0.00  0.00    +0.000 A 
ATOM      4  C   UNL     1       2.500   2.041  19.056  0.00  0.00    +0.000 A 
ATOM      5  C   UNL     1       1.390   2.637  18.470  0.00  0.00    +0.000 A 
ATOM      6  C   UNL     1       1.450   3.965  18.068  0.00  0.00    +0.000 A 
ATOM      7  C   UNL     1       2.609   4.717  18.302  0.00  0.00    +0.000 A 
ATOM      8  C   UNL     1       3.729   4.139  18.929  0.00  0.00    +0.000 A 
BRANCH   3   9
ATOM      9  O   UNL     1       4.777   2.086  19.655  0.00  0.00    +0.000 OA
ATOM     10  H   UNL     1       5.286   1.781  18.886  0.00  0.00    +0.000 HD
ENDBRANCH   3   9
ENDBRANCH   1   8
BRANCH   2  11
ATOM     11  C   UNL     1       6.178   4.597  17.187  0.00  0.00    +0.000 C 
BRANCH  11  12
ATOM     12  C   UNL     1       7.215   5.278  16.307  0.00  0.00    +0.000 C 
BRANCH  12  13
ATOM     13  N   UNL     1       6.969   4.903  14.918  0.00  0.00    +0.000 N 
ATOM     14  C   UNL     1       6.098   3.942  14.477  0.00  0.00    +0.000 A 
ATOM     15  C   UNL     1       6.316   3.820  13.124  0.00  0.00    +0.000 A 
ATOM     16  C   UNL     1       7.340   4.744  12.846  0.00  0.00    +0.000 A 
ATOM     17  N   UNL     1       7.745   5.402  13.935  0.00  0.00    +0.000 NA
ENDBRANCH  12  13
ENDBRANCH  11  12
ENDBRANCH   2  11
TORSDOF 5
ENDMDL
MODEL 5
REMARK VINA RESULT:      -6.4      2.736      5.710
REMARK  Name = 
REMARK  5 active torsions:
REMARK  status: ('A' for Active; 'I' for Inactive)
REMARK    1  A    between atoms: O_1  and  C_2
REMARK    2  A    between atoms: C_7  and  C_8
REMARK    3  A    between atoms: N_9  and  C_10
REMARK    4  A    between atoms: C_10  and  C_11
REMARK    5  A    between atoms: C_11  and  N_12
REMARK                            x       y       z     vdW  Elec       q    Type
REMARK                         _______ _______ _______ _____ _____    ______ ____
ROOT
ATOM      1  C   UNL     1       3.807   5.561  17.729  0.00  0.00    +0.000 C 
ATOM      2  N   UNL     1       3.201   4.444  17.469  0.00  0.00    +0.000 NA
ENDROOT
BRANCH   1   8
ATOM      3  C   UNL     1       6.036   5.344  19.034  0.00  0.00    +0.000 A 
ATOM      4  C   UNL     1       7.380   5.713  19.160  0.00  0.00    +0.000 A 
ATOM      5  C   UNL     1       7.910   6.706  18.345  0.00  0.00    +0.000 A 
ATOM      6  C   UNL     1       7.103   7.333  17.404  0.00  0.00    +0.000 A 
ATOM      7  C   UNL     1       5.772   6.927  17.241  0.00  0.00    +0.000 A 
ATOM      8  C   UNL     1       5.230   5.898  18.034  0.00  0.00    +0.000 A 
BRANCH   3   9
ATOM      9  O   UNL     1       5.537   4.499  19.980  0.00  0.00    +0.000 OA
ATOM     10  H   UNL     1       6.126   3.735  20.088  0.00  0.00    +0.000 HD
ENDBRANCH   3   9
ENDBRANCH   1   8
BRANCH   2  11
ATOM     11  C   UNL     1       3.959   3.196  17.460  0.00  0.00    +0.000 C 
BRANCH  11  12
ATOM     12  C   UNL     1       3.128   2.005  17.915  0.00  0.00    +0.000 C 
BRANCH  12  13
ATOM     13  N   UNL     1       2.588   2.291  19.240  0.00  0.00    +0.000 N 
ATOM     14  C   UNL     1       1.275   2.528  19.551  0.00  0.00    +0.000 A 
ATOM     15  C   UNL     1       1.257   2.908  20.873  0.00  0.00    +0.000 A 
ATOM     16  C   UNL     1       2.606   2.875  21.269  0.00  0.00    +0.000 A 
ATOM     17  N   UNL     1       3.421   2.505  20.278  0.00  0.00    +0.000 NA
ENDBRANCH  12  13
ENDBRANCH  11  12
ENDBRANCH   2  11
TORSDOF 5
ENDMDL
MODEL 6
REMARK VINA RESULT:      -6.4      1.801      2.214
REMARK  Name = 
REMARK  5 active torsions:
REMARK  status: ('A' for Active; 'I' for Inactive)
REMARK    1  A    between atoms: O_1  and  C_2
REMARK    2  A    between atoms: C_7  and  C_8
REMARK    3  A    between atoms: N_9  and  C_10
REMARK    4  A    between atoms: C_10  and  C_11
REMARK    5  A    between atoms: C_11  and  N_12
REMARK                            x       y       z     vdW  Elec       q    Type
REMARK                         _______ _______ _______ _____ _____    ______ ____
ROOT
ATOM      1  C   UNL     1       5.454   4.925  19.513  0.00  0.00    +0.000 C 
ATOM      2  N   UNL     1       6.662   5.240  19.159  0.00  0.00    +0.000 NA
ENDROOT
BRANCH   1   8
ATOM      3  C   UNL     1       3.419   4.645  17.932  0.00  0.00    +0.000 A 
ATOM      4  C   UNL     1       2.494   3.787  17.325  0.00  0.00    +0.000 A 
ATOM      5  C   UNL     1       2.449   2.445  17.684  0.00  0.00    +0.000 A 
ATOM      6  C   UNL     1       3.323   1.956  18.648  0.00  0.00    +0.000 A 
ATOM      7  C   UNL     1       4.283   2.803  19.217  0.00  0.00    +0.000 A 
ATOM      8  C   UNL     1       4.366   4.156  18.837  0.00  0.00    +0.000 A 
BRANCH   3   9
ATOM      9  O   UNL     1       3.290   5.976  17.668  0.00  0.00    +0.000 OA
ATOM     10  H   UNL     1       3.221   6.475  18.498  0.00  0.00    +0.000 HD
ENDBRANCH   3   9
ENDBRANCH   1   8
BRANCH   2  11
ATOM     11  C   UNL     1       7.164   4.825  17.853  0.00  0.00    +0.000 C 
BRANCH  11  12
ATOM     12  C   UNL     1       7.036   5.921  16.804  0.00  0.00    +0.000 C 
BRANCH  12  13
ATOM     13  N   UNL     1       6.728   5.303  15.518  0.00  0.00    +0.000 N 
ATOM     14  C   UNL     1       5.666   4.483  15.242  0.00  0.00    +0.000 A 
ATOM     15  C   UNL     1       5.868   4.012  13.965  0.00  0.00    +0.000 A 
ATOM     16  C   UNL     1       7.079   4.600  13.559  0.00  0.00    +0.000 A 
ATOM     17  N   UNL     1       7.610   5.382  14.502  0.00  0.00    +0.000 NA
ENDBRANCH  12  13
ENDBRANCH  11  12
ENDBRANCH   2  11
TORSDOF 5
ENDMDL
MODEL 7
REMARK VINA RESULT:      -6.4      2.793      5.641
REMARK  Name = 
REMARK  5 active torsions:
REMARK  status: ('A' for Active; 'I' for Inactive)
REMARK    1  A    between atoms: O_1  and  C_2
REMARK    2  A    between atoms: C_7  and  C_8
REMARK    3  A    between atoms: N_9  and  C_10
REMARK    4  A    between atoms: C_10  and  C_11
REMARK    5  A    between atoms: C_11  and  N_12
REMARK                            x       y       z     vdW  Elec       q    Type
REMARK                         _______ _______ _______ _____ _____    ______ ____
ROOT
ATOM      1  C   UNL     1       3.429   5.778  17.958  0.00  0.00    +0.000 C 
ATOM      2  N   UNL     1       2.651   4.785  17.652  0.00  0.00    +0.000 NA
ENDROOT
BRANCH   1   8
ATOM      3  C   UNL     1       5.751   6.461  17.029  0.00  0.00    +0.000 A 
ATOM      4  C   UNL     1       7.127   6.593  17.250  0.00  0.00    +0.000 A 
ATOM      5  C   UNL     1       7.696   6.108  18.420  0.00  0.00    +0.000 A 
ATOM      6  C   UNL     1       6.896   5.489  19.374  0.00  0.00    +0.000 A 
ATOM      7  C   UNL     1       5.511   5.403  19.177  0.00  0.00    +0.000 A 
ATOM      8  C   UNL     1       4.915   5.923  18.013  0.00  0.00    +0.000 A 
BRANCH   3   9
ATOM      9  O   UNL     1       5.289   6.793  15.791  0.00  0.00    +0.000 OA
ATOM     10  H   UNL     1       4.476   7.318  15.868  0.00  0.00    +0.000 HD
ENDBRANCH   3   9
ENDBRANCH   1   8
BRANCH   2  11
ATOM     11  C   UNL     1       3.233   3.498  17.285  0.00  0.00    +0.000 C 
BRANCH  11  12
ATOM     12  C   UNL     1       2.407   2.321  17.782  0.00  0.00    +0.000 C 
BRANCH  12  13
ATOM     13  N   UNL     1       2.198   2.471  19.219  0.00  0.00    +0.000 N 
ATOM     14  C   UNL     1       1.014   2.759  19.844  0.00  0.00    +0.000 A 
ATOM     15  C   UNL     1       1.321   2.965  21.169  0.00  0.00    +0.000 A 
ATOM     16  C   UNL     1       2.713   2.784  21.242  0.00  0.00    +0.000 A 
ATOM     17  N   UNL     1       3.254   2.489  20.057  0.00  0.00    +0.000 NA
ENDBRANCH  12  13
ENDBRANCH  11  12
ENDBRANCH   2  11
TORSDOF 5
ENDMDL
MODEL 8
REMARK VINA RESULT:      -6.4      2.363      3.229
REMARK  Name = 
REMARK  5 active torsions:
REMARK  status: ('A' for Active; 'I' for Inactive)
REMARK    1  A    between atoms: O_1  and  C_2
REMARK    2  A    between atoms: C_7  and  C_8
REMARK    3  A    between atoms: N_9  and  C_10
REMARK    4  A    between atoms: C_10  and  C_11
REMARK    5  A    between atoms: C_11  and  N_12
REMARK                            x       y       z     vdW  Elec       q    Type
REMARK                         _______ _______ _______ _____ _____    ______ ____
ROOT
ATOM      1  C   UNL     1       3.544   2.993  17.488  0.00  0.00    +0.000 C 
ATOM      2  N   UNL     1       3.911   4.008  16.767  0.00  0.00    +0.000 NA
ENDROOT
BRANCH   1   8
ATOM      3  C   UNL     1       3.702   2.595  20.045  0.00  0.00    +0.000 A 
ATOM      4  C   UNL     1       3.057   2.582  21.288  0.00  0.00    +0.000 A 
ATOM      5  C   UNL     1       1.682   2.764  21.362  0.00  0.00    +0.000 A 
ATOM      6  C   UNL     1       0.945   2.957  20.199  0.00  0.00    +0.000 A 
ATOM      7  C   UNL     1       1.597   3.022  18.960  0.00  0.00    +0.000 A 
ATOM      8  C   UNL     1       2.994   2.877  18.872  0.00  0.00    +0.000 A 
BRANCH   3   9
ATOM      9  O   UNL     1       5.015   2.233  20.027  0.00  0.00    +0.000 OA
ATOM     10  H   UNL     1       5.274   1.959  19.132  0.00  0.00    +0.000 HD
ENDBRANCH   3   9
ENDBRANCH   1   8
BRANCH   2  11
ATOM     11  C   UNL     1       3.826   5.356  17.321  0.00  0.00    +0.000 C 
BRANCH  11  12
ATOM     12  C   UNL     1       4.936   6.265  16.815  0.00  0.00    +0.000 C 
BRANCH  12  13
ATOM     13  N   UNL     1       6.031   6.249  17.781  0.00  0.00    +0.000 N 
ATOM     14  C   UNL     1       7.261   6.832  17.628  0.00  0.00    +0.000 A 
ATOM     15  C   UNL     1       8.014   6.424  18.704  0.00  0.00    +0.000 A 
ATOM     16  C   UNL     1       7.153   5.595  19.445  0.00  0.00    +0.000 A 
ATOM     17  N   UNL     1       5.946   5.480  18.885  0.00  0.00    +0.000 NA
ENDBRANCH  12  13
ENDBRANCH  11  12
ENDBRANCH   2  11
TORSDOF 5
ENDMDL
MODEL 9
REMARK VINA RESULT:      -6.4      1.401      2.200
REMARK  Name = 
REMARK  5 active torsions:
REMARK  status: ('A' for Active; 'I' for Inactive)
REMARK    1  A    between atoms: O_1  and  C_2
REMARK    2  A    between atoms: C_7  and  C_8
REMARK    3  A    between atoms: N_9  and  C_10
REMARK    4  A    between atoms: C_10  and  C_11
REMARK    5  A    between atoms: C_11  and  N_12
REMARK                            x       y       z     vdW  Elec       q    Type
REMARK                         _______ _______ _______ _____ _____    ______ ____
ROOT
ATOM      1  C   UNL     1       3.118   5.388  17.899  0.00  0.00    +0.000 C 
ATOM      2  N   UNL     1       4.173   5.330  17.147  0.00  0.00    +0.000 NA
ENDROOT
BRANCH   1   8
ATOM      3  C   UNL     1       1.999   3.189  18.695  0.00  0.00    +0.000 A 
ATOM      4  C   UNL     1       1.557   2.399  19.763  0.00  0.00    +0.000 A 
ATOM      5  C   UNL     1       1.574   2.904  21.058  0.00  0.00    +0.000 A 
ATOM      6  C   UNL     1       2.029   4.196  21.291  0.00  0.00    +0.000 A 
ATOM      7  C   UNL     1       2.521   4.967  20.229  0.00  0.00    +0.000 A 
ATOM      8  C   UNL     1       2.545   4.457  18.918  0.00  0.00    +0.000 A 
BRANCH   3   9
ATOM      9  O   UNL     1       1.788   2.702  17.440  0.00  0.00    +0.000 OA
ATOM     10  H   UNL     1       2.619   2.362  17.070  0.00  0.00    +0.000 HD
ENDBRANCH   3   9
ENDBRANCH   1   8
BRANCH   2  11
ATOM     11  C   UNL     1       5.044   4.160  17.213  0.00  0.00    +0.000 C 
BRANCH  11  12
ATOM     12  C   UNL     1       6.371   4.380  16.502  0.00  0.00    +0.000 C 
BRANCH  12  13
ATOM     13  N   UNL     1       7.090   5.456  17.177  0.00  0.00    +0.000 N 
ATOM     14  C   UNL     1       7.524   5.455  18.477  0.00  0.00    +0.000 A 
ATOM     15  C   UNL     1       7.997   6.723  18.723  0.00  0.00    +0.000 A 
ATOM     16  C   UNL     1       7.801   7.415  17.515  0.00  0.00    +0.000 A 
ATOM     17  N   UNL     1       7.244   6.650  16.572  0.00  0.00    +0.000 NA
ENDBRANCH  12  13
ENDBRANCH  11  12
ENDBRANCH   2  11
TORSDOF 5
ENDMDL
