MODEL 1
REMARK VINA RESULT:      -8.2      0.000      0.000
REMARK  Name = 
REMARK  6 active torsions:
REMARK  status: ('A' for Active; 'I' for Inactive)
REMARK    1  A    between atoms: C_1  and  O_2
REMARK    2  A    between atoms: O_2  and  C_3
REMARK    3  A    between atoms: C_6  and  C_7
REMARK    4  A    between atoms: C_11  and  N_12
REMARK    5  A    between atoms: N_15  and  C_16
REMARK    6  A    between atoms: C_19  and  C_20
REMARK                            x       y       z     vdW  Elec       q    Type
REMARK                         _______ _______ _______ _____ _____    ______ ____
ROOT
ATOM      1  C   UNL     1       3.066   5.401  18.541  0.00  0.00    +0.000 A 
ATOM      2  C   UNL     1       2.401   4.275  19.056  0.00  0.00    +0.000 A 
ATOM      3  C   UNL     1       1.567   4.380  20.168  0.00  0.00    +0.000 A 
ATOM      4  C   UNL     1       1.388   5.610  20.794  0.00  0.00    +0.000 A 
ATOM      5  C   UNL     1       2.036   6.751  20.318  0.00  0.00    +0.000 A 
ATOM      6  C   UNL     1       2.843   6.642  19.182  0.00  0.00    +0.000 A 
ENDROOT
BRANCH   1  10
ATOM      7  C   UNL     1       5.809   5.357  15.365  0.00  0.00    +0.000 A 
ATOM      8  C   UNL     1       5.336   4.133  15.786  0.00  0.00    +0.000 A 
ATOM      9  C   UNL     1       4.405   4.109  16.822  0.00  0.00    +0.000 A 
ATOM     10  C   UNL     1       3.986   5.309  17.393  0.00  0.00    +0.000 A 
ATOM     11  N   UNL     1       4.469   6.487  16.927  0.00  0.00    +0.000 NA
ATOM     12  N   UNL     1       5.384   6.517  15.909  0.00  0.00    +0.000 NA
BRANCH   7  14
ATOM     13  C   UNL     1       6.637   4.250  13.489  0.00  0.00    +0.000 C 
ATOM     14  O   UNL     1       6.767   5.360  14.374  0.00  0.00    +0.000 OA
ENDBRANCH   7  14
ENDBRANCH   1  10
BRANCH   5  15
ATOM     15  N   UNL     1       1.898   8.018  20.932  0.00  0.00    +0.000 N 
ATOM     16  C   UNL     1       0.686   8.654  21.139  0.00  0.00    +0.000 C 
ATOM     17  O   UNL     1      -0.410   8.132  20.970  0.00  0.00    +0.000 OA
ATOM     18  N   UNL     1       0.864   9.971  21.537  0.00  0.00    +0.000 N 
ATOM     19  H   UNL     1       2.661   8.335  21.511  0.00  0.00    +0.000 HD
ATOM     20  H   UNL     1       1.670  10.421  21.127  0.00  0.00    +0.000 HD
BRANCH  18  21
ATOM     21  C   UNL     1      -0.242  10.801  21.828  0.00  0.00    +0.000 A 
ATOM     22  C   UNL     1      -0.886  10.755  23.068  0.00  0.00    +0.000 A 
ATOM     23  C   UNL     1      -2.012  11.546  23.312  0.00  0.00    +0.000 A 
ATOM     24  C   UNL     1      -2.514  12.386  22.315  0.00  0.00    +0.000 A 
ATOM     25  C   UNL     1      -3.742  13.215  22.555  0.00  0.00    +0.000 C 
ATOM     26  C   UNL     1      -1.862  12.436  21.076  0.00  0.00    +0.000 A 
ATOM     27  C   UNL     1      -0.718  11.666  20.842  0.00  0.00    +0.000 A 
ENDBRANCH  18  21
ENDBRANCH   5  15
TORSDOF 4
ENDMDL
MODEL 2
REMARK VINA RESULT:      -8.1      0.998      1.145
REMARK  Name = 
REMARK  6 active torsions:
REMARK  status: ('A' for Active; 'I' for Inactive)
REMARK    1  A    between atoms: C_1  and  O_2
REMARK    2  A    between atoms: O_2  and  C_3
REMARK    3  A    between atoms: C_6  and  C_7
REMARK    4  A    between atoms: C_11  and  N_12
REMARK    5  A    between atoms: N_15  and  C_16
REMARK    6  A    between atoms: C_19  and  C_20
REMARK                            x       y       z     vdW  Elec       q    Type
REMARK                         _______ _______ _______ _____ _____    ______ ____
ROOT
ATOM      1  C   UNL     1       3.261   4.801  18.065  0.00  0.00    +0.000 A 
ATOM      2  C   UNL     1       2.364   3.719  18.093  0.00  0.00    +0.000 A 
ATOM      3  C   UNL     1       1.373   3.633  19.068  0.00  0.00    +0.000 A 
ATOM      4  C   UNL     1       1.262   4.621  20.043  0.00  0.00    +0.000 A 
ATOM      5  C   UNL     1       2.138   5.708  20.055  0.00  0.00    +0.000 A 
ATOM      6  C   UNL     1       3.107   5.804  19.051  0.00  0.00    +0.000 A 
ENDROOT
BRANCH   1  10
ATOM      7  C   UNL     1       6.432   5.284  15.359  0.00  0.00    +0.000 A 
ATOM      8  C   UNL     1       6.025   3.990  15.603  0.00  0.00    +0.000 A 
ATOM      9  C   UNL     1       4.958   3.792  16.477  0.00  0.00    +0.000 A 
ATOM     10  C   UNL     1       4.345   4.894  17.070  0.00  0.00    +0.000 A 
ATOM     11  N   UNL     1       4.774   6.146  16.779  0.00  0.00    +0.000 NA
ATOM     12  N   UNL     1       5.821   6.348  15.922  0.00  0.00    +0.000 NA
BRANCH   7  14
ATOM     13  C   UNL     1       7.351   4.825  13.267  0.00  0.00    +0.000 C 
ATOM     14  O   UNL     1       7.521   5.460  14.533  0.00  0.00    +0.000 OA
ENDBRANCH   7  14
ENDBRANCH   1  10
BRANCH   5  15
ATOM     15  N   UNL     1       2.075   6.727  21.034  0.00  0.00    +0.000 N 
ATOM     16  C   UNL     1       1.148   7.755  21.028  0.00  0.00    +0.000 C 
ATOM     17  O   UNL     1       0.180   7.813  20.279  0.00  0.00    +0.000 OA
ATOM     18  N   UNL     1       1.466   8.731  21.962  0.00  0.00    +0.000 N 
ATOM     19  H   UNL     1       2.510   6.537  21.925  0.00  0.00    +0.000 HD
ATOM     20  H   UNL     1       2.458   8.872  22.091  0.00  0.00    +0.000 HD
BRANCH  18  21
ATOM     21  C   UNL     1       0.639   9.863  22.144  0.00  0.00    +0.000 A 
ATOM     22  C   UNL     1      -0.410   9.862  23.067  0.00  0.00    +0.000 A 
ATOM     23  C   UNL     1      -1.248  10.973  23.189  0.00  0.00    +0.000 A 
ATOM     24  C   UNL     1      -1.053  12.097  22.381  0.00  0.00    +0.000 A 
ATOM     25  C   UNL     1      -1.966  13.283  22.481  0.00  0.00    +0.000 C 
ATOM     26  C   UNL     1       0.005  12.098  21.463  0.00  0.00    +0.000 A 
ATOM     27  C   UNL     1       0.861  10.997  21.362  0.00  0.00    +0.000 A 
ENDBRANCH  18  21
ENDBRANCH   5  15
TORSDOF 4
ENDMDL
MODEL 3
REMARK VINA RESULT:      -8.1      6.021      8.373
REMARK  Name = 
REMARK  6 active torsions:
REMARK  status: ('A' for Active; 'I' for Inactive)
REMARK    1  A    between atoms: C_1  and  O_2
REMARK    2  A    between atoms: O_2  and  C_3
REMARK    3  A    between atoms: C_6  and  C_7
REMARK    4  A    between atoms: C_11  and  N_12
REMARK    5  A    between atoms: N_15  and  C_16
REMARK    6  A    between atoms: C_19  and  C_20
REMARK                            x       y       z     vdW  Elec       q    Type
REMARK                         _______ _______ _______ _____ _____    ______ ____
ROOT
ATOM      1  C   UNL     1       5.271   4.817  17.488  0.00  0.00    +0.000 A 
ATOM      2  C   UNL     1       5.514   4.674  16.111  0.00  0.00    +0.000 A 
ATOM      3  C   UNL     1       6.593   5.313  15.503  0.00  0.00    +0.000 A 
ATOM      4  C   UNL     1       7.446   6.116  16.256  0.00  0.00    +0.000 A 
ATOM      5  C   UNL     1       7.234   6.289  17.625  0.00  0.00    +0.000 A 
ATOM      6  C   UNL     1       6.169   5.616  18.232  0.00  0.00    +0.000 A 
ENDROOT
BRANCH   1  10
ATOM      7  C   UNL     1       2.038   3.155  19.586  0.00  0.00    +0.000 A 
ATOM      8  C   UNL     1       1.861   3.341  18.231  0.00  0.00    +0.000 A 
ATOM      9  C   UNL     1       2.922   3.867  17.497  0.00  0.00    +0.000 A 
ATOM     10  C   UNL     1       4.112   4.186  18.147  0.00  0.00    +0.000 A 
ATOM     11  N   UNL     1       4.238   3.965  19.478  0.00  0.00    +0.000 NA
ATOM     12  N   UNL     1       3.200   3.448  20.205  0.00  0.00    +0.000 NA
BRANCH   7  14
ATOM     13  C   UNL     1       1.237   2.599  21.703  0.00  0.00    +0.000 C 
ATOM     14  O   UNL     1       0.962   2.682  20.306  0.00  0.00    +0.000 OA
ENDBRANCH   7  14
ENDBRANCH   1  10
BRANCH   5  15
ATOM     15  N   UNL     1       8.063   7.108  18.427  0.00  0.00    +0.000 N 
ATOM     16  C   UNL     1       8.146   8.484  18.308  0.00  0.00    +0.000 C 
ATOM     17  O   UNL     1       7.399   9.168  17.617  0.00  0.00    +0.000 OA
ATOM     18  N   UNL     1       9.201   8.996  19.049  0.00  0.00    +0.000 N 
ATOM     19  H   UNL     1       8.371   6.727  19.309  0.00  0.00    +0.000 HD
ATOM     20  H   UNL     1      10.007   8.388  19.095  0.00  0.00    +0.000 HD
BRANCH  18  21
ATOM     21  C   UNL     1       9.456  10.386  19.092  0.00  0.00    +0.000 A 
ATOM     22  C   UNL     1       9.886  11.087  17.963  0.00  0.00    +0.000 A 
ATOM     23  C   UNL     1      10.184  12.450  18.046  0.00  0.00    +0.000 A 
ATOM     24  C   UNL     1      10.065  13.126  19.262  0.00  0.00    +0.000 A 
ATOM     25  C   UNL     1      10.413  14.581  19.369  0.00  0.00    +0.000 C 
ATOM     26  C   UNL     1       9.625  12.422  20.390  0.00  0.00    +0.000 A 
ATOM     27  C   UNL     1       9.299  11.065  20.301  0.00  0.00    +0.000 A 
ENDBRANCH  18  21
ENDBRANCH   5  15
TORSDOF 4
ENDMDL
MODEL 4
REMARK VINA RESULT:      -7.9      6.072      8.371
REMARK  Name = 
REMARK  6 active torsions:
REMARK  status: ('A' for Active; 'I' for Inactive)
REMARK    1  A    between atoms: C_1  and  O_2
REMARK    2  A    between atoms: O_2  and  C_3
REMARK    3  A    between atoms: C_6  and  C_7
REMARK    4  A    between atoms: C_11  and  N_12
REMARK    5  A    between atoms: N_15  and  C_16
REMARK    6  A    between atoms: C_19  and  C_20
REMARK                            x       y       z     vdW  Elec       q    Type
REMARK                         _______ _______ _______ _____ _____    ______ ____
ROOT
ATOM      1  C   UNL     1       5.519   4.789  17.696  0.00  0.00    +0.000 A 
ATOM      2  C   UNL     1       5.746   4.678  16.313  0.00  0.00    +0.000 A 
ATOM      3  C   UNL     1       6.763   5.402  15.693  0.00  0.00    +0.000 A 
ATOM      4  C   UNL     1       7.567   6.259  16.439  0.00  0.00    +0.000 A 
ATOM      5  C   UNL     1       7.369   6.403  17.813  0.00  0.00    +0.000 A 
ATOM      6  C   UNL     1       6.369   5.646  18.432  0.00  0.00    +0.000 A 
ENDROOT
BRANCH   1  10
ATOM      7  C   UNL     1       2.552   2.726  19.831  0.00  0.00    +0.000 A 
ATOM      8  C   UNL     1       2.114   3.600  18.859  0.00  0.00    +0.000 A 
ATOM      9  C   UNL     1       3.071   4.285  18.112  0.00  0.00    +0.000 A 
ATOM     10  C   UNL     1       4.423   4.067  18.369  0.00  0.00    +0.000 A 
ATOM     11  N   UNL     1       4.798   3.182  19.324  0.00  0.00    +0.000 NA
ATOM     12  N   UNL     1       3.864   2.506  20.060  0.00  0.00    +0.000 NA
BRANCH   7  14
ATOM     13  C   UNL     1       1.339   2.779  21.820  0.00  0.00    +0.000 C 
ATOM     14  O   UNL     1       1.593   2.096  20.595  0.00  0.00    +0.000 OA
ENDBRANCH   7  14
ENDBRANCH   1  10
BRANCH   5  15
ATOM     15  N   UNL     1       8.150   7.274  18.609  0.00  0.00    +0.000 N 
ATOM     16  C   UNL     1       8.254   8.637  18.398  0.00  0.00    +0.000 C 
ATOM     17  O   UNL     1       7.562   9.273  17.610  0.00  0.00    +0.000 OA
ATOM     18  N   UNL     1       9.262   9.197  19.170  0.00  0.00    +0.000 N 
ATOM     19  H   UNL     1       8.394   6.956  19.536  0.00  0.00    +0.000 HD
ATOM     20  H   UNL     1      10.056   8.590  19.314  0.00  0.00    +0.000 HD
BRANCH  18  21
ATOM     21  C   UNL     1       9.526  10.584  19.131  0.00  0.00    +0.000 A 
ATOM     22  C   UNL     1       9.225  11.418  20.212  0.00  0.00    +0.000 A 
ATOM     23  C   UNL     1       9.445  12.795  20.127  0.00  0.00    +0.000 A 
ATOM     24  C   UNL     1       9.960  13.358  18.956  0.00  0.00    +0.000 A 
ATOM     25  C   UNL     1      10.169  14.839  18.843  0.00  0.00    +0.000 C 
ATOM     26  C   UNL     1      10.268  12.519  17.878  0.00  0.00    +0.000 A 
ATOM     27  C   UNL     1      10.075  11.136  17.973  0.00  0.00    +0.000 A 
ENDBRANCH  18  21
ENDBRANCH   5  15
TORSDOF 4
ENDMDL
MODEL 5
REMARK VINA RESULT:      -7.7      3.201      8.676
REMARK  Name = 
REMARK  6 active torsions:
REMARK  status: ('A' for Active; 'I' for Inactive)
REMARK    1  A    between atoms: C_1  and  O_2
REMARK    2  A    between atoms: O_2  and  C_3
REMARK    3  A    between atoms: C_6  and  C_7
REMARK    4  A    between atoms: C_11  and  N_12
REMARK    5  A    between atoms: N_15  and  C_16
REMARK    6  A    between atoms: C_19  and  C_20
REMARK                            x       y       z     vdW  Elec       q    Type
REMARK                         _______ _______ _______ _____ _____    ______ ____
ROOT
ATOM      1  C   UNL     1      -0.748  10.280  19.836  0.00  0.00    +0.000 A 
ATOM      2  C   UNL     1      -0.795  11.080  20.991  0.00  0.00    +0.000 A 
ATOM      3  C   UNL     1      -0.027  10.768  22.111  0.00  0.00    +0.000 A 
ATOM      4  C   UNL     1       0.796   9.645  22.105  0.00  0.00    +0.000 A 
ATOM      5  C   UNL     1       0.865   8.821  20.980  0.00  0.00    +0.000 A 
ATOM      6  C   UNL     1       0.118   9.162  19.848  0.00  0.00    +0.000 A 
ENDROOT
BRANCH   1  10
ATOM      7  C   UNL     1      -3.092  10.833  16.398  0.00  0.00    +0.000 A 
ATOM      8  C   UNL     1      -3.412  11.609  17.492  0.00  0.00    +0.000 A 
ATOM      9  C   UNL     1      -2.640  11.471  18.643  0.00  0.00    +0.000 A 
ATOM     10  C   UNL     1      -1.583  10.564  18.653  0.00  0.00    +0.000 A 
ATOM     11  N   UNL     1      -1.300   9.840  17.543  0.00  0.00    +0.000 NA
ATOM     12  N   UNL     1      -2.054   9.971  16.408  0.00  0.00    +0.000 NA
BRANCH   7  14
ATOM     13  C   UNL     1      -3.454  10.120  14.209  0.00  0.00    +0.000 C 
ATOM     14  O   UNL     1      -3.897  10.945  15.285  0.00  0.00    +0.000 OA
ENDBRANCH   7  14
ENDBRANCH   1  10
BRANCH   5  15
ATOM     15  N   UNL     1       1.674   7.661  20.933  0.00  0.00    +0.000 N 
ATOM     16  C   UNL     1       2.384   7.253  19.817  0.00  0.00    +0.000 C 
ATOM     17  O   UNL     1       2.530   7.924  18.802  0.00  0.00    +0.000 OA
ATOM     18  N   UNL     1       2.891   5.972  19.978  0.00  0.00    +0.000 N 
ATOM     19  H   UNL     1       1.992   7.286  21.814  0.00  0.00    +0.000 HD
ATOM     20  H   UNL     1       2.300   5.359  20.521  0.00  0.00    +0.000 HD
BRANCH  18  21
ATOM     21  C   UNL     1       3.673   5.364  18.969  0.00  0.00    +0.000 A 
ATOM     22  C   UNL     1       5.061   5.519  18.926  0.00  0.00    +0.000 A 
ATOM     23  C   UNL     1       5.805   4.954  17.886  0.00  0.00    +0.000 A 
ATOM     24  C   UNL     1       5.168   4.235  16.871  0.00  0.00    +0.000 A 
ATOM     25  C   UNL     1       5.953   3.653  15.734  0.00  0.00    +0.000 C 
ATOM     26  C   UNL     1       3.777   4.075  16.923  0.00  0.00    +0.000 A 
ATOM     27  C   UNL     1       3.036   4.616  17.979  0.00  0.00    +0.000 A 
ENDBRANCH  18  21
ENDBRANCH   5  15
TORSDOF 4
ENDMDL
MODEL 6
REMARK VINA RESULT:      -7.6      5.854      8.186
REMARK  Name = 
REMARK  6 active torsions:
REMARK  status: ('A' for Active; 'I' for Inactive)
REMARK    1  A    between atoms: C_1  and  O_2
REMARK    2  A    between atoms: O_2  and  C_3
REMARK    3  A    between atoms: C_6  and  C_7
REMARK    4  A    between atoms: C_11  and  N_12
REMARK    5  A    between atoms: N_15  and  C_16
REMARK    6  A    between atoms: C_19  and  C_20
REMARK                            x       y       z     vdW  Elec       q    Type
REMARK                         _______ _______ _______ _____ _____    ______ ____
ROOT
ATOM      1  C   UNL     1       5.217   4.743  16.925  0.00  0.00    +0.000 A 
ATOM      2  C   UNL     1       5.683   4.529  15.617  0.00  0.00    +0.000 A 
ATOM      3  C   UNL     1       6.887   5.081  15.184  0.00  0.00    +0.000 A 
ATOM      4  C   UNL     1       7.646   5.867  16.047  0.00  0.00    +0.000 A 
ATOM      5  C   UNL     1       7.214   6.110  17.352  0.00  0.00    +0.000 A 
ATOM      6  C   UNL     1       6.022   5.522  17.788  0.00  0.00    +0.000 A 
ENDROOT
BRANCH   1  10
ATOM      7  C   UNL     1       1.679   3.017  18.382  0.00  0.00    +0.000 A 
ATOM      8  C   UNL     1       1.672   4.385  18.214  0.00  0.00    +0.000 A 
ATOM      9  C   UNL     1       2.820   4.991  17.708  0.00  0.00    +0.000 A 
ATOM     10  C   UNL     1       3.926   4.205  17.393  0.00  0.00    +0.000 A 
ATOM     11  N   UNL     1       3.873   2.861  17.561  0.00  0.00    +0.000 NA
ATOM     12  N   UNL     1       2.747   2.260  18.057  0.00  0.00    +0.000 NA
BRANCH   7  14
ATOM     13  C   UNL     1       0.424   2.720  20.323  0.00  0.00    +0.000 C 
ATOM     14  O   UNL     1       0.554   2.440  18.931  0.00  0.00    +0.000 OA
ENDBRANCH   7  14
ENDBRANCH   1  10
BRANCH   5  15
ATOM     15  N   UNL     1       7.943   6.915  18.260  0.00  0.00    +0.000 N 
ATOM     16  C   UNL     1       8.062   8.290  18.157  0.00  0.00    +0.000 C 
ATOM     17  O   UNL     1       7.423   8.986  17.376  0.00  0.00    +0.000 OA
ATOM     18  N   UNL     1       9.018   8.784  19.032  0.00  0.00    +0.000 N 
ATOM     19  H   UNL     1       8.126   6.528  19.174  0.00  0.00    +0.000 HD
ATOM     20  H   UNL     1       9.801   8.164  19.182  0.00  0.00    +0.000 HD
BRANCH  18  21
ATOM     21  C   UNL     1       9.286  10.169  19.113  0.00  0.00    +0.000 A 
ATOM     22  C   UNL     1       9.243  10.854  20.331  0.00  0.00    +0.000 A 
ATOM     23  C   UNL     1       9.457  12.234  20.376  0.00  0.00    +0.000 A 
ATOM     24  C   UNL     1       9.708  12.949  19.202  0.00  0.00    +0.000 A 
ATOM     25  C   UNL     1       9.907  14.435  19.236  0.00  0.00    +0.000 C 
ATOM     26  C   UNL     1       9.758  12.259  17.984  0.00  0.00    +0.000 A 
ATOM     27  C   UNL     1       9.573  10.873  17.943  0.00  0.00    +0.000 A 
ENDBRANCH  18  21
ENDBRANCH   5  15
TORSDOF 4
ENDMDL
MODEL 7
REMARK VINA RESULT:      -7.6      3.695      9.915
REMARK  Name = 
REMARK  6 active torsions:
REMARK  status: ('A' for Active; 'I' for Inactive)
REMARK    1  A    between atoms: C_1  and  O_2
REMARK    2  A    between atoms: O_2  and  C_3
REMARK    3  A    between atoms: C_6  and  C_7
REMARK    4  A    between atoms: C_11  and  N_12
REMARK    5  A    between atoms: N_15  and  C_16
REMARK    6  A    between atoms: C_19  and  C_20
REMARK                            x       y       z     vdW  Elec       q    Type
REMARK                         _______ _______ _______ _____ _____    ______ ____
ROOT
ATOM      1  C   UNL     1      -1.350  11.668  18.418  0.00  0.00    +0.000 A 
ATOM      2  C   UNL     1      -0.649  12.886  18.437  0.00  0.00    +0.000 A 
ATOM      3  C   UNL     1       0.720  12.922  18.699  0.00  0.00    +0.000 A 
ATOM      4  C   UNL     1       1.414  11.744  18.957  0.00  0.00    +0.000 A 
ATOM      5  C   UNL     1       0.752  10.514  18.954  0.00  0.00    +0.000 A 
ATOM      6  C   UNL     1      -0.613  10.485  18.656  0.00  0.00    +0.000 A 
ENDROOT
BRANCH   1  10
ATOM      7  C   UNL     1      -5.516  11.715  17.908  0.00  0.00    +0.000 A 
ATOM      8  C   UNL     1      -4.774  11.203  16.865  0.00  0.00    +0.000 A 
ATOM      9  C   UNL     1      -3.390  11.148  17.008  0.00  0.00    +0.000 A 
ATOM     10  C   UNL     1      -2.805  11.607  18.186  0.00  0.00    +0.000 A 
ATOM     11  N   UNL     1      -3.584  12.083  19.189  0.00  0.00    +0.000 NA
ATOM     12  N   UNL     1      -4.944  12.140  19.054  0.00  0.00    +0.000 NA
BRANCH   7  14
ATOM     13  C   UNL     1      -7.563  12.143  18.936  0.00  0.00    +0.000 C 
ATOM     14  O   UNL     1      -6.879  11.809  17.730  0.00  0.00    +0.000 OA
ENDBRANCH   7  14
ENDBRANCH   1  10
BRANCH   5  15
ATOM     15  N   UNL     1       1.413   9.293  19.226  0.00  0.00    +0.000 N 
ATOM     16  C   UNL     1       2.128   8.569  18.288  0.00  0.00    +0.000 C 
ATOM     17  O   UNL     1       2.411   8.974  17.167  0.00  0.00    +0.000 OA
ATOM     18  N   UNL     1       2.462   7.309  18.764  0.00  0.00    +0.000 N 
ATOM     19  H   UNL     1       1.633   9.093  20.191  0.00  0.00    +0.000 HD
ATOM     20  H   UNL     1       1.770   6.902  19.377  0.00  0.00    +0.000 HD
BRANCH  18  21
ATOM     21  C   UNL     1       3.217   6.409  17.978  0.00  0.00    +0.000 A 
ATOM     22  C   UNL     1       2.861   5.063  17.863  0.00  0.00    +0.000 A 
ATOM     23  C   UNL     1       3.655   4.181  17.124  0.00  0.00    +0.000 A 
ATOM     24  C   UNL     1       4.820   4.633  16.500  0.00  0.00    +0.000 A 
ATOM     25  C   UNL     1       5.697   3.688  15.732  0.00  0.00    +0.000 C 
ATOM     26  C   UNL     1       5.169   5.985  16.611  0.00  0.00    +0.000 A 
ATOM     27  C   UNL     1       4.359   6.874  17.325  0.00  0.00    +0.000 A 
ENDBRANCH  18  21
ENDBRANCH   5  15
TORSDOF 4
ENDMDL
MODEL 8
REMARK VINA RESULT:      -7.5      1.576      2.416
REMARK  Name = 
REMARK  6 active torsions:
REMARK  status: ('A' for Active; 'I' for Inactive)
REMARK    1  A    between atoms: C_1  and  O_2
REMARK    2  A    between atoms: O_2  and  C_3
REMARK    3  A    between atoms: C_6  and  C_7
REMARK    4  A    between atoms: C_11  and  N_12
REMARK    5  A    between atoms: N_15  and  C_16
REMARK    6  A    between atoms: C_19  and  C_20
REMARK                            x       y       z     vdW  Elec       q    Type
REMARK                         _______ _______ _______ _____ _____    ______ ____
ROOT
ATOM      1  C   UNL     1       4.460   4.032  17.664  0.00  0.00    +0.000 A 
ATOM      2  C   UNL     1       4.091   2.690  17.857  0.00  0.00    +0.000 A 
ATOM      3  C   UNL     1       3.281   2.314  18.926  0.00  0.00    +0.000 A 
ATOM      4  C   UNL     1       2.830   3.270  19.832  0.00  0.00    +0.000 A 
ATOM      5  C   UNL     1       3.179   4.613  19.680  0.00  0.00    +0.000 A 
ATOM      6  C   UNL     1       3.963   4.985  18.584  0.00  0.00    +0.000 A 
ENDROOT
BRANCH   1  10
ATOM      7  C   UNL     1       7.191   5.244  14.717  0.00  0.00    +0.000 A 
ATOM      8  C   UNL     1       6.201   4.372  14.316  0.00  0.00    +0.000 A 
ATOM      9  C   UNL     1       5.261   3.967  15.262  0.00  0.00    +0.000 A 
ATOM     10  C   UNL     1       5.350   4.450  16.566  0.00  0.00    +0.000 A 
ATOM     11  N   UNL     1       6.333   5.321  16.900  0.00  0.00    +0.000 NA
ATOM     12  N   UNL     1       7.260   5.723  15.977  0.00  0.00    +0.000 NA
BRANCH   7  14
ATOM     13  C   UNL     1       7.800   5.160  12.469  0.00  0.00    +0.000 C 
ATOM     14  O   UNL     1       8.142   5.594  13.783  0.00  0.00    +0.000 OA
ENDBRANCH   7  14
ENDBRANCH   1  10
BRANCH   5  15
ATOM     15  N   UNL     1       2.758   5.617  20.584  0.00  0.00    +0.000 N 
ATOM     16  C   UNL     1       1.941   6.679  20.240  0.00  0.00    +0.000 C 
ATOM     17  O   UNL     1       1.356   6.788  19.169  0.00  0.00    +0.000 OA
ATOM     18  N   UNL     1       1.886   7.627  21.253  0.00  0.00    +0.000 N 
ATOM     19  H   UNL     1       2.796   5.395  21.568  0.00  0.00    +0.000 HD
ATOM     20  H   UNL     1       2.747   7.727  21.772  0.00  0.00    +0.000 HD
BRANCH  18  21
ATOM     21  C   UNL     1       1.088   8.786  21.124  0.00  0.00    +0.000 A 
ATOM     22  C   UNL     1       0.301   9.254  22.180  0.00  0.00    +0.000 A 
ATOM     23  C   UNL     1      -0.522  10.371  22.010  0.00  0.00    +0.000 A 
ATOM     24  C   UNL     1      -0.575  11.028  20.778  0.00  0.00    +0.000 A 
ATOM     25  C   UNL     1      -1.480  12.207  20.576  0.00  0.00    +0.000 C 
ATOM     26  C   UNL     1       0.221  10.561  19.725  0.00  0.00    +0.000 A 
ATOM     27  C   UNL     1       1.067   9.462  19.904  0.00  0.00    +0.000 A 
ENDBRANCH  18  21
ENDBRANCH   5  15
TORSDOF 4
ENDMDL
MODEL 9
REMARK VINA RESULT:      -7.4      1.572      2.218
REMARK  Name = 
REMARK  6 active torsions:
REMARK  status: ('A' for Active; 'I' for Inactive)
REMARK    1  A    between atoms: C_1  and  O_2
REMARK    2  A    between atoms: O_2  and  C_3
REMARK    3  A    between atoms: C_6  and  C_7
REMARK    4  A    between atoms: C_11  and  N_12
REMARK    5  A    between atoms: N_15  and  C_16
REMARK    6  A    between atoms: C_19  and  C_20
REMARK                            x       y       z     vdW  Elec       q    Type
REMARK                         _______ _______ _______ _____ _____    ______ ____
ROOT
ATOM      1  C   UNL     1       3.254   5.334  18.521  0.00  0.00    +0.000 A 
ATOM      2  C   UNL     1       2.587   4.183  18.974  0.00  0.00    +0.000 A 
ATOM      3  C   UNL     1       1.621   4.260  19.976  0.00  0.00    +0.000 A 
ATOM      4  C   UNL     1       1.308   5.488  20.553  0.00  0.00    +0.000 A 
ATOM      5  C   UNL     1       1.954   6.654  20.136  0.00  0.00    +0.000 A 
ATOM      6  C   UNL     1       2.896   6.571  19.106  0.00  0.00    +0.000 A 
ENDROOT
BRANCH   1  10
ATOM      7  C   UNL     1       6.375   5.369  15.716  0.00  0.00    +0.000 A 
ATOM      8  C   UNL     1       5.816   4.141  15.998  0.00  0.00    +0.000 A 
ATOM      9  C   UNL     1       4.761   4.093  16.906  0.00  0.00    +0.000 A 
ATOM     10  C   UNL     1       4.309   5.273  17.493  0.00  0.00    +0.000 A 
ATOM     11  N   UNL     1       4.883   6.457  17.165  0.00  0.00    +0.000 NA
ATOM     12  N   UNL     1       5.920   6.510  16.273  0.00  0.00    +0.000 NA
BRANCH   7  14
ATOM     13  C   UNL     1       7.153   4.793  13.595  0.00  0.00    +0.000 C 
ATOM     14  O   UNL     1       7.451   5.392  14.854  0.00  0.00    +0.000 OA
ENDBRANCH   7  14
ENDBRANCH   1  10
BRANCH   5  15
ATOM     15  N   UNL     1       1.681   7.921  20.704  0.00  0.00    +0.000 N 
ATOM     16  C   UNL     1       1.257   9.022  19.982  0.00  0.00    +0.000 C 
ATOM     17  O   UNL     1       0.911   8.991  18.807  0.00  0.00    +0.000 OA
ATOM     18  N   UNL     1       1.298  10.179  20.747  0.00  0.00    +0.000 N 
ATOM     19  H   UNL     1       1.492   7.950  21.696  0.00  0.00    +0.000 HD
ATOM     20  H   UNL     1       2.054  10.205  21.416  0.00  0.00    +0.000 HD
BRANCH  18  21
ATOM     21  C   UNL     1       0.883  11.421  20.215  0.00  0.00    +0.000 A 
ATOM     22  C   UNL     1       1.764  12.248  19.514  0.00  0.00    +0.000 A 
ATOM     23  C   UNL     1       1.343  13.496  19.046  0.00  0.00    +0.000 A 
ATOM     24  C   UNL     1       0.038  13.936  19.282  0.00  0.00    +0.000 A 
ATOM     25  C   UNL     1      -0.413  15.287  18.812  0.00  0.00    +0.000 C 
ATOM     26  C   UNL     1      -0.845  13.101  19.978  0.00  0.00    +0.000 A 
ATOM     27  C   UNL     1      -0.432  11.839  20.421  0.00  0.00    +0.000 A 
ENDBRANCH  18  21
ENDBRANCH   5  15
TORSDOF 4
ENDMDL
