MODEL 1
REMARK VINA RESULT:      -8.4      0.000      0.000
REMARK  Name = 
REMARK  3 active torsions:
REMARK  status: ('A' for Active; 'I' for Inactive)
REMARK    1  A    between atoms: C_2  and  C_3
REMARK    2  A    between atoms: C_20  and  O_21
REMARK    3  A    between atoms: O_21  and  C_22
REMARK                            x       y       z     vdW  Elec       q    Type
REMARK                         _______ _______ _______ _____ _____    ______ ____
ROOT
ATOM      1  C   UNL     1       4.296   5.926  18.263  0.00  0.00    +0.000 A 
ATOM      2  N   UNL     1       4.558   6.795  17.252  0.00  0.00    +0.000 NA
ATOM      3  C   UNL     1       3.735   7.869  17.181  0.00  0.00    +0.000 A 
ATOM      4  C   UNL     1       2.655   8.088  18.046  0.00  0.00    +0.000 A 
ATOM      5  N   UNL     1       1.921   9.278  17.969  0.00  0.00    +0.000 N 
ATOM      6  C   UNL     1       0.989   9.833  18.850  0.00  0.00    +0.000 A 
ATOM      7  C   UNL     1       0.837   9.400  20.161  0.00  0.00    +0.000 A 
ATOM      8  C   UNL     1      -0.018  10.054  21.049  0.00  0.00    +0.000 A 
ATOM      9  C   UNL     1      -0.129   9.612  22.377  0.00  0.00    +0.000 A 
ATOM     10  C   UNL     1      -0.914  10.306  23.293  0.00  0.00    +0.000 A 
ATOM     11  C   UNL     1      -1.610  11.438  22.882  0.00  0.00    +0.000 A 
ATOM     12  C   UNL     1      -1.537  11.865  21.551  0.00  0.00    +0.000 A 
ATOM     13 CL   UNL     1      -2.430  13.282  21.119  0.00  0.00    +0.000 Cl
ATOM     14  C   UNL     1      -0.734  11.175  20.608  0.00  0.00    +0.000 A 
ATOM     15  C   UNL     1      -0.557  11.514  19.256  0.00  0.00    +0.000 A 
ATOM     16  N   UNL     1       0.278  10.878  18.386  0.00  0.00    +0.000 NA
ATOM     17  N   UNL     1       2.414   7.195  19.027  0.00  0.00    +0.000 NA
ATOM     18  C   UNL     1       3.255   6.130  19.155  0.00  0.00    +0.000 A 
ATOM     19  H   UNL     1       1.820   9.700  17.055  0.00  0.00    +0.000 HD
ENDROOT
BRANCH   1  21
ATOM     20  N   UNL     1       5.935   3.924  18.530  0.00  0.00    +0.000 NA
ATOM     21  C   UNL     1       5.200   4.817  18.406  0.00  0.00    +0.000 C 
ENDBRANCH   1  21
BRANCH  18  22
ATOM     22  O   UNL     1       3.059   5.278  20.219  0.00  0.00    +0.000 OA
BRANCH  22  23
ATOM     23  C   UNL     1       1.735   4.707  20.298  0.00  0.00    +0.000 C 
ATOM     24  C   UNL     1       1.641   3.614  21.369  0.00  0.00    +0.000 C 
ATOM     25  C   UNL     1       2.677   2.536  21.086  0.00  0.00    +0.000 C 
ATOM     26  C   UNL     1       2.573   1.976  19.666  0.00  0.00    +0.000 C 
ATOM     27  N   UNL     1       2.265   2.913  18.585  0.00  0.00    +0.000 NA
ATOM     28  C   UNL     1       1.403   4.042  18.949  0.00  0.00    +0.000 C 
ATOM     29  H   UNL     1       3.129   3.269  18.180  0.00  0.00    +0.000 HD
ENDBRANCH  22  23
ENDBRANCH  18  22
TORSDOF 3
ENDMDL
MODEL 2
REMARK VINA RESULT:      -8.2      0.966      1.337
REMARK  Name = 
REMARK  3 active torsions:
REMARK  status: ('A' for Active; 'I' for Inactive)
REMARK    1  A    between atoms: C_2  and  C_3
REMARK    2  A    between atoms: C_20  and  O_21
REMARK    3  A    between atoms: O_21  and  C_22
REMARK                            x       y       z     vdW  Elec       q    Type
REMARK                         _______ _______ _______ _____ _____    ______ ____
ROOT
ATOM      1  C   UNL     1       4.641   5.692  17.823  0.00  0.00    +0.000 A 
ATOM      2  N   UNL     1       4.841   6.634  16.865  0.00  0.00    +0.000 NA
ATOM      3  C   UNL     1       3.995   7.692  16.906  0.00  0.00    +0.000 A 
ATOM      4  C   UNL     1       2.951   7.827  17.831  0.00  0.00    +0.000 A 
ATOM      5  N   UNL     1       2.193   9.003  17.871  0.00  0.00    +0.000 N 
ATOM      6  C   UNL     1       1.292   9.475  18.829  0.00  0.00    +0.000 A 
ATOM      7  C   UNL     1       1.207   8.948  20.111  0.00  0.00    +0.000 A 
ATOM      8  C   UNL     1       0.381   9.520  21.080  0.00  0.00    +0.000 A 
ATOM      9  C   UNL     1       0.339   8.984  22.377  0.00  0.00    +0.000 A 
ATOM     10  C   UNL     1      -0.417   9.596  23.373  0.00  0.00    +0.000 A 
ATOM     11  C   UNL     1      -1.152  10.738  23.075  0.00  0.00    +0.000 A 
ATOM     12  C   UNL     1      -1.147  11.258  21.774  0.00  0.00    +0.000 A 
ATOM     13 CL   UNL     1      -2.085  12.682  21.484  0.00  0.00    +0.000 Cl
ATOM     14  C   UNL     1      -0.375  10.653  20.751  0.00  0.00    +0.000 A 
ATOM     15  C   UNL     1      -0.266  11.089  19.420  0.00  0.00    +0.000 A 
ATOM     16  N   UNL     1       0.541  10.534  18.471  0.00  0.00    +0.000 NA
ATOM     17  N   UNL     1       2.773   6.863  18.757  0.00  0.00    +0.000 NA
ATOM     18  C   UNL     1       3.638   5.810  18.772  0.00  0.00    +0.000 A 
ATOM     19  H   UNL     1       2.043   9.486  16.994  0.00  0.00    +0.000 HD
ENDROOT
BRANCH   1  21
ATOM     20  N   UNL     1       6.332   3.715  17.867  0.00  0.00    +0.000 NA
ATOM     21  C   UNL     1       5.572   4.595  17.847  0.00  0.00    +0.000 C 
ENDBRANCH   1  21
BRANCH  18  22
ATOM     22  O   UNL     1       3.507   4.882  19.780  0.00  0.00    +0.000 OA
BRANCH  22  23
ATOM     23  C   UNL     1       3.153   3.555  19.335  0.00  0.00    +0.000 C 
ATOM     24  C   UNL     1       1.639   3.394  19.147  0.00  0.00    +0.000 C 
ATOM     25  C   UNL     1       0.928   3.735  20.448  0.00  0.00    +0.000 C 
ATOM     26  C   UNL     1       1.458   2.933  21.639  0.00  0.00    +0.000 C 
ATOM     27  N   UNL     1       2.899   2.687  21.706  0.00  0.00    +0.000 NA
ATOM     28  C   UNL     1       3.580   2.542  20.414  0.00  0.00    +0.000 C 
ATOM     29  H   UNL     1       3.352   3.426  22.241  0.00  0.00    +0.000 HD
ENDBRANCH  22  23
ENDBRANCH  18  22
TORSDOF 3
ENDMDL
MODEL 3
REMARK VINA RESULT:      -8.0      2.069      4.182
REMARK  Name = 
REMARK  3 active torsions:
REMARK  status: ('A' for Active; 'I' for Inactive)
REMARK    1  A    between atoms: C_2  and  C_3
REMARK    2  A    between atoms: C_20  and  O_21
REMARK    3  A    between atoms: O_21  and  C_22
REMARK                            x       y       z     vdW  Elec       q    Type
REMARK                         _______ _______ _______ _____ _____    ______ ____
ROOT
ATOM      1  C   UNL     1       2.849   3.421  19.235  0.00  0.00    +0.000 A 
ATOM      2  N   UNL     1       2.008   3.150  20.267  0.00  0.00    +0.000 NA
ATOM      3  C   UNL     1       1.527   4.234  20.923  0.00  0.00    +0.000 A 
ATOM      4  C   UNL     1       1.874   5.556  20.616  0.00  0.00    +0.000 A 
ATOM      5  N   UNL     1       1.248   6.620  21.275  0.00  0.00    +0.000 N 
ATOM      6  C   UNL     1       1.232   7.988  20.988  0.00  0.00    +0.000 A 
ATOM      7  C   UNL     1       1.634   8.508  19.765  0.00  0.00    +0.000 A 
ATOM      8  C   UNL     1       1.493   9.865  19.470  0.00  0.00    +0.000 A 
ATOM      9  C   UNL     1       1.881  10.358  18.213  0.00  0.00    +0.000 A 
ATOM     10  C   UNL     1       1.668  11.691  17.878  0.00  0.00    +0.000 A 
ATOM     11  C   UNL     1       1.083  12.548  18.804  0.00  0.00    +0.000 A 
ATOM     12  C   UNL     1       0.728  12.075  20.073  0.00  0.00    +0.000 A 
ATOM     13 CL   UNL     1       0.004  13.202  21.167  0.00  0.00    +0.000 Cl
ATOM     14  C   UNL     1       0.929  10.718  20.428  0.00  0.00    +0.000 A 
ATOM     15  C   UNL     1       0.595  10.117  21.653  0.00  0.00    +0.000 A 
ATOM     16  N   UNL     1       0.730   8.792  21.945  0.00  0.00    +0.000 NA
ATOM     17  N   UNL     1       2.726   5.785  19.596  0.00  0.00    +0.000 NA
ATOM     18  C   UNL     1       3.189   4.719  18.885  0.00  0.00    +0.000 A 
ATOM     19  H   UNL     1       0.973   6.470  22.238  0.00  0.00    +0.000 HD
ENDROOT
BRANCH   1  21
ATOM     20  N   UNL     1       3.702   1.384  17.861  0.00  0.00    +0.000 NA
ATOM     21  C   UNL     1       3.316   2.293  18.474  0.00  0.00    +0.000 C 
ENDBRANCH   1  21
BRANCH  18  22
ATOM     22  O   UNL     1       3.979   4.970  17.786  0.00  0.00    +0.000 OA
BRANCH  22  23
ATOM     23  C   UNL     1       4.998   5.972  17.993  0.00  0.00    +0.000 C 
ATOM     24  C   UNL     1       5.556   6.510  16.669  0.00  0.00    +0.000 C 
ATOM     25  C   UNL     1       6.096   5.355  15.840  0.00  0.00    +0.000 C 
ATOM     26  C   UNL     1       7.115   4.506  16.604  0.00  0.00    +0.000 C 
ATOM     27  N   UNL     1       6.865   4.255  18.023  0.00  0.00    +0.000 NA
ATOM     28  C   UNL     1       6.176   5.329  18.747  0.00  0.00    +0.000 C 
ATOM     29  H   UNL     1       6.341   3.388  18.134  0.00  0.00    +0.000 HD
ENDBRANCH  22  23
ENDBRANCH  18  22
TORSDOF 3
ENDMDL
MODEL 4
REMARK VINA RESULT:      -7.1      2.082      4.242
REMARK  Name = 
REMARK  3 active torsions:
REMARK  status: ('A' for Active; 'I' for Inactive)
REMARK    1  A    between atoms: C_2  and  C_3
REMARK    2  A    between atoms: C_20  and  O_21
REMARK    3  A    between atoms: O_21  and  C_22
REMARK                            x       y       z     vdW  Elec       q    Type
REMARK                         _______ _______ _______ _____ _____    ______ ____
ROOT
ATOM      1  C   UNL     1       3.126   3.174  19.569  0.00  0.00    +0.000 A 
ATOM      2  N   UNL     1       2.062   2.906  20.370  0.00  0.00    +0.000 NA
ATOM      3  C   UNL     1       1.423   3.991  20.870  0.00  0.00    +0.000 A 
ATOM      4  C   UNL     1       1.820   5.314  20.633  0.00  0.00    +0.000 A 
ATOM      5  N   UNL     1       1.040   6.378  21.100  0.00  0.00    +0.000 N 
ATOM      6  C   UNL     1       1.079   7.741  20.793  0.00  0.00    +0.000 A 
ATOM      7  C   UNL     1       1.762   8.249  19.695  0.00  0.00    +0.000 A 
ATOM      8  C   UNL     1       1.682   9.599  19.350  0.00  0.00    +0.000 A 
ATOM      9  C   UNL     1       2.359  10.079  18.216  0.00  0.00    +0.000 A 
ATOM     10  C   UNL     1       2.220  11.404  17.815  0.00  0.00    +0.000 A 
ATOM     11  C   UNL     1       1.417  12.265  18.555  0.00  0.00    +0.000 A 
ATOM     12  C   UNL     1       0.769  11.806  19.708  0.00  0.00    +0.000 A 
ATOM     13 CL   UNL     1      -0.213  12.938  20.573  0.00  0.00    +0.000 Cl
ATOM     14  C   UNL     1       0.892  10.458  20.126  0.00  0.00    +0.000 A 
ATOM     15  C   UNL     1       0.277   9.870  21.244  0.00  0.00    +0.000 A 
ATOM     16  N   UNL     1       0.351   8.552  21.583  0.00  0.00    +0.000 NA
ATOM     17  N   UNL     1       2.892   5.541  19.847  0.00  0.00    +0.000 NA
ATOM     18  C   UNL     1       3.526   4.471  19.289  0.00  0.00    +0.000 A 
ATOM     19  H   UNL     1       0.541   6.238  21.969  0.00  0.00    +0.000 HD
ENDROOT
BRANCH   1  21
ATOM     20  N   UNL     1       4.295   1.127  18.470  0.00  0.00    +0.000 NA
ATOM     21  C   UNL     1       3.776   2.041  18.966  0.00  0.00    +0.000 C 
ENDBRANCH   1  21
BRANCH  18  22
ATOM     22  O   UNL     1       4.558   4.718  18.411  0.00  0.00    +0.000 OA
BRANCH  22  23
ATOM     23  C   UNL     1       4.141   5.164  17.103  0.00  0.00    +0.000 C 
ATOM     24  C   UNL     1       4.657   4.246  15.988  0.00  0.00    +0.000 C 
ATOM     25  C   UNL     1       6.173   4.153  16.069  0.00  0.00    +0.000 C 
ATOM     26  C   UNL     1       6.850   5.525  16.058  0.00  0.00    +0.000 C 
ATOM     27  N   UNL     1       6.203   6.610  16.797  0.00  0.00    +0.000 NA
ATOM     28  C   UNL     1       4.738   6.560  16.845  0.00  0.00    +0.000 C 
ATOM     29  H   UNL     1       6.568   6.646  17.747  0.00  0.00    +0.000 HD
ENDBRANCH  22  23
ENDBRANCH  18  22
TORSDOF 3
ENDMDL
MODEL 5
REMARK VINA RESULT:      -7.1      3.736      8.421
REMARK  Name = 
REMARK  3 active torsions:
REMARK  status: ('A' for Active; 'I' for Inactive)
REMARK    1  A    between atoms: C_2  and  C_3
REMARK    2  A    between atoms: C_20  and  O_21
REMARK    3  A    between atoms: O_21  and  C_22
REMARK                            x       y       z     vdW  Elec       q    Type
REMARK                         _______ _______ _______ _____ _____    ______ ____
ROOT
ATOM      1  C   UNL     1      -0.172  11.516  22.072  0.00  0.00    +0.000 A 
ATOM      2  N   UNL     1      -0.432  10.670  23.103  0.00  0.00    +0.000 NA
ATOM      3  C   UNL     1      -0.160   9.364  22.865  0.00  0.00    +0.000 A 
ATOM      4  C   UNL     1       0.323   8.872  21.645  0.00  0.00    +0.000 A 
ATOM      5  N   UNL     1       0.679   7.524  21.522  0.00  0.00    +0.000 N 
ATOM      6  C   UNL     1       1.397   6.859  20.523  0.00  0.00    +0.000 A 
ATOM      7  C   UNL     1       2.159   7.523  19.571  0.00  0.00    +0.000 A 
ATOM      8  C   UNL     1       2.958   6.825  18.664  0.00  0.00    +0.000 A 
ATOM      9  C   UNL     1       3.742   7.524  17.731  0.00  0.00    +0.000 A 
ATOM     10  C   UNL     1       4.605   6.843  16.877  0.00  0.00    +0.000 A 
ATOM     11  C   UNL     1       4.677   5.456  16.937  0.00  0.00    +0.000 A 
ATOM     12  C   UNL     1       3.871   4.747  17.837  0.00  0.00    +0.000 A 
ATOM     13 CL   UNL     1       4.021   3.024  17.851  0.00  0.00    +0.000 Cl
ATOM     14  C   UNL     1       2.994   5.425  18.720  0.00  0.00    +0.000 A 
ATOM     15  C   UNL     1       2.156   4.836  19.681  0.00  0.00    +0.000 A 
ATOM     16  N   UNL     1       1.376   5.513  20.570  0.00  0.00    +0.000 NA
ATOM     17  N   UNL     1       0.553   9.739  20.639  0.00  0.00    +0.000 NA
ATOM     18  C   UNL     1       0.335  11.065  20.863  0.00  0.00    +0.000 A 
ATOM     19  H   UNL     1       0.150   6.854  22.065  0.00  0.00    +0.000 HD
ENDROOT
BRANCH   1  21
ATOM     20  N   UNL     1      -0.553  14.046  22.535  0.00  0.00    +0.000 NA
ATOM     21  C   UNL     1      -0.382  12.916  22.322  0.00  0.00    +0.000 C 
ENDBRANCH   1  21
BRANCH  18  22
ATOM     22  O   UNL     1       0.665  11.952  19.862  0.00  0.00    +0.000 OA
BRANCH  22  23
ATOM     23  C   UNL     1       2.082  12.184  19.706  0.00  0.00    +0.000 C 
ATOM     24  C   UNL     1       2.525  13.503  20.352  0.00  0.00    +0.000 C 
ATOM     25  C   UNL     1       1.721  14.651  19.760  0.00  0.00    +0.000 C 
ATOM     26  C   UNL     1       1.790  14.695  18.232  0.00  0.00    +0.000 C 
ATOM     27  N   UNL     1       1.770  13.420  17.513  0.00  0.00    +0.000 NA
ATOM     28  C   UNL     1       2.402  12.291  18.204  0.00  0.00    +0.000 C 
ATOM     29  H   UNL     1       0.811  13.173  17.276  0.00  0.00    +0.000 HD
ENDBRANCH  22  23
ENDBRANCH  18  22
TORSDOF 3
ENDMDL
MODEL 6
REMARK VINA RESULT:      -7.0      1.207      1.347
REMARK  Name = 
REMARK  3 active torsions:
REMARK  status: ('A' for Active; 'I' for Inactive)
REMARK    1  A    between atoms: C_2  and  C_3
REMARK    2  A    between atoms: C_20  and  O_21
REMARK    3  A    between atoms: O_21  and  C_22
REMARK                            x       y       z     vdW  Elec       q    Type
REMARK                         _______ _______ _______ _____ _____    ______ ____
ROOT
ATOM      1  C   UNL     1       4.050   5.682  17.137  0.00  0.00    +0.000 A 
ATOM      2  N   UNL     1       4.627   6.738  16.507  0.00  0.00    +0.000 NA
ATOM      3  C   UNL     1       4.076   7.947  16.774  0.00  0.00    +0.000 A 
ATOM      4  C   UNL     1       2.965   8.136  17.607  0.00  0.00    +0.000 A 
ATOM      5  N   UNL     1       2.526   9.429  17.913  0.00  0.00    +0.000 N 
ATOM      6  C   UNL     1       1.629   9.881  18.885  0.00  0.00    +0.000 A 
ATOM      7  C   UNL     1       1.213   9.096  19.953  0.00  0.00    +0.000 A 
ATOM      8  C   UNL     1       0.412   9.618  20.970  0.00  0.00    +0.000 A 
ATOM      9  C   UNL     1       0.031   8.809  22.053  0.00  0.00    +0.000 A 
ATOM     10  C   UNL     1      -0.698   9.340  23.113  0.00  0.00    +0.000 A 
ATOM     11  C   UNL     1      -1.069  10.680  23.089  0.00  0.00    +0.000 A 
ATOM     12  C   UNL     1      -0.727  11.485  21.995  0.00  0.00    +0.000 A 
ATOM     13 CL   UNL     1      -1.223  13.141  22.042  0.00  0.00    +0.000 Cl
ATOM     14  C   UNL     1       0.023  10.963  20.912  0.00  0.00    +0.000 A 
ATOM     15  C   UNL     1       0.448  11.668  19.774  0.00  0.00    +0.000 A 
ATOM     16  N   UNL     1       1.233  11.164  18.780  0.00  0.00    +0.000 NA
ATOM     17  N   UNL     1       2.407   7.062  18.202  0.00  0.00    +0.000 NA
ATOM     18  C   UNL     1       2.969   5.838  17.991  0.00  0.00    +0.000 A 
ATOM     19  H   UNL     1       2.643  10.137  17.200  0.00  0.00    +0.000 HD
ENDROOT
BRANCH   1  21
ATOM     20  N   UNL     1       5.166   3.363  16.765  0.00  0.00    +0.000 NA
ATOM     21  C   UNL     1       4.663   4.398  16.929  0.00  0.00    +0.000 C 
ENDBRANCH   1  21
BRANCH  18  22
ATOM     22  O   UNL     1       2.453   4.764  18.680  0.00  0.00    +0.000 OA
BRANCH  22  23
ATOM     23  C   UNL     1       2.992   4.583  20.007  0.00  0.00    +0.000 C 
ATOM     24  C   UNL     1       3.692   3.227  20.166  0.00  0.00    +0.000 C 
ATOM     25  C   UNL     1       2.718   2.111  19.822  0.00  0.00    +0.000 C 
ATOM     26  C   UNL     1       1.416   2.195  20.623  0.00  0.00    +0.000 C 
ATOM     27  N   UNL     1       0.855   3.524  20.872  0.00  0.00    +0.000 NA
ATOM     28  C   UNL     1       1.831   4.609  21.018  0.00  0.00    +0.000 C 
ATOM     29  H   UNL     1       0.197   3.764  20.132  0.00  0.00    +0.000 HD
ENDBRANCH  22  23
ENDBRANCH  18  22
TORSDOF 3
ENDMDL
MODEL 7
REMARK VINA RESULT:      -6.9      4.589      7.276
REMARK  Name = 
REMARK  3 active torsions:
REMARK  status: ('A' for Active; 'I' for Inactive)
REMARK    1  A    between atoms: C_2  and  C_3
REMARK    2  A    between atoms: C_20  and  O_21
REMARK    3  A    between atoms: O_21  and  C_22
REMARK                            x       y       z     vdW  Elec       q    Type
REMARK                         _______ _______ _______ _____ _____    ______ ____
ROOT
ATOM      1  C   UNL     1       0.621  10.586  19.245  0.00  0.00    +0.000 A 
ATOM      2  N   UNL     1       1.205  10.697  20.466  0.00  0.00    +0.000 NA
ATOM      3  C   UNL     1       0.467  11.332  21.408  0.00  0.00    +0.000 A 
ATOM      4  C   UNL     1      -0.799  11.884  21.173  0.00  0.00    +0.000 A 
ATOM      5  N   UNL     1      -1.538  12.428  22.230  0.00  0.00    +0.000 N 
ATOM      6  C   UNL     1      -2.883  12.801  22.305  0.00  0.00    +0.000 A 
ATOM      7  C   UNL     1      -3.829  12.409  21.367  0.00  0.00    +0.000 A 
ATOM      8  C   UNL     1      -5.184  12.699  21.536  0.00  0.00    +0.000 A 
ATOM      9  C   UNL     1      -6.123  12.263  20.587  0.00  0.00    +0.000 A 
ATOM     10  C   UNL     1      -7.484  12.474  20.787  0.00  0.00    +0.000 A 
ATOM     11  C   UNL     1      -7.916  13.139  21.929  0.00  0.00    +0.000 A 
ATOM     12  C   UNL     1      -6.986  13.612  22.862  0.00  0.00    +0.000 A 
ATOM     13 CL   UNL     1      -7.603  14.427  24.257  0.00  0.00    +0.000 Cl
ATOM     14  C   UNL     1      -5.597  13.397  22.680  0.00  0.00    +0.000 A 
ATOM     15  C   UNL     1      -4.568  13.797  23.549  0.00  0.00    +0.000 A 
ATOM     16  N   UNL     1      -3.245  13.514  23.389  0.00  0.00    +0.000 NA
ATOM     17  N   UNL     1      -1.341  11.770  19.943  0.00  0.00    +0.000 NA
ATOM     18  C   UNL     1      -0.643  11.093  18.987  0.00  0.00    +0.000 A 
ATOM     19  H   UNL     1      -1.019  12.872  22.976  0.00  0.00    +0.000 HD
ENDROOT
BRANCH   1  21
ATOM     20  N   UNL     1       1.934   9.253  17.439  0.00  0.00    +0.000 NA
ATOM     21  C   UNL     1       1.352   9.851  18.248  0.00  0.00    +0.000 C 
ENDBRANCH   1  21
BRANCH  18  22
ATOM     22  O   UNL     1      -1.246  10.898  17.765  0.00  0.00    +0.000 OA
BRANCH  22  23
ATOM     23  C   UNL     1      -2.396  10.025  17.793  0.00  0.00    +0.000 C 
ATOM     24  C   UNL     1      -2.587   9.280  16.466  0.00  0.00    +0.000 C 
ATOM     25  C   UNL     1      -2.702  10.287  15.332  0.00  0.00    +0.000 C 
ATOM     26  C   UNL     1      -3.791  11.333  15.578  0.00  0.00    +0.000 C 
ATOM     27  N   UNL     1      -3.955  11.837  16.942  0.00  0.00    +0.000 NA
ATOM     28  C   UNL     1      -3.658  10.879  18.013  0.00  0.00    +0.000 C 
ATOM     29  H   UNL     1      -3.386  12.671  17.073  0.00  0.00    +0.000 HD
ENDBRANCH  22  23
ENDBRANCH  18  22
TORSDOF 3
ENDMDL
MODEL 8
REMARK VINA RESULT:      -6.6      6.065     10.531
REMARK  Name = 
REMARK  3 active torsions:
REMARK  status: ('A' for Active; 'I' for Inactive)
REMARK    1  A    between atoms: C_2  and  C_3
REMARK    2  A    between atoms: C_20  and  O_21
REMARK    3  A    between atoms: O_21  and  C_22
REMARK                            x       y       z     vdW  Elec       q    Type
REMARK                         _______ _______ _______ _____ _____    ______ ____
ROOT
ATOM      1  C   UNL     1      -3.188  16.057  24.298  0.00  0.00    +0.000 A 
ATOM      2  N   UNL     1      -1.902  16.409  24.561  0.00  0.00    +0.000 NA
ATOM      3  C   UNL     1      -0.957  15.620  23.994  0.00  0.00    +0.000 A 
ATOM      4  C   UNL     1      -1.242  14.491  23.215  0.00  0.00    +0.000 A 
ATOM      5  N   UNL     1      -0.207  13.795  22.579  0.00  0.00    +0.000 N 
ATOM      6  C   UNL     1      -0.244  12.821  21.577  0.00  0.00    +0.000 A 
ATOM      7  C   UNL     1      -1.374  12.570  20.809  0.00  0.00    +0.000 A 
ATOM      8  C   UNL     1      -1.341  11.675  19.738  0.00  0.00    +0.000 A 
ATOM      9  C   UNL     1      -2.490  11.463  18.959  0.00  0.00    +0.000 A 
ATOM     10  C   UNL     1      -2.447  10.637  17.840  0.00  0.00    +0.000 A 
ATOM     11  C   UNL     1      -1.258  10.000  17.502  0.00  0.00    +0.000 A 
ATOM     12  C   UNL     1      -0.117  10.173  18.295  0.00  0.00    +0.000 A 
ATOM     13 CL   UNL     1       1.323   9.348  17.807  0.00  0.00    +0.000 Cl
ATOM     14  C   UNL     1      -0.141  11.019  19.432  0.00  0.00    +0.000 A 
ATOM     15  C   UNL     1       0.937  11.295  20.290  0.00  0.00    +0.000 A 
ATOM     16  N   UNL     1       0.909  12.170  21.335  0.00  0.00    +0.000 NA
ATOM     17  N   UNL     1      -2.530  14.162  22.990  0.00  0.00    +0.000 NA
ATOM     18  C   UNL     1      -3.504  14.964  23.506  0.00  0.00    +0.000 A 
ATOM     19  H   UNL     1       0.688  13.766  23.050  0.00  0.00    +0.000 HD
ENDROOT
BRANCH   1  21
ATOM     20  N   UNL     1      -5.030  17.627  25.252  0.00  0.00    +0.000 NA
ATOM     21  C   UNL     1      -4.210  16.921  24.827  0.00  0.00    +0.000 C 
ENDBRANCH   1  21
BRANCH  18  22
ATOM     22  O   UNL     1      -4.812  14.676  23.190  0.00  0.00    +0.000 OA
BRANCH  22  23
ATOM     23  C   UNL     1      -5.071  13.285  22.903  0.00  0.00    +0.000 C 
ATOM     24  C   UNL     1      -6.123  13.108  21.802  0.00  0.00    +0.000 C 
ATOM     25  C   UNL     1      -7.404  13.822  22.206  0.00  0.00    +0.000 C 
ATOM     26  C   UNL     1      -7.916  13.386  23.580  0.00  0.00    +0.000 C 
ATOM     27  N   UNL     1      -6.925  13.140  24.629  0.00  0.00    +0.000 NA
ATOM     28  C   UNL     1      -5.633  12.617  24.172  0.00  0.00    +0.000 C 
ATOM     29  H   UNL     1      -6.770  13.992  25.165  0.00  0.00    +0.000 HD
ENDBRANCH  22  23
ENDBRANCH  18  22
TORSDOF 3
ENDMDL
MODEL 9
REMARK VINA RESULT:      -6.4      3.580      8.240
REMARK  Name = 
REMARK  3 active torsions:
REMARK  status: ('A' for Active; 'I' for Inactive)
REMARK    1  A    between atoms: C_2  and  C_3
REMARK    2  A    between atoms: C_20  and  O_21
REMARK    3  A    between atoms: O_21  and  C_22
REMARK                            x       y       z     vdW  Elec       q    Type
REMARK                         _______ _______ _______ _____ _____    ______ ____
ROOT
ATOM      1  C   UNL     1      -0.510  11.257  22.503  0.00  0.00    +0.000 A 
ATOM      2  N   UNL     1      -0.694  10.325  23.473  0.00  0.00    +0.000 NA
ATOM      3  C   UNL     1      -0.343   9.060  23.138  0.00  0.00    +0.000 A 
ATOM      4  C   UNL     1       0.146   8.689  21.878  0.00  0.00    +0.000 A 
ATOM      5  N   UNL     1       0.586   7.380  21.650  0.00  0.00    +0.000 N 
ATOM      6  C   UNL     1       1.326   6.837  20.596  0.00  0.00    +0.000 A 
ATOM      7  C   UNL     1       2.024   7.616  19.683  0.00  0.00    +0.000 A 
ATOM      8  C   UNL     1       2.848   7.040  18.715  0.00  0.00    +0.000 A 
ATOM      9  C   UNL     1       3.566   7.854  17.824  0.00  0.00    +0.000 A 
ATOM     10  C   UNL     1       4.454   7.295  16.910  0.00  0.00    +0.000 A 
ATOM     11  C   UNL     1       4.617   5.914  16.867  0.00  0.00    +0.000 A 
ATOM     12  C   UNL     1       3.877   5.091  17.725  0.00  0.00    +0.000 A 
ATOM     13 CL   UNL     1       4.138   3.385  17.611  0.00  0.00    +0.000 Cl
ATOM     14  C   UNL     1       2.976   5.645  18.668  0.00  0.00    +0.000 A 
ATOM     15  C   UNL     1       2.197   4.934  19.596  0.00  0.00    +0.000 A 
ATOM     16  N   UNL     1       1.393   5.493  20.544  0.00  0.00    +0.000 NA
ATOM     17  N   UNL     1       0.300   9.640  20.934  0.00  0.00    +0.000 NA
ATOM     18  C   UNL     1       0.001  10.929  21.257  0.00  0.00    +0.000 A 
ATOM     19  H   UNL     1       0.113   6.640  22.152  0.00  0.00    +0.000 HD
ENDROOT
BRANCH   1  21
ATOM     20  N   UNL     1      -1.045  13.718  23.155  0.00  0.00    +0.000 NA
ATOM     21  C   UNL     1      -0.805  12.620  22.858  0.00  0.00    +0.000 C 
ENDBRANCH   1  21
BRANCH  18  22
ATOM     22  O   UNL     1       0.253  11.905  20.318  0.00  0.00    +0.000 OA
BRANCH  22  23
ATOM     23  C   UNL     1       0.141  11.466  18.948  0.00  0.00    +0.000 C 
ATOM     24  C   UNL     1       1.512  11.211  18.309  0.00  0.00    +0.000 C 
ATOM     25  C   UNL     1       2.357  12.473  18.404  0.00  0.00    +0.000 C 
ATOM     26  C   UNL     1       1.656  13.699  17.816  0.00  0.00    +0.000 C 
ATOM     27  N   UNL     1       0.217  13.836  18.045  0.00  0.00    +0.000 NA
ATOM     28  C   UNL     1      -0.536  12.579  18.127  0.00  0.00    +0.000 C 
ATOM     29  H   UNL     1       0.052  14.379  18.891  0.00  0.00    +0.000 HD
ENDBRANCH  22  23
ENDBRANCH  18  22
TORSDOF 3
ENDMDL
