MODEL 1
REMARK VINA RESULT:      -7.2      0.000      0.000
REMARK  Name = 
REMARK  3 active torsions:
REMARK  status: ('A' for Active; 'I' for Inactive)
REMARK    1  A    between atoms: C_1  and  C_18
REMARK    2  A    between atoms: N_2  and  C_3
REMARK    3  A    between atoms: C_6  and  C_7
REMARK                            x       y       z     vdW  Elec       q    Type
REMARK                         _______ _______ _______ _____ _____    ______ ____
ROOT
ATOM      1  C   UNL     1       0.132  10.179  20.150  0.00  0.00    +0.000 A 
ATOM      2  C   UNL     1       0.645   9.139  20.931  0.00  0.00    +0.000 A 
ATOM      3  C   UNL     1       1.512   8.177  20.391  0.00  0.00    +0.000 A 
ATOM      4  C   UNL     1       1.884   8.233  19.043  0.00  0.00    +0.000 A 
ATOM      5  C   UNL     1       1.349   9.264  18.256  0.00  0.00    +0.000 A 
ATOM      6  C   UNL     1       0.474  10.211  18.797  0.00  0.00    +0.000 A 
ENDROOT
BRANCH   4   7
ATOM      7  C   UNL     1       2.734   7.231  18.378  0.00  0.00    +0.000 A 
ATOM      8  N   UNL     1       3.707   7.565  17.554  0.00  0.00    +0.000 NA
ATOM      9  C   UNL     1       4.298   6.440  17.018  0.00  0.00    +0.000 A 
ATOM     10  C   UNL     1       5.322   6.438  16.053  0.00  0.00    +0.000 A 
ATOM     11  C   UNL     1       5.814   5.225  15.566  0.00  0.00    +0.000 A 
ATOM     12  C   UNL     1       5.305   4.020  16.045  0.00  0.00    +0.000 A 
ATOM     13  C   UNL     1       4.301   3.997  17.019  0.00  0.00    +0.000 A 
ATOM     14  C   UNL     1       3.801   5.224  17.487  0.00  0.00    +0.000 A 
ATOM     15  S   UNL     1       2.555   5.542  18.636  0.00  0.00    +0.000 S 
ENDBRANCH   4   7
BRANCH   1  17
ATOM     16  C   UNL     1      -0.589  11.351  22.030  0.00  0.00    +0.000 C 
ATOM     17  N   UNL     1      -0.724  11.111  20.766  0.00  0.00    +0.000 NA
BRANCH  16  18
ATOM     18  C   UNL     1      -1.470  12.261  22.721  0.00  0.00    +0.000 A 
ATOM     19  C   UNL     1      -2.710  12.024  23.277  0.00  0.00    +0.000 A 
ATOM     20  C   UNL     1      -3.240  13.181  23.922  0.00  0.00    +0.000 A 
ATOM     21  C   UNL     1      -2.392  14.261  23.822  0.00  0.00    +0.000 A 
ATOM     22  S   UNL     1      -0.970  13.881  22.954  0.00  0.00    +0.000 S 
ENDBRANCH  16  18
ENDBRANCH   1  17
TORSDOF 3
ENDMDL
MODEL 2
REMARK VINA RESULT:      -7.2      1.676      9.666
REMARK  Name = 
REMARK  3 active torsions:
REMARK  status: ('A' for Active; 'I' for Inactive)
REMARK    1  A    between atoms: C_1  and  C_18
REMARK    2  A    between atoms: N_2  and  C_3
REMARK    3  A    between atoms: C_6  and  C_7
REMARK                            x       y       z     vdW  Elec       q    Type
REMARK                         _______ _______ _______ _____ _____    ______ ____
ROOT
ATOM      1  C   UNL     1       2.630   7.437  18.548  0.00  0.00    +0.000 A 
ATOM      2  C   UNL     1       2.191   8.504  17.759  0.00  0.00    +0.000 A 
ATOM      3  C   UNL     1       1.348   9.500  18.278  0.00  0.00    +0.000 A 
ATOM      4  C   UNL     1       0.919   9.444  19.610  0.00  0.00    +0.000 A 
ATOM      5  C   UNL     1       1.344   8.358  20.391  0.00  0.00    +0.000 A 
ATOM      6  C   UNL     1       2.172   7.363  19.864  0.00  0.00    +0.000 A 
ENDROOT
BRANCH   4   7
ATOM      7  C   UNL     1      -0.016  10.406  20.218  0.00  0.00    +0.000 A 
ATOM      8  N   UNL     1      -0.203  10.482  21.521  0.00  0.00    +0.000 NA
ATOM      9  C   UNL     1      -1.177  11.412  21.817  0.00  0.00    +0.000 A 
ATOM     10  C   UNL     1      -1.668  11.694  23.105  0.00  0.00    +0.000 A 
ATOM     11  C   UNL     1      -2.684  12.640  23.268  0.00  0.00    +0.000 A 
ATOM     12  C   UNL     1      -3.196  13.314  22.163  0.00  0.00    +0.000 A 
ATOM     13  C   UNL     1      -2.709  13.065  20.876  0.00  0.00    +0.000 A 
ATOM     14  C   UNL     1      -1.701  12.097  20.722  0.00  0.00    +0.000 A 
ATOM     15  S   UNL     1      -0.924  11.532  19.291  0.00  0.00    +0.000 S 
ENDBRANCH   4   7
BRANCH   1  17
ATOM     16  C   UNL     1       4.467   6.889  17.224  0.00  0.00    +0.000 C 
ATOM     17  N   UNL     1       3.482   6.484  17.958  0.00  0.00    +0.000 NA
BRANCH  16  18
ATOM     18  C   UNL     1       5.342   5.954  16.558  0.00  0.00    +0.000 A 
ATOM     19  C   UNL     1       5.429   5.641  15.217  0.00  0.00    +0.000 A 
ATOM     20  C   UNL     1       6.465   4.698  14.951  0.00  0.00    +0.000 A 
ATOM     21  C   UNL     1       7.121   4.315  16.099  0.00  0.00    +0.000 A 
ATOM     22  S   UNL     1       6.488   5.086  17.486  0.00  0.00    +0.000 S 
ENDBRANCH  16  18
ENDBRANCH   1  17
TORSDOF 3
ENDMDL
MODEL 3
REMARK VINA RESULT:      -7.1      0.863      1.074
REMARK  Name = 
REMARK  3 active torsions:
REMARK  status: ('A' for Active; 'I' for Inactive)
REMARK    1  A    between atoms: C_1  and  C_18
REMARK    2  A    between atoms: N_2  and  C_3
REMARK    3  A    between atoms: C_6  and  C_7
REMARK                            x       y       z     vdW  Elec       q    Type
REMARK                         _______ _______ _______ _____ _____    ______ ____
ROOT
ATOM      1  C   UNL     1       0.473   9.742  20.132  0.00  0.00    +0.000 A 
ATOM      2  C   UNL     1       0.963   8.652  20.858  0.00  0.00    +0.000 A 
ATOM      3  C   UNL     1       1.826   7.711  20.274  0.00  0.00    +0.000 A 
ATOM      4  C   UNL     1       2.217   7.842  18.935  0.00  0.00    +0.000 A 
ATOM      5  C   UNL     1       1.705   8.925  18.204  0.00  0.00    +0.000 A 
ATOM      6  C   UNL     1       0.834   9.849  18.788  0.00  0.00    +0.000 A 
ENDROOT
BRANCH   4   7
ATOM      7  C   UNL     1       3.065   6.870  18.224  0.00  0.00    +0.000 A 
ATOM      8  N   UNL     1       4.010   7.240  17.382  0.00  0.00    +0.000 NA
ATOM      9  C   UNL     1       4.602   6.137  16.804  0.00  0.00    +0.000 A 
ATOM     10  C   UNL     1       5.600   6.175  15.813  0.00  0.00    +0.000 A 
ATOM     11  C   UNL     1       6.097   4.982  15.283  0.00  0.00    +0.000 A 
ATOM     12  C   UNL     1       5.621   3.758  15.746  0.00  0.00    +0.000 A 
ATOM     13  C   UNL     1       4.644   3.696  16.745  0.00  0.00    +0.000 A 
ATOM     14  C   UNL     1       4.138   4.903  17.257  0.00  0.00    +0.000 A 
ATOM     15  S   UNL     1       2.919   5.172  18.446  0.00  0.00    +0.000 S 
ENDBRANCH   4   7
BRANCH   1  17
ATOM     16  C   UNL     1       0.135  11.569  21.537  0.00  0.00    +0.000 C 
ATOM     17  N   UNL     1      -0.380  10.647  20.791  0.00  0.00    +0.000 NA
BRANCH  16  18
ATOM     18  C   UNL     1      -0.694  12.492  22.273  0.00  0.00    +0.000 A 
ATOM     19  C   UNL     1      -0.532  13.848  22.471  0.00  0.00    +0.000 A 
ATOM     20  C   UNL     1      -1.607  14.414  23.219  0.00  0.00    +0.000 A 
ATOM     21  C   UNL     1      -2.542  13.469  23.576  0.00  0.00    +0.000 A 
ATOM     22  S   UNL     1      -2.123  11.910  23.015  0.00  0.00    +0.000 S 
ENDBRANCH  16  18
ENDBRANCH   1  17
TORSDOF 3
ENDMDL
MODEL 4
REMARK VINA RESULT:      -7.0      1.674      9.617
REMARK  Name = 
REMARK  3 active torsions:
REMARK  status: ('A' for Active; 'I' for Inactive)
REMARK    1  A    between atoms: C_1  and  C_18
REMARK    2  A    between atoms: N_2  and  C_3
REMARK    3  A    between atoms: C_6  and  C_7
REMARK                            x       y       z     vdW  Elec       q    Type
REMARK                         _______ _______ _______ _____ _____    ______ ____
ROOT
ATOM      1  C   UNL     1       2.592   7.506  18.530  0.00  0.00    +0.000 A 
ATOM      2  C   UNL     1       2.199   7.369  19.864  0.00  0.00    +0.000 A 
ATOM      3  C   UNL     1       1.309   8.276  20.462  0.00  0.00    +0.000 A 
ATOM      4  C   UNL     1       0.793   9.352  19.729  0.00  0.00    +0.000 A 
ATOM      5  C   UNL     1       1.208   9.498  18.396  0.00  0.00    +0.000 A 
ATOM      6  C   UNL     1       2.106   8.600  17.812  0.00  0.00    +0.000 A 
ENDROOT
BRANCH   4   7
ATOM      7  C   UNL     1      -0.092  10.386  20.292  0.00  0.00    +0.000 A 
ATOM      8  N   UNL     1      -0.260  10.541  21.590  0.00  0.00    +0.000 NA
ATOM      9  C   UNL     1      -1.190  11.527  21.844  0.00  0.00    +0.000 A 
ATOM     10  C   UNL     1      -1.653  11.901  23.120  0.00  0.00    +0.000 A 
ATOM     11  C   UNL     1      -2.625  12.897  23.240  0.00  0.00    +0.000 A 
ATOM     12  C   UNL     1      -3.121  13.531  22.104  0.00  0.00    +0.000 A 
ATOM     13  C   UNL     1      -2.661  13.191  20.828  0.00  0.00    +0.000 A 
ATOM     14  C   UNL     1      -1.698  12.173  20.718  0.00  0.00    +0.000 A 
ATOM     15  S   UNL     1      -0.963  11.497  19.313  0.00  0.00    +0.000 S 
ENDBRANCH   4   7
BRANCH   1  17
ATOM     16  C   UNL     1       4.407   6.936  17.184  0.00  0.00    +0.000 C 
ATOM     17  N   UNL     1       3.480   6.551  18.000  0.00  0.00    +0.000 NA
BRANCH  16  18
ATOM     18  C   UNL     1       5.312   5.992  16.575  0.00  0.00    +0.000 A 
ATOM     19  C   UNL     1       5.444   5.637  15.248  0.00  0.00    +0.000 A 
ATOM     20  C   UNL     1       6.499   4.699  15.044  0.00  0.00    +0.000 A 
ATOM     21  C   UNL     1       7.124   4.362  16.223  0.00  0.00    +0.000 A 
ATOM     22  S   UNL     1       6.440   5.169  17.565  0.00  0.00    +0.000 S 
ENDBRANCH  16  18
ENDBRANCH   1  17
TORSDOF 3
ENDMDL
MODEL 5
REMARK VINA RESULT:      -7.0      0.656      1.244
REMARK  Name = 
REMARK  3 active torsions:
REMARK  status: ('A' for Active; 'I' for Inactive)
REMARK    1  A    between atoms: C_1  and  C_18
REMARK    2  A    between atoms: N_2  and  C_3
REMARK    3  A    between atoms: C_6  and  C_7
REMARK                            x       y       z     vdW  Elec       q    Type
REMARK                         _______ _______ _______ _____ _____    ______ ____
ROOT
ATOM      1  C   UNL     1       0.488   9.588  20.858  0.00  0.00    +0.000 A 
ATOM      2  C   UNL     1       0.774   9.921  19.531  0.00  0.00    +0.000 A 
ATOM      3  C   UNL     1       1.530   9.069  18.709  0.00  0.00    +0.000 A 
ATOM      4  C   UNL     1       2.023   7.856  19.207  0.00  0.00    +0.000 A 
ATOM      5  C   UNL     1       1.752   7.538  20.546  0.00  0.00    +0.000 A 
ATOM      6  C   UNL     1       1.012   8.397  21.363  0.00  0.00    +0.000 A 
ENDROOT
BRANCH   4   7
ATOM      7  C   UNL     1       2.877   6.935  18.438  0.00  0.00    +0.000 A 
ATOM      8  N   UNL     1       3.762   7.360  17.558  0.00  0.00    +0.000 NA
ATOM      9  C   UNL     1       4.374   6.295  16.933  0.00  0.00    +0.000 A 
ATOM     10  C   UNL     1       5.319   6.393  15.895  0.00  0.00    +0.000 A 
ATOM     11  C   UNL     1       5.842   5.232  15.320  0.00  0.00    +0.000 A 
ATOM     12  C   UNL     1       5.443   3.981  15.784  0.00  0.00    +0.000 A 
ATOM     13  C   UNL     1       4.521   3.859  16.828  0.00  0.00    +0.000 A 
ATOM     14  C   UNL     1       3.987   5.034  17.385  0.00  0.00    +0.000 A 
ATOM     15  S   UNL     1       2.817   5.229  18.636  0.00  0.00    +0.000 S 
ENDBRANCH   4   7
BRANCH   1  17
ATOM     16  C   UNL     1      -0.090  11.760  21.472  0.00  0.00    +0.000 C 
ATOM     17  N   UNL     1      -0.284  10.489  21.615  0.00  0.00    +0.000 NA
BRANCH  16  18
ATOM     18  C   UNL     1      -0.820  12.725  22.258  0.00  0.00    +0.000 A 
ATOM     19  C   UNL     1      -1.951  12.551  23.029  0.00  0.00    +0.000 A 
ATOM     20  C   UNL     1      -2.337  13.750  23.697  0.00  0.00    +0.000 A 
ATOM     21  C   UNL     1      -1.496  14.799  23.400  0.00  0.00    +0.000 A 
ATOM     22  S   UNL     1      -0.253  14.339  22.322  0.00  0.00    +0.000 S 
ENDBRANCH  16  18
ENDBRANCH   1  17
TORSDOF 3
ENDMDL
MODEL 6
REMARK VINA RESULT:      -7.0      1.680      9.554
REMARK  Name = 
REMARK  3 active torsions:
REMARK  status: ('A' for Active; 'I' for Inactive)
REMARK    1  A    between atoms: C_1  and  C_18
REMARK    2  A    between atoms: N_2  and  C_3
REMARK    3  A    between atoms: C_6  and  C_7
REMARK                            x       y       z     vdW  Elec       q    Type
REMARK                         _______ _______ _______ _____ _____    ______ ____
ROOT
ATOM      1  C   UNL     1       2.676   7.272  18.570  0.00  0.00    +0.000 A 
ATOM      2  C   UNL     1       2.314   7.054  19.903  0.00  0.00    +0.000 A 
ATOM      3  C   UNL     1       1.447   7.928  20.578  0.00  0.00    +0.000 A 
ATOM      4  C   UNL     1       0.924   9.052  19.927  0.00  0.00    +0.000 A 
ATOM      5  C   UNL     1       1.308   9.279  18.597  0.00  0.00    +0.000 A 
ATOM      6  C   UNL     1       2.183   8.413  17.935  0.00  0.00    +0.000 A 
ENDROOT
BRANCH   4   7
ATOM      7  C   UNL     1       0.062  10.054  20.576  0.00  0.00    +0.000 A 
ATOM      8  N   UNL     1      -0.619  10.950  19.890  0.00  0.00    +0.000 NA
ATOM      9  C   UNL     1      -1.285  11.808  20.739  0.00  0.00    +0.000 A 
ATOM     10  C   UNL     1      -2.051  12.919  20.339  0.00  0.00    +0.000 A 
ATOM     11  C   UNL     1      -2.650  13.732  21.304  0.00  0.00    +0.000 A 
ATOM     12  C   UNL     1      -2.506  13.435  22.657  0.00  0.00    +0.000 A 
ATOM     13  C   UNL     1      -1.767  12.325  23.077  0.00  0.00    +0.000 A 
ATOM     14  C   UNL     1      -1.152  11.526  22.098  0.00  0.00    +0.000 A 
ATOM     15  S   UNL     1      -0.155  10.132  22.279  0.00  0.00    +0.000 S 
ENDBRANCH   4   7
BRANCH   1  17
ATOM     16  C   UNL     1       4.456   6.774  17.151  0.00  0.00    +0.000 C 
ATOM     17  N   UNL     1       3.542   6.345  17.959  0.00  0.00    +0.000 NA
BRANCH  16  18
ATOM     18  C   UNL     1       5.338   5.864  16.461  0.00  0.00    +0.000 A 
ATOM     19  C   UNL     1       5.459   5.620  15.108  0.00  0.00    +0.000 A 
ATOM     20  C   UNL     1       6.492   4.679  14.822  0.00  0.00    +0.000 A 
ATOM     21  C   UNL     1       7.110   4.228  15.966  0.00  0.00    +0.000 A 
ATOM     22  S   UNL     1       6.447   4.934  17.374  0.00  0.00    +0.000 S 
ENDBRANCH  16  18
ENDBRANCH   1  17
TORSDOF 3
ENDMDL
MODEL 7
REMARK VINA RESULT:      -6.9      6.623      8.516
REMARK  Name = 
REMARK  3 active torsions:
REMARK  status: ('A' for Active; 'I' for Inactive)
REMARK    1  A    between atoms: C_1  and  C_18
REMARK    2  A    between atoms: N_2  and  C_3
REMARK    3  A    between atoms: C_6  and  C_7
REMARK                            x       y       z     vdW  Elec       q    Type
REMARK                         _______ _______ _______ _____ _____    ______ ____
ROOT
ATOM      1  C   UNL     1       7.848   8.149  17.903  0.00  0.00    +0.000 A 
ATOM      2  C   UNL     1       8.088   7.007  18.672  0.00  0.00    +0.000 A 
ATOM      3  C   UNL     1       7.136   5.980  18.776  0.00  0.00    +0.000 A 
ATOM      4  C   UNL     1       5.909   6.080  18.108  0.00  0.00    +0.000 A 
ATOM      5  C   UNL     1       5.664   7.238  17.356  0.00  0.00    +0.000 A 
ATOM      6  C   UNL     1       6.610   8.263  17.268  0.00  0.00    +0.000 A 
ENDROOT
BRANCH   4   7
ATOM      7  C   UNL     1       4.829   5.084  18.213  0.00  0.00    +0.000 A 
ATOM      8  N   UNL     1       3.910   5.137  19.156  0.00  0.00    +0.000 NA
ATOM      9  C   UNL     1       3.063   4.052  19.069  0.00  0.00    +0.000 A 
ATOM     10  C   UNL     1       2.014   3.764  19.961  0.00  0.00    +0.000 A 
ATOM     11  C   UNL     1       1.246   2.610  19.781  0.00  0.00    +0.000 A 
ATOM     12  C   UNL     1       1.507   1.757  18.711  0.00  0.00    +0.000 A 
ATOM     13  C   UNL     1       2.532   2.033  17.801  0.00  0.00    +0.000 A 
ATOM     14  C   UNL     1       3.309   3.186  18.004  0.00  0.00    +0.000 A 
ATOM     15  S   UNL     1       4.652   3.784  17.104  0.00  0.00    +0.000 S 
ENDBRANCH   4   7
BRANCH   1  17
ATOM     16  C   UNL     1       9.030   9.920  18.849  0.00  0.00    +0.000 C 
ATOM     17  N   UNL     1       8.856   9.129  17.840  0.00  0.00    +0.000 NA
BRANCH  16  18
ATOM     18  C   UNL     1      10.016  10.972  18.818  0.00  0.00    +0.000 A 
ATOM     19  C   UNL     1      10.722  11.480  17.746  0.00  0.00    +0.000 A 
ATOM     20  C   UNL     1      11.571  12.561  18.124  0.00  0.00    +0.000 A 
ATOM     21  C   UNL     1      11.494  12.831  19.472  0.00  0.00    +0.000 A 
ATOM     22  S   UNL     1      10.407  11.783  20.274  0.00  0.00    +0.000 S 
ENDBRANCH  16  18
ENDBRANCH   1  17
TORSDOF 3
ENDMDL
MODEL 8
REMARK VINA RESULT:      -6.9      1.264      1.327
REMARK  Name = 
REMARK  3 active torsions:
REMARK  status: ('A' for Active; 'I' for Inactive)
REMARK    1  A    between atoms: C_1  and  C_18
REMARK    2  A    between atoms: N_2  and  C_3
REMARK    3  A    between atoms: C_6  and  C_7
REMARK                            x       y       z     vdW  Elec       q    Type
REMARK                         _______ _______ _______ _____ _____    ______ ____
ROOT
ATOM      1  C   UNL     1       0.565   9.571  20.150  0.00  0.00    +0.000 A 
ATOM      2  C   UNL     1       1.063   8.459  20.837  0.00  0.00    +0.000 A 
ATOM      3  C   UNL     1       1.935   7.548  20.221  0.00  0.00    +0.000 A 
ATOM      4  C   UNL     1       2.327   7.730  18.889  0.00  0.00    +0.000 A 
ATOM      5  C   UNL     1       1.807   8.834  18.196  0.00  0.00    +0.000 A 
ATOM      6  C   UNL     1       0.928   9.730  18.811  0.00  0.00    +0.000 A 
ENDROOT
BRANCH   4   7
ATOM      7  C   UNL     1       3.184   6.791  18.145  0.00  0.00    +0.000 A 
ATOM      8  N   UNL     1       4.115   7.198  17.305  0.00  0.00    +0.000 NA
ATOM      9  C   UNL     1       4.720   6.122  16.692  0.00  0.00    +0.000 A 
ATOM     10  C   UNL     1       5.708   6.202  15.693  0.00  0.00    +0.000 A 
ATOM     11  C   UNL     1       6.220   5.031  15.128  0.00  0.00    +0.000 A 
ATOM     12  C   UNL     1       5.767   3.788  15.563  0.00  0.00    +0.000 A 
ATOM     13  C   UNL     1       4.801   3.684  16.568  0.00  0.00    +0.000 A 
ATOM     14  C   UNL     1       4.279   4.868  17.116  0.00  0.00    +0.000 A 
ATOM     15  S   UNL     1       3.068   5.086  18.322  0.00  0.00    +0.000 S 
ENDBRANCH   4   7
BRANCH   1  17
ATOM     16  C   UNL     1      -1.012  11.285  20.166  0.00  0.00    +0.000 C 
ATOM     17  N   UNL     1      -0.296  10.445  20.839  0.00  0.00    +0.000 NA
BRANCH  16  18
ATOM     18  C   UNL     1      -1.875  12.235  20.825  0.00  0.00    +0.000 A 
ATOM     19  C   UNL     1      -2.798  13.104  20.280  0.00  0.00    +0.000 A 
ATOM     20  C   UNL     1      -3.493  13.847  21.279  0.00  0.00    +0.000 A 
ATOM     21  C   UNL     1      -3.065  13.530  22.549  0.00  0.00    +0.000 A 
ATOM     22  S   UNL     1      -1.833  12.346  22.532  0.00  0.00    +0.000 S 
ENDBRANCH  16  18
ENDBRANCH   1  17
TORSDOF 3
ENDMDL
MODEL 9
REMARK VINA RESULT:      -6.9      1.102      1.682
REMARK  Name = 
REMARK  3 active torsions:
REMARK  status: ('A' for Active; 'I' for Inactive)
REMARK    1  A    between atoms: C_1  and  C_18
REMARK    2  A    between atoms: N_2  and  C_3
REMARK    3  A    between atoms: C_6  and  C_7
REMARK                            x       y       z     vdW  Elec       q    Type
REMARK                         _______ _______ _______ _____ _____    ______ ____
ROOT
ATOM      1  C   UNL     1       0.339  10.413  21.645  0.00  0.00    +0.000 A 
ATOM      2  C   UNL     1       0.547  10.487  20.264  0.00  0.00    +0.000 A 
ATOM      3  C   UNL     1       1.146   9.432  19.557  0.00  0.00    +0.000 A 
ATOM      4  C   UNL     1       1.558   8.273  20.225  0.00  0.00    +0.000 A 
ATOM      5  C   UNL     1       1.368   8.213  21.614  0.00  0.00    +0.000 A 
ATOM      6  C   UNL     1       0.784   9.272  22.315  0.00  0.00    +0.000 A 
ENDROOT
BRANCH   4   7
ATOM      7  C   UNL     1       2.252   7.148  19.576  0.00  0.00    +0.000 A 
ATOM      8  N   UNL     1       3.064   7.316  18.551  0.00  0.00    +0.000 NA
ATOM      9  C   UNL     1       3.524   6.100  18.091  0.00  0.00    +0.000 A 
ATOM     10  C   UNL     1       4.355   5.914  16.971  0.00  0.00    +0.000 A 
ATOM     11  C   UNL     1       4.724   4.622  16.589  0.00  0.00    +0.000 A 
ATOM     12  C   UNL     1       4.287   3.523  17.324  0.00  0.00    +0.000 A 
ATOM     13  C   UNL     1       3.478   3.685  18.452  0.00  0.00    +0.000 A 
ATOM     14  C   UNL     1       3.096   4.988  18.816  0.00  0.00    +0.000 A 
ATOM     15  S   UNL     1       2.088   5.523  20.108  0.00  0.00    +0.000 S 
ENDBRANCH   4   7
BRANCH   1  17
ATOM     16  C   UNL     1      -1.500  11.394  22.685  0.00  0.00    +0.000 C 
ATOM     17  N   UNL     1      -0.277  11.507  22.281  0.00  0.00    +0.000 NA
BRANCH  16  18
ATOM     18  C   UNL     1      -2.195  12.500  23.299  0.00  0.00    +0.000 A 
ATOM     19  C   UNL     1      -3.479  12.557  23.799  0.00  0.00    +0.000 A 
ATOM     20  C   UNL     1      -3.776  13.827  24.377  0.00  0.00    +0.000 A 
ATOM     21  C   UNL     1      -2.713  14.697  24.284  0.00  0.00    +0.000 A 
ATOM     22  S   UNL     1      -1.370  13.986  23.502  0.00  0.00    +0.000 S 
ENDBRANCH  16  18
ENDBRANCH   1  17
TORSDOF 3
ENDMDL
