MODEL 1
REMARK VINA RESULT:      -7.4      0.000      0.000
REMARK  Name = 
REMARK  7 active torsions:
REMARK  status: ('A' for Active; 'I' for Inactive)
REMARK    1  A    between atoms: C_1  and  O_2
REMARK    2  A    between atoms: O_2  and  C_3
REMARK    3  A    between atoms: N_5  and  N_6
REMARK    4  A    between atoms: C_7  and  C_8
REMARK    5  A    between atoms: C_10  and  C_11
REMARK    6  A    between atoms: N_12  and  C_13
REMARK    7  A    between atoms: C_20  and  C_21
REMARK                            x       y       z     vdW  Elec       q    Type
REMARK                         _______ _______ _______ _____ _____    ______ ____
ROOT
ATOM      1  C   UNL     1       4.474   4.430  16.623  0.00  0.00    +0.000 A 
ATOM      2  C   UNL     1       3.448   3.627  17.159  0.00  0.00    +0.000 A 
ATOM      3  C   UNL     1       2.631   4.414  17.945  0.00  0.00    +0.000 A 
ATOM      4  C   UNL     1       1.363   3.959  18.585  0.00  0.00    +0.000 C 
ATOM      5  N   UNL     1       3.131   5.723  17.924  0.00  0.00    +0.000 N 
ATOM      6  C   UNL     1       4.304   5.708  17.148  0.00  0.00    +0.000 A 
ATOM      7  C   UNL     1       5.254   6.849  16.973  0.00  0.00    +0.000 C 
ENDROOT
BRANCH   5   8
ATOM      8  C   UNL     1       2.529   6.870  18.551  0.00  0.00    +0.000 A 
ATOM      9  C   UNL     1       2.286   6.894  19.934  0.00  0.00    +0.000 A 
ATOM     10  C   UNL     1       1.672   7.999  20.534  0.00  0.00    +0.000 A 
ATOM     11  C   UNL     1       1.337   9.100  19.762  0.00  0.00    +0.000 A 
ATOM     12  F   UNL     1       0.771  10.168  20.341  0.00  0.00    +0.000 F 
ATOM     13  C   UNL     1       1.583   9.110  18.397  0.00  0.00    +0.000 A 
ATOM     14  C   UNL     1       2.155   7.986  17.788  0.00  0.00    +0.000 A 
ENDBRANCH   5   8
BRANCH   1  16
ATOM     15  N   UNL     1       5.291   4.046  14.442  0.00  0.00    +0.000 NA
ATOM     16  C   UNL     1       5.525   4.017  15.711  0.00  0.00    +0.000 C 
BRANCH  15  19
ATOM     17  C   UNL     1       6.107   3.299  12.332  0.00  0.00    +0.000 C 
ATOM     18  O   UNL     1       5.018   3.196  11.776  0.00  0.00    +0.000 OA
ATOM     19  N   UNL     1       6.328   3.686  13.631  0.00  0.00    +0.000 N 
ATOM     20  H   UNL     1       7.288   3.736  13.944  0.00  0.00    +0.000 HD
BRANCH  17  22
ATOM     21  C   UNL     1       7.314   1.812  11.008  0.00  0.00    +0.000 C 
ATOM     22  O   UNL     1       7.298   3.042  11.730  0.00  0.00    +0.000 OA
ENDBRANCH  17  22
ENDBRANCH  15  19
ENDBRANCH   1  16
TORSDOF 4
ENDMDL
MODEL 2
REMARK VINA RESULT:      -7.4      0.055      1.054
REMARK  Name = 
REMARK  7 active torsions:
REMARK  status: ('A' for Active; 'I' for Inactive)
REMARK    1  A    between atoms: C_1  and  O_2
REMARK    2  A    between atoms: O_2  and  C_3
REMARK    3  A    between atoms: N_5  and  N_6
REMARK    4  A    between atoms: C_7  and  C_8
REMARK    5  A    between atoms: C_10  and  C_11
REMARK    6  A    between atoms: N_12  and  C_13
REMARK    7  A    between atoms: C_20  and  C_21
REMARK                            x       y       z     vdW  Elec       q    Type
REMARK                         _______ _______ _______ _____ _____    ______ ____
ROOT
ATOM      1  C   UNL     1       4.468   4.378  16.648  0.00  0.00    +0.000 A 
ATOM      2  C   UNL     1       3.465   3.577  17.228  0.00  0.00    +0.000 A 
ATOM      3  C   UNL     1       2.651   4.376  18.005  0.00  0.00    +0.000 A 
ATOM      4  C   UNL     1       1.403   3.921  18.683  0.00  0.00    +0.000 C 
ATOM      5  N   UNL     1       3.129   5.691  17.934  0.00  0.00    +0.000 N 
ATOM      6  C   UNL     1       4.287   5.669  17.136  0.00  0.00    +0.000 A 
ATOM      7  C   UNL     1       5.216   6.819  16.908  0.00  0.00    +0.000 C 
ENDROOT
BRANCH   5   8
ATOM      8  C   UNL     1       2.521   6.847  18.537  0.00  0.00    +0.000 A 
ATOM      9  C   UNL     1       2.157   7.960  17.762  0.00  0.00    +0.000 A 
ATOM     10  C   UNL     1       1.594   9.094  18.357  0.00  0.00    +0.000 A 
ATOM     11  C   UNL     1       1.354   9.105  19.722  0.00  0.00    +0.000 A 
ATOM     12  F   UNL     1       0.793  10.182  20.288  0.00  0.00    +0.000 F 
ATOM     13  C   UNL     1       1.687   8.012  20.508  0.00  0.00    +0.000 A 
ATOM     14  C   UNL     1       2.293   6.895  19.921  0.00  0.00    +0.000 A 
ENDBRANCH   5   8
BRANCH   1  16
ATOM     15  N   UNL     1       5.299   4.067  14.461  0.00  0.00    +0.000 NA
ATOM     16  C   UNL     1       5.509   3.954  15.730  0.00  0.00    +0.000 C 
BRANCH  15  19
ATOM     17  C   UNL     1       6.096   3.327  12.341  0.00  0.00    +0.000 C 
ATOM     18  O   UNL     1       5.005   3.261  11.784  0.00  0.00    +0.000 OA
ATOM     19  N   UNL     1       6.326   3.690  13.646  0.00  0.00    +0.000 N 
ATOM     20  H   UNL     1       7.288   3.711  13.960  0.00  0.00    +0.000 HD
BRANCH  17  22
ATOM     21  C   UNL     1       7.283   1.797  11.048  0.00  0.00    +0.000 C 
ATOM     22  O   UNL     1       7.280   3.046  11.737  0.00  0.00    +0.000 OA
ENDBRANCH  17  22
ENDBRANCH  15  19
ENDBRANCH   1  16
TORSDOF 4
ENDMDL
MODEL 3
REMARK VINA RESULT:      -7.2      5.767      8.801
REMARK  Name = 
REMARK  7 active torsions:
REMARK  status: ('A' for Active; 'I' for Inactive)
REMARK    1  A    between atoms: C_1  and  O_2
REMARK    2  A    between atoms: O_2  and  C_3
REMARK    3  A    between atoms: N_5  and  N_6
REMARK    4  A    between atoms: C_7  and  C_8
REMARK    5  A    between atoms: C_10  and  C_11
REMARK    6  A    between atoms: N_12  and  C_13
REMARK    7  A    between atoms: C_20  and  C_21
REMARK                            x       y       z     vdW  Elec       q    Type
REMARK                         _______ _______ _______ _____ _____    ______ ____
ROOT
ATOM      1  C   UNL     1       1.787   7.075  20.214  0.00  0.00    +0.000 A 
ATOM      2  C   UNL     1       1.792   5.809  20.830  0.00  0.00    +0.000 A 
ATOM      3  C   UNL     1       2.688   4.996  20.167  0.00  0.00    +0.000 A 
ATOM      4  C   UNL     1       3.070   3.618  20.594  0.00  0.00    +0.000 C 
ATOM      5  N   UNL     1       3.257   5.730  19.119  0.00  0.00    +0.000 N 
ATOM      6  C   UNL     1       2.650   6.999  19.125  0.00  0.00    +0.000 A 
ATOM      7  C   UNL     1       2.837   8.065  18.092  0.00  0.00    +0.000 C 
ENDROOT
BRANCH   5   8
ATOM      8  C   UNL     1       4.296   5.278  18.233  0.00  0.00    +0.000 A 
ATOM      9  C   UNL     1       5.650   5.498  18.533  0.00  0.00    +0.000 A 
ATOM     10  C   UNL     1       6.656   5.083  17.653  0.00  0.00    +0.000 A 
ATOM     11  C   UNL     1       6.315   4.411  16.490  0.00  0.00    +0.000 A 
ATOM     12  F   UNL     1       7.279   3.993  15.659  0.00  0.00    +0.000 F 
ATOM     13  C   UNL     1       4.986   4.165  16.178  0.00  0.00    +0.000 A 
ATOM     14  C   UNL     1       3.977   4.620  17.035  0.00  0.00    +0.000 A 
ENDBRANCH   5   8
BRANCH   1  16
ATOM     15  N   UNL     1       0.153   8.119  21.560  0.00  0.00    +0.000 NA
ATOM     16  C   UNL     1       1.022   8.242  20.614  0.00  0.00    +0.000 C 
BRANCH  15  19
ATOM     17  C   UNL     1      -0.235   9.885  23.112  0.00  0.00    +0.000 C 
ATOM     18  O   UNL     1       0.558   9.510  23.969  0.00  0.00    +0.000 OA
ATOM     19  N   UNL     1      -0.508   9.257  21.921  0.00  0.00    +0.000 N 
ATOM     20  H   UNL     1      -1.181   9.698  21.307  0.00  0.00    +0.000 HD
BRANCH  17  22
ATOM     21  C   UNL     1      -0.578  12.043  22.309  0.00  0.00    +0.000 C 
ATOM     22  O   UNL     1      -0.986  11.014  23.208  0.00  0.00    +0.000 OA
ENDBRANCH  17  22
ENDBRANCH  15  19
ENDBRANCH   1  16
TORSDOF 4
ENDMDL
MODEL 4
REMARK VINA RESULT:      -7.1      4.832      6.741
REMARK  Name = 
REMARK  7 active torsions:
REMARK  status: ('A' for Active; 'I' for Inactive)
REMARK    1  A    between atoms: C_1  and  O_2
REMARK    2  A    between atoms: O_2  and  C_3
REMARK    3  A    between atoms: N_5  and  N_6
REMARK    4  A    between atoms: C_7  and  C_8
REMARK    5  A    between atoms: C_10  and  C_11
REMARK    6  A    between atoms: N_12  and  C_13
REMARK    7  A    between atoms: C_20  and  C_21
REMARK                            x       y       z     vdW  Elec       q    Type
REMARK                         _______ _______ _______ _____ _____    ______ ____
ROOT
ATOM      1  C   UNL     1       6.945   6.238  17.539  0.00  0.00    +0.000 A 
ATOM      2  C   UNL     1       6.813   5.903  16.177  0.00  0.00    +0.000 A 
ATOM      3  C   UNL     1       5.722   5.071  16.027  0.00  0.00    +0.000 A 
ATOM      4  C   UNL     1       5.179   4.599  14.720  0.00  0.00    +0.000 C 
ATOM      5  N   UNL     1       5.152   4.861  17.289  0.00  0.00    +0.000 N 
ATOM      6  C   UNL     1       5.952   5.544  18.224  0.00  0.00    +0.000 A 
ATOM      7  C   UNL     1       5.811   5.479  19.712  0.00  0.00    +0.000 C 
ENDROOT
BRANCH   5   8
ATOM      8  C   UNL     1       3.952   4.118  17.565  0.00  0.00    +0.000 A 
ATOM      9  C   UNL     1       2.713   4.766  17.694  0.00  0.00    +0.000 A 
ATOM     10  C   UNL     1       1.553   4.042  17.993  0.00  0.00    +0.000 A 
ATOM     11  C   UNL     1       1.619   2.664  18.122  0.00  0.00    +0.000 A 
ATOM     12  F   UNL     1       0.505   1.968  18.384  0.00  0.00    +0.000 F 
ATOM     13  C   UNL     1       2.828   1.997  17.982  0.00  0.00    +0.000 A 
ATOM     14  C   UNL     1       3.996   2.725  17.729  0.00  0.00    +0.000 A 
ENDBRANCH   5   8
BRANCH   1  16
ATOM     15  N   UNL     1       7.862   8.385  17.880  0.00  0.00    +0.000 NA
ATOM     16  C   UNL     1       7.931   7.121  18.133  0.00  0.00    +0.000 C 
BRANCH  15  19
ATOM     17  C   UNL     1       8.828  10.528  18.275  0.00  0.00    +0.000 C 
ATOM     18  O   UNL     1       8.105  11.162  17.514  0.00  0.00    +0.000 OA
ATOM     19  N   UNL     1       8.791   9.173  18.497  0.00  0.00    +0.000 N 
ATOM     20  H   UNL     1       9.446   8.794  19.169  0.00  0.00    +0.000 HD
BRANCH  17  22
ATOM     21  C   UNL     1       9.500  11.078  20.435  0.00  0.00    +0.000 C 
ATOM     22  O   UNL     1       9.803  11.083  19.041  0.00  0.00    +0.000 OA
ENDBRANCH  17  22
ENDBRANCH  15  19
ENDBRANCH   1  16
TORSDOF 4
ENDMDL
MODEL 5
REMARK VINA RESULT:      -7.1      4.825      6.608
REMARK  Name = 
REMARK  7 active torsions:
REMARK  status: ('A' for Active; 'I' for Inactive)
REMARK    1  A    between atoms: C_1  and  O_2
REMARK    2  A    between atoms: O_2  and  C_3
REMARK    3  A    between atoms: N_5  and  N_6
REMARK    4  A    between atoms: C_7  and  C_8
REMARK    5  A    between atoms: C_10  and  C_11
REMARK    6  A    between atoms: N_12  and  C_13
REMARK    7  A    between atoms: C_20  and  C_21
REMARK                            x       y       z     vdW  Elec       q    Type
REMARK                         _______ _______ _______ _____ _____    ______ ____
ROOT
ATOM      1  C   UNL     1       6.964   6.082  17.458  0.00  0.00    +0.000 A 
ATOM      2  C   UNL     1       6.802   5.722  16.105  0.00  0.00    +0.000 A 
ATOM      3  C   UNL     1       5.689   4.914  15.990  0.00  0.00    +0.000 A 
ATOM      4  C   UNL     1       5.115   4.429  14.702  0.00  0.00    +0.000 C 
ATOM      5  N   UNL     1       5.135   4.745  17.265  0.00  0.00    +0.000 N 
ATOM      6  C   UNL     1       5.965   5.428  18.173  0.00  0.00    +0.000 A 
ATOM      7  C   UNL     1       5.846   5.397  19.663  0.00  0.00    +0.000 C 
ENDROOT
BRANCH   5   8
ATOM      8  C   UNL     1       3.921   4.037  17.575  0.00  0.00    +0.000 A 
ATOM      9  C   UNL     1       3.919   2.642  17.737  0.00  0.00    +0.000 A 
ATOM     10  C   UNL     1       2.730   1.954  18.007  0.00  0.00    +0.000 A 
ATOM     11  C   UNL     1       1.548   2.661  18.157  0.00  0.00    +0.000 A 
ATOM     12  F   UNL     1       0.414   2.006  18.440  0.00  0.00    +0.000 F 
ATOM     13  C   UNL     1       1.526   4.042  18.020  0.00  0.00    +0.000 A 
ATOM     14  C   UNL     1       2.705   4.726  17.704  0.00  0.00    +0.000 A 
ENDBRANCH   5   8
BRANCH   1  16
ATOM     15  N   UNL     1       7.827   8.231  17.913  0.00  0.00    +0.000 NA
ATOM     16  C   UNL     1       7.980   6.954  18.018  0.00  0.00    +0.000 C 
BRANCH  15  19
ATOM     17  C   UNL     1       8.843  10.357  18.271  0.00  0.00    +0.000 C 
ATOM     18  O   UNL     1       8.099  11.005  17.542  0.00  0.00    +0.000 OA
ATOM     19  N   UNL     1       8.793   9.002  18.493  0.00  0.00    +0.000 N 
ATOM     20  H   UNL     1       9.469   8.611  19.136  0.00  0.00    +0.000 HD
BRANCH  17  22
ATOM     21  C   UNL     1      10.571  11.917  18.304  0.00  0.00    +0.000 C 
ATOM     22  O   UNL     1       9.858  10.894  18.997  0.00  0.00    +0.000 OA
ENDBRANCH  17  22
ENDBRANCH  15  19
ENDBRANCH   1  16
TORSDOF 4
ENDMDL
MODEL 6
REMARK VINA RESULT:      -7.1      5.407      8.414
REMARK  Name = 
REMARK  7 active torsions:
REMARK  status: ('A' for Active; 'I' for Inactive)
REMARK    1  A    between atoms: C_1  and  O_2
REMARK    2  A    between atoms: O_2  and  C_3
REMARK    3  A    between atoms: N_5  and  N_6
REMARK    4  A    between atoms: C_7  and  C_8
REMARK    5  A    between atoms: C_10  and  C_11
REMARK    6  A    between atoms: N_12  and  C_13
REMARK    7  A    between atoms: C_20  and  C_21
REMARK                            x       y       z     vdW  Elec       q    Type
REMARK                         _______ _______ _______ _____ _____    ______ ____
ROOT
ATOM      1  C   UNL     1       2.209   5.643  20.095  0.00  0.00    +0.000 A 
ATOM      2  C   UNL     1       2.665   4.372  20.496  0.00  0.00    +0.000 A 
ATOM      3  C   UNL     1       3.650   3.957  19.624  0.00  0.00    +0.000 A 
ATOM      4  C   UNL     1       4.466   2.718  19.783  0.00  0.00    +0.000 C 
ATOM      5  N   UNL     1       3.828   4.952  18.655  0.00  0.00    +0.000 N 
ATOM      6  C   UNL     1       2.891   5.967  18.926  0.00  0.00    +0.000 A 
ATOM      7  C   UNL     1       2.615   7.158  18.064  0.00  0.00    +0.000 C 
ENDROOT
BRANCH   5   8
ATOM      8  C   UNL     1       4.813   4.949  17.606  0.00  0.00    +0.000 A 
ATOM      9  C   UNL     1       4.570   4.295  16.388  0.00  0.00    +0.000 A 
ATOM     10  C   UNL     1       5.543   4.267  15.383  0.00  0.00    +0.000 A 
ATOM     11  C   UNL     1       6.746   4.929  15.575  0.00  0.00    +0.000 A 
ATOM     12  F   UNL     1       7.669   4.924  14.603  0.00  0.00    +0.000 F 
ATOM     13  C   UNL     1       7.004   5.598  16.762  0.00  0.00    +0.000 A 
ATOM     14  C   UNL     1       6.050   5.587  17.786  0.00  0.00    +0.000 A 
ENDBRANCH   5   8
BRANCH   1  16
ATOM     15  N   UNL     1       1.463   7.717  20.937  0.00  0.00    +0.000 NA
ATOM     16  C   UNL     1       1.210   6.465  20.753  0.00  0.00    +0.000 C 
BRANCH  15  19
ATOM     17  C   UNL     1       0.749   9.314  22.556  0.00  0.00    +0.000 C 
ATOM     18  O   UNL     1       1.844   9.502  23.076  0.00  0.00    +0.000 OA
ATOM     19  N   UNL     1       0.472   8.449  21.525  0.00  0.00    +0.000 N 
ATOM     20  H   UNL     1      -0.483   8.415  21.192  0.00  0.00    +0.000 HD
BRANCH  17  22
ATOM     21  C   UNL     1      -0.567  11.215  22.286  0.00  0.00    +0.000 C 
ATOM     22  O   UNL     1      -0.392   9.953  22.926  0.00  0.00    +0.000 OA
ENDBRANCH  17  22
ENDBRANCH  15  19
ENDBRANCH   1  16
TORSDOF 4
ENDMDL
MODEL 7
REMARK VINA RESULT:      -7.0      2.328      3.611
REMARK  Name = 
REMARK  7 active torsions:
REMARK  status: ('A' for Active; 'I' for Inactive)
REMARK    1  A    between atoms: C_1  and  O_2
REMARK    2  A    between atoms: O_2  and  C_3
REMARK    3  A    between atoms: N_5  and  N_6
REMARK    4  A    between atoms: C_7  and  C_8
REMARK    5  A    between atoms: C_10  and  C_11
REMARK    6  A    between atoms: N_12  and  C_13
REMARK    7  A    between atoms: C_20  and  C_21
REMARK                            x       y       z     vdW  Elec       q    Type
REMARK                         _______ _______ _______ _____ _____    ______ ____
ROOT
ATOM      1  C   UNL     1       4.925   4.526  16.547  0.00  0.00    +0.000 A 
ATOM      2  C   UNL     1       4.482   5.817  16.892  0.00  0.00    +0.000 A 
ATOM      3  C   UNL     1       3.615   5.718  17.962  0.00  0.00    +0.000 A 
ATOM      4  C   UNL     1       3.030   6.877  18.698  0.00  0.00    +0.000 C 
ATOM      5  N   UNL     1       3.492   4.366  18.304  0.00  0.00    +0.000 N 
ATOM      6  C   UNL     1       4.264   3.633  17.385  0.00  0.00    +0.000 A 
ATOM      7  C   UNL     1       4.312   2.142  17.273  0.00  0.00    +0.000 C 
ENDROOT
BRANCH   5   8
ATOM      8  C   UNL     1       2.744   3.837  19.414  0.00  0.00    +0.000 A 
ATOM      9  C   UNL     1       3.395   3.342  20.555  0.00  0.00    +0.000 A 
ATOM     10  C   UNL     1       2.665   2.800  21.619  0.00  0.00    +0.000 A 
ATOM     11  C   UNL     1       1.280   2.790  21.564  0.00  0.00    +0.000 A 
ATOM     12  F   UNL     1       0.579   2.293  22.593  0.00  0.00    +0.000 F 
ATOM     13  C   UNL     1       0.611   3.290  20.456  0.00  0.00    +0.000 A 
ATOM     14  C   UNL     1       1.342   3.789  19.372  0.00  0.00    +0.000 A 
ENDBRANCH   5   8
BRANCH   1  16
ATOM     15  N   UNL     1       5.431   3.906  14.327  0.00  0.00    +0.000 NA
ATOM     16  C   UNL     1       5.876   4.173  15.508  0.00  0.00    +0.000 C 
BRANCH  15  19
ATOM     17  C   UNL     1       6.006   3.243  12.111  0.00  0.00    +0.000 C 
ATOM     18  O   UNL     1       4.862   3.089  11.697  0.00  0.00    +0.000 OA
ATOM     19  N   UNL     1       6.372   3.619  13.381  0.00  0.00    +0.000 N 
ATOM     20  H   UNL     1       7.361   3.719  13.569  0.00  0.00    +0.000 HD
BRANCH  17  22
ATOM     21  C   UNL     1       7.352   1.705  10.996  0.00  0.00    +0.000 C 
ATOM     22  O   UNL     1       7.122   3.066  11.355  0.00  0.00    +0.000 OA
ENDBRANCH  17  22
ENDBRANCH  15  19
ENDBRANCH   1  16
TORSDOF 4
ENDMDL
MODEL 8
REMARK VINA RESULT:      -7.0      2.652      3.818
REMARK  Name = 
REMARK  7 active torsions:
REMARK  status: ('A' for Active; 'I' for Inactive)
REMARK    1  A    between atoms: C_1  and  O_2
REMARK    2  A    between atoms: O_2  and  C_3
REMARK    3  A    between atoms: N_5  and  N_6
REMARK    4  A    between atoms: C_7  and  C_8
REMARK    5  A    between atoms: C_10  and  C_11
REMARK    6  A    between atoms: N_12  and  C_13
REMARK    7  A    between atoms: C_20  and  C_21
REMARK                            x       y       z     vdW  Elec       q    Type
REMARK                         _______ _______ _______ _____ _____    ______ ____
ROOT
ATOM      1  C   UNL     1       4.351   6.176  16.725  0.00  0.00    +0.000 A 
ATOM      2  C   UNL     1       3.757   7.289  17.351  0.00  0.00    +0.000 A 
ATOM      3  C   UNL     1       2.980   6.846  18.402  0.00  0.00    +0.000 A 
ATOM      4  C   UNL     1       2.287   7.728  19.385  0.00  0.00    +0.000 C 
ATOM      5  N   UNL     1       3.065   5.449  18.453  0.00  0.00    +0.000 N 
ATOM      6  C   UNL     1       3.873   5.042  17.375  0.00  0.00    +0.000 A 
ATOM      7  C   UNL     1       4.118   3.630  16.947  0.00  0.00    +0.000 C 
ENDROOT
BRANCH   5   8
ATOM      8  C   UNL     1       2.467   4.598  19.448  0.00  0.00    +0.000 A 
ATOM      9  C   UNL     1       3.026   4.483  20.731  0.00  0.00    +0.000 A 
ATOM     10  C   UNL     1       2.458   3.631  21.685  0.00  0.00    +0.000 A 
ATOM     11  C   UNL     1       1.307   2.924  21.375  0.00  0.00    +0.000 A 
ATOM     12  F   UNL     1       0.750   2.127  22.297  0.00  0.00    +0.000 F 
ATOM     13  C   UNL     1       0.725   3.034  20.121  0.00  0.00    +0.000 A 
ATOM     14  C   UNL     1       1.317   3.850  19.150  0.00  0.00    +0.000 A 
ENDBRANCH   5   8
BRANCH   1  16
ATOM     15  N   UNL     1       6.372   5.516  15.701  0.00  0.00    +0.000 NA
ATOM     16  C   UNL     1       5.275   6.189  15.606  0.00  0.00    +0.000 C 
BRANCH  15  19
ATOM     17  C   UNL     1       7.011   4.630  13.583  0.00  0.00    +0.000 C 
ATOM     18  O   UNL     1       6.183   3.725  13.541  0.00  0.00    +0.000 OA
ATOM     19  N   UNL     1       7.184   5.532  14.603  0.00  0.00    +0.000 N 
ATOM     20  H   UNL     1       7.903   6.234  14.486  0.00  0.00    +0.000 HD
BRANCH  17  22
ATOM     21  C   UNL     1       8.783   5.974  12.897  0.00  0.00    +0.000 C 
ATOM     22  O   UNL     1       7.907   4.889  12.595  0.00  0.00    +0.000 OA
ENDBRANCH  17  22
ENDBRANCH  15  19
ENDBRANCH   1  16
TORSDOF 4
ENDMDL
MODEL 9
REMARK VINA RESULT:      -7.0      5.406      8.381
REMARK  Name = 
REMARK  7 active torsions:
REMARK  status: ('A' for Active; 'I' for Inactive)
REMARK    1  A    between atoms: C_1  and  O_2
REMARK    2  A    between atoms: O_2  and  C_3
REMARK    3  A    between atoms: N_5  and  N_6
REMARK    4  A    between atoms: C_7  and  C_8
REMARK    5  A    between atoms: C_10  and  C_11
REMARK    6  A    between atoms: N_12  and  C_13
REMARK    7  A    between atoms: C_20  and  C_21
REMARK                            x       y       z     vdW  Elec       q    Type
REMARK                         _______ _______ _______ _____ _____    ______ ____
ROOT
ATOM      1  C   UNL     1       2.288   5.965  20.127  0.00  0.00    +0.000 A 
ATOM      2  C   UNL     1       2.649   4.655  20.499  0.00  0.00    +0.000 A 
ATOM      3  C   UNL     1       3.584   4.180  19.602  0.00  0.00    +0.000 A 
ATOM      4  C   UNL     1       4.303   2.878  19.726  0.00  0.00    +0.000 C 
ATOM      5  N   UNL     1       3.823   5.176  18.647  0.00  0.00    +0.000 N 
ATOM      6  C   UNL     1       2.973   6.255  18.951  0.00  0.00    +0.000 A 
ATOM      7  C   UNL     1       2.777   7.479  18.114  0.00  0.00    +0.000 C 
ENDROOT
BRANCH   5   8
ATOM      8  C   UNL     1       4.788   5.114  17.581  0.00  0.00    +0.000 A 
ATOM      9  C   UNL     1       6.009   5.801  17.670  0.00  0.00    +0.000 A 
ATOM     10  C   UNL     1       6.930   5.764  16.617  0.00  0.00    +0.000 A 
ATOM     11  C   UNL     1       6.653   5.006  15.490  0.00  0.00    +0.000 A 
ATOM     12  F   UNL     1       7.546   4.950  14.493  0.00  0.00    +0.000 F 
ATOM     13  C   UNL     1       5.462   4.303  15.385  0.00  0.00    +0.000 A 
ATOM     14  C   UNL     1       4.519   4.377  16.417  0.00  0.00    +0.000 A 
ENDBRANCH   5   8
BRANCH   1  16
ATOM     15  N   UNL     1       1.611   8.118  20.817  0.00  0.00    +0.000 NA
ATOM     16  C   UNL     1       1.367   6.850  20.816  0.00  0.00    +0.000 C 
BRANCH  15  19
ATOM     17  C   UNL     1       0.980   9.507  22.647  0.00  0.00    +0.000 C 
ATOM     18  O   UNL     1       2.019   9.392  23.289  0.00  0.00    +0.000 OA
ATOM     19  N   UNL     1       0.691   8.906  21.446  0.00  0.00    +0.000 N 
ATOM     20  H   UNL     1      -0.208   9.109  21.029  0.00  0.00    +0.000 HD
BRANCH  17  22
ATOM     21  C   UNL     1      -0.534  11.159  22.014  0.00  0.00    +0.000 C 
ATOM     22  O   UNL     1      -0.076  10.271  23.032  0.00  0.00    +0.000 OA
ENDBRANCH  17  22
ENDBRANCH  15  19
ENDBRANCH   1  16
TORSDOF 4
ENDMDL
