MODEL 1
REMARK VINA RESULT:      -7.9      0.000      0.000
REMARK  Name = 
REMARK  5 active torsions:
REMARK  status: ('A' for Active; 'I' for Inactive)
REMARK    1  A    between atoms: C_1  and  C_2
REMARK    2  A    between atoms: C_6  and  N_7
REMARK    3  A    between atoms: C_8  and  C_10
REMARK    4  A    between atoms: C_12  and  O_13
REMARK    5  A    between atoms: O_13  and  C_14
REMARK                            x       y       z     vdW  Elec       q    Type
REMARK                         _______ _______ _______ _____ _____    ______ ____
ROOT
ATOM      1  C   UNL     1       2.931   5.766  19.723  0.00  0.00    +0.000 A 
ATOM      2  C   UNL     1       4.224   5.664  19.224  0.00  0.00    +0.000 A 
ATOM      3  C   UNL     1       4.797   4.402  19.137  0.00  0.00    +0.000 A 
ATOM      4  C   UNL     1       4.097   3.302  19.622  0.00  0.00    +0.000 A 
ATOM      5  C   UNL     1       2.815   3.502  20.120  0.00  0.00    +0.000 A 
ATOM      6  N   UNL     1       2.201   4.707  20.173  0.00  0.00    +0.000 NA
ENDROOT
BRANCH   1   8
ATOM      7  N   UNL     1       1.588   7.374  20.934  0.00  0.00    +0.000 N 
ATOM      8  C   UNL     1       2.290   7.115  19.773  0.00  0.00    +0.000 C 
ATOM      9  O   UNL     1       2.431   7.856  18.807  0.00  0.00    +0.000 OA
ATOM     10  H   UNL     1       1.554   6.626  21.618  0.00  0.00    +0.000 HD
BRANCH   7  16
ATOM     11  C   UNL     1      -0.990  11.133  19.423  0.00  0.00    +0.000 C 
ATOM     12  C   UNL     1      -0.281  10.432  20.535  0.00  0.00    +0.000 A 
ATOM     13  C   UNL     1      -0.202  10.953  21.819  0.00  0.00    +0.000 A 
ATOM     14  N   UNL     1       0.443  10.321  22.824  0.00  0.00    +0.000 NA
ATOM     15  C   UNL     1       1.017   9.138  22.488  0.00  0.00    +0.000 A 
ATOM     16  C   UNL     1       0.957   8.595  21.207  0.00  0.00    +0.000 A 
ATOM     17  N   UNL     1       0.304   9.250  20.229  0.00  0.00    +0.000 NA
ENDBRANCH   7  16
ENDBRANCH   1   8
BRANCH   3  18
ATOM     18  O   UNL     1       6.064   4.167  18.649  0.00  0.00    +0.000 OA
BRANCH  18  19
ATOM     19  C   UNL     1       6.340   4.468  17.343  0.00  0.00    +0.000 A 
ATOM     20  C   UNL     1       5.681   3.783  16.344  0.00  0.00    +0.000 A 
ATOM     21  N   UNL     1       5.891   3.988  15.025  0.00  0.00    +0.000 NA
ATOM     22  C   UNL     1       6.791   4.936  14.720  0.00  0.00    +0.000 A 
ATOM     23  N   UNL     1       7.451   5.705  15.599  0.00  0.00    +0.000 NA
ATOM     24  C   UNL     1       7.193   5.458  16.901  0.00  0.00    +0.000 A 
ENDBRANCH  18  19
ENDBRANCH   3  18
TORSDOF 4
ENDMDL
MODEL 2
REMARK VINA RESULT:      -7.7      1.251      1.981
REMARK  Name = 
REMARK  5 active torsions:
REMARK  status: ('A' for Active; 'I' for Inactive)
REMARK    1  A    between atoms: C_1  and  C_2
REMARK    2  A    between atoms: C_6  and  N_7
REMARK    3  A    between atoms: C_8  and  C_10
REMARK    4  A    between atoms: C_12  and  O_13
REMARK    5  A    between atoms: O_13  and  C_14
REMARK                            x       y       z     vdW  Elec       q    Type
REMARK                         _______ _______ _______ _____ _____    ______ ____
ROOT
ATOM      1  C   UNL     1       2.927   4.702  19.976  0.00  0.00    +0.000 A 
ATOM      2  C   UNL     1       4.152   5.100  19.455  0.00  0.00    +0.000 A 
ATOM      3  C   UNL     1       5.065   4.116  19.097  0.00  0.00    +0.000 A 
ATOM      4  C   UNL     1       4.759   2.782  19.345  0.00  0.00    +0.000 A 
ATOM      5  C   UNL     1       3.516   2.479  19.888  0.00  0.00    +0.000 A 
ATOM      6  N   UNL     1       2.579   3.404  20.200  0.00  0.00    +0.000 NA
ENDROOT
BRANCH   1   8
ATOM      7  N   UNL     1       2.386   7.049  20.207  0.00  0.00    +0.000 N 
ATOM      8  C   UNL     1       1.921   5.753  20.317  0.00  0.00    +0.000 C 
ATOM      9  O   UNL     1       0.802   5.390  20.662  0.00  0.00    +0.000 OA
ATOM     10  H   UNL     1       3.357   7.159  19.934  0.00  0.00    +0.000 HD
BRANCH   7  16
ATOM     11  C   UNL     1      -0.281   9.723  23.173  0.00  0.00    +0.000 C 
ATOM     12  C   UNL     1       0.294   9.510  21.811  0.00  0.00    +0.000 A 
ATOM     13  C   UNL     1       0.055  10.376  20.753  0.00  0.00    +0.000 A 
ATOM     14  N   UNL     1       0.572  10.181  19.520  0.00  0.00    +0.000 NA
ATOM     15  C   UNL     1       1.341   9.070  19.385  0.00  0.00    +0.000 A 
ATOM     16  C   UNL     1       1.593   8.183  20.428  0.00  0.00    +0.000 A 
ATOM     17  N   UNL     1       1.063   8.409  21.645  0.00  0.00    +0.000 NA
ENDBRANCH   7  16
ENDBRANCH   1   8
BRANCH   3  18
ATOM     18  O   UNL     1       6.305   4.380  18.558  0.00  0.00    +0.000 OA
BRANCH  18  19
ATOM     19  C   UNL     1       6.425   4.514  17.202  0.00  0.00    +0.000 A 
ATOM     20  C   UNL     1       7.217   5.523  16.696  0.00  0.00    +0.000 A 
ATOM     21  N   UNL     1       7.390   5.757  15.376  0.00  0.00    +0.000 NA
ATOM     22  C   UNL     1       6.745   4.920  14.549  0.00  0.00    +0.000 A 
ATOM     23  N   UNL     1       5.995   3.871  14.919  0.00  0.00    +0.000 NA
ATOM     24  C   UNL     1       5.866   3.685  16.250  0.00  0.00    +0.000 A 
ENDBRANCH  18  19
ENDBRANCH   3  18
TORSDOF 4
ENDMDL
MODEL 3
REMARK VINA RESULT:      -7.6      1.779      2.500
REMARK  Name = 
REMARK  5 active torsions:
REMARK  status: ('A' for Active; 'I' for Inactive)
REMARK    1  A    between atoms: C_1  and  C_2
REMARK    2  A    between atoms: C_6  and  N_7
REMARK    3  A    between atoms: C_8  and  C_10
REMARK    4  A    between atoms: C_12  and  O_13
REMARK    5  A    between atoms: O_13  and  C_14
REMARK                            x       y       z     vdW  Elec       q    Type
REMARK                         _______ _______ _______ _____ _____    ______ ____
ROOT
ATOM      1  C   UNL     1       2.876   4.625  19.673  0.00  0.00    +0.000 A 
ATOM      2  C   UNL     1       4.216   4.947  19.492  0.00  0.00    +0.000 A 
ATOM      3  C   UNL     1       5.061   3.973  18.974  0.00  0.00    +0.000 A 
ATOM      4  C   UNL     1       4.561   2.697  18.733  0.00  0.00    +0.000 A 
ATOM      5  C   UNL     1       3.211   2.463  18.961  0.00  0.00    +0.000 A 
ATOM      6  N   UNL     1       2.344   3.398  19.414  0.00  0.00    +0.000 NA
ENDROOT
BRANCH   1   8
ATOM      7  N   UNL     1       2.381   6.977  19.959  0.00  0.00    +0.000 N 
ATOM      8  C   UNL     1       1.952   5.683  20.183  0.00  0.00    +0.000 C 
ATOM      9  O   UNL     1       0.923   5.327  20.746  0.00  0.00    +0.000 OA
ATOM     10  H   UNL     1       3.280   7.082  19.501  0.00  0.00    +0.000 HD
BRANCH   7  16
ATOM     11  C   UNL     1      -0.021   9.500  23.265  0.00  0.00    +0.000 C 
ATOM     12  C   UNL     1       0.470   9.372  21.859  0.00  0.00    +0.000 A 
ATOM     13  C   UNL     1       0.203  10.323  20.884  0.00  0.00    +0.000 A 
ATOM     14  N   UNL     1       0.643  10.206  19.612  0.00  0.00    +0.000 NA
ATOM     15  C   UNL     1       1.364   9.085  19.351  0.00  0.00    +0.000 A 
ATOM     16  C   UNL     1       1.642   8.114  20.309  0.00  0.00    +0.000 A 
ATOM     17  N   UNL     1       1.189   8.264  21.568  0.00  0.00    +0.000 NA
ENDBRANCH   7  16
ENDBRANCH   1   8
BRANCH   3  18
ATOM     18  O   UNL     1       6.403   4.171  18.736  0.00  0.00    +0.000 OA
BRANCH  18  19
ATOM     19  C   UNL     1       6.825   5.389  18.279  0.00  0.00    +0.000 A 
ATOM     20  C   UNL     1       7.795   6.070  18.984  0.00  0.00    +0.000 A 
ATOM     21  N   UNL     1       8.268   7.286  18.633  0.00  0.00    +0.000 NA
ATOM     22  C   UNL     1       7.745   7.812  17.515  0.00  0.00    +0.000 A 
ATOM     23  N   UNL     1       6.841   7.224  16.717  0.00  0.00    +0.000 NA
ATOM     24  C   UNL     1       6.412   6.008  17.116  0.00  0.00    +0.000 A 
ENDBRANCH  18  19
ENDBRANCH   3  18
TORSDOF 4
ENDMDL
MODEL 4
REMARK VINA RESULT:      -7.6      1.056      1.444
REMARK  Name = 
REMARK  5 active torsions:
REMARK  status: ('A' for Active; 'I' for Inactive)
REMARK    1  A    between atoms: C_1  and  C_2
REMARK    2  A    between atoms: C_6  and  N_7
REMARK    3  A    between atoms: C_8  and  C_10
REMARK    4  A    between atoms: C_12  and  O_13
REMARK    5  A    between atoms: O_13  and  C_14
REMARK                            x       y       z     vdW  Elec       q    Type
REMARK                         _______ _______ _______ _____ _____    ______ ____
ROOT
ATOM      1  C   UNL     1       2.787   4.805  20.150  0.00  0.00    +0.000 A 
ATOM      2  C   UNL     1       4.006   5.145  19.576  0.00  0.00    +0.000 A 
ATOM      3  C   UNL     1       4.894   4.123  19.267  0.00  0.00    +0.000 A 
ATOM      4  C   UNL     1       4.573   2.814  19.615  0.00  0.00    +0.000 A 
ATOM      5  C   UNL     1       3.339   2.571  20.204  0.00  0.00    +0.000 A 
ATOM      6  N   UNL     1       2.423   3.532  20.471  0.00  0.00    +0.000 NA
ENDROOT
BRANCH   1   8
ATOM      7  N   UNL     1       2.352   7.163  20.476  0.00  0.00    +0.000 N 
ATOM      8  C   UNL     1       1.806   5.894  20.439  0.00  0.00    +0.000 C 
ATOM      9  O   UNL     1       0.634   5.582  20.620  0.00  0.00    +0.000 OA
ATOM     10  H   UNL     1       3.353   7.228  20.331  0.00  0.00    +0.000 HD
BRANCH   7  16
ATOM     11  C   UNL     1      -0.149  10.843  18.668  0.00  0.00    +0.000 C 
ATOM     12  C   UNL     1       0.388  10.124  19.863  0.00  0.00    +0.000 A 
ATOM     13  C   UNL     1       0.192  10.579  21.160  0.00  0.00    +0.000 A 
ATOM     14  N   UNL     1       0.680   9.931  22.240  0.00  0.00    +0.000 NA
ATOM     15  C   UNL     1       1.385   8.803  21.969  0.00  0.00    +0.000 A 
ATOM     16  C   UNL     1       1.600   8.329  20.677  0.00  0.00    +0.000 A 
ATOM     17  N   UNL     1       1.098   8.998  19.623  0.00  0.00    +0.000 NA
ENDBRANCH   7  16
ENDBRANCH   1   8
BRANCH   3  18
ATOM     18  O   UNL     1       6.125   4.327  18.684  0.00  0.00    +0.000 OA
BRANCH  18  19
ATOM     19  C   UNL     1       6.196   4.523  17.332  0.00  0.00    +0.000 A 
ATOM     20  C   UNL     1       7.175   5.353  16.826  0.00  0.00    +0.000 A 
ATOM     21  N   UNL     1       7.322   5.631  15.512  0.00  0.00    +0.000 NA
ATOM     22  C   UNL     1       6.451   5.027  14.689  0.00  0.00    +0.000 A 
ATOM     23  N   UNL     1       5.496   4.159  15.055  0.00  0.00    +0.000 NA
ATOM     24  C   UNL     1       5.403   3.916  16.380  0.00  0.00    +0.000 A 
ENDBRANCH  18  19
ENDBRANCH   3  18
TORSDOF 4
ENDMDL
MODEL 5
REMARK VINA RESULT:      -7.4      1.767      2.343
REMARK  Name = 
REMARK  5 active torsions:
REMARK  status: ('A' for Active; 'I' for Inactive)
REMARK    1  A    between atoms: C_1  and  C_2
REMARK    2  A    between atoms: C_6  and  N_7
REMARK    3  A    between atoms: C_8  and  C_10
REMARK    4  A    between atoms: C_12  and  O_13
REMARK    5  A    between atoms: O_13  and  C_14
REMARK                            x       y       z     vdW  Elec       q    Type
REMARK                         _______ _______ _______ _____ _____    ______ ____
ROOT
ATOM      1  C   UNL     1       2.913   4.525  19.850  0.00  0.00    +0.000 A 
ATOM      2  C   UNL     1       4.225   4.861  19.537  0.00  0.00    +0.000 A 
ATOM      3  C   UNL     1       5.084   3.847  19.132  0.00  0.00    +0.000 A 
ATOM      4  C   UNL     1       4.632   2.531  19.133  0.00  0.00    +0.000 A 
ATOM      5  C   UNL     1       3.308   2.288  19.480  0.00  0.00    +0.000 A 
ATOM      6  N   UNL     1       2.425   3.253  19.827  0.00  0.00    +0.000 NA
ENDROOT
BRANCH   1   8
ATOM      7  N   UNL     1       2.472   6.893  20.073  0.00  0.00    +0.000 N 
ATOM      8  C   UNL     1       1.970   5.617  20.238  0.00  0.00    +0.000 C 
ATOM      9  O   UNL     1       0.865   5.301  20.664  0.00  0.00    +0.000 OA
ATOM     10  H   UNL     1       3.425   6.964  19.734  0.00  0.00    +0.000 HD
BRANCH   7  16
ATOM     11  C   UNL     1      -0.021   9.636  23.127  0.00  0.00    +0.000 C 
ATOM     12  C   UNL     1       0.522   9.420  21.751  0.00  0.00    +0.000 A 
ATOM     13  C   UNL     1       0.306  10.314  20.712  0.00  0.00    +0.000 A 
ATOM     14  N   UNL     1       0.794  10.117  19.468  0.00  0.00    +0.000 NA
ATOM     15  C   UNL     1       1.508   8.974  19.301  0.00  0.00    +0.000 A 
ATOM     16  C   UNL     1       1.735   8.059  20.326  0.00  0.00    +0.000 A 
ATOM     17  N   UNL     1       1.236   8.288  21.555  0.00  0.00    +0.000 NA
ENDBRANCH   7  16
ENDBRANCH   1   8
BRANCH   3  18
ATOM     18  O   UNL     1       6.400   4.052  18.782  0.00  0.00    +0.000 OA
BRANCH  18  19
ATOM     19  C   UNL     1       6.791   5.294  18.364  0.00  0.00    +0.000 A 
ATOM     20  C   UNL     1       6.176   5.855  17.264  0.00  0.00    +0.000 A 
ATOM     21  N   UNL     1       6.498   7.064  16.755  0.00  0.00    +0.000 NA
ATOM     22  C   UNL     1       7.466   7.729  17.404  0.00  0.00    +0.000 A 
ATOM     23  N   UNL     1       8.097   7.314  18.514  0.00  0.00    +0.000 NA
ATOM     24  C   UNL     1       7.727   6.102  18.978  0.00  0.00    +0.000 A 
ENDBRANCH  18  19
ENDBRANCH   3  18
TORSDOF 4
ENDMDL
MODEL 6
REMARK VINA RESULT:      -7.4      1.681      2.098
REMARK  Name = 
REMARK  5 active torsions:
REMARK  status: ('A' for Active; 'I' for Inactive)
REMARK    1  A    between atoms: C_1  and  C_2
REMARK    2  A    between atoms: C_6  and  N_7
REMARK    3  A    between atoms: C_8  and  C_10
REMARK    4  A    between atoms: C_12  and  O_13
REMARK    5  A    between atoms: O_13  and  C_14
REMARK                            x       y       z     vdW  Elec       q    Type
REMARK                         _______ _______ _______ _____ _____    ______ ____
ROOT
ATOM      1  C   UNL     1       2.744   4.881  19.579  0.00  0.00    +0.000 A 
ATOM      2  C   UNL     1       4.109   5.123  19.469  0.00  0.00    +0.000 A 
ATOM      3  C   UNL     1       4.896   4.171  18.834  0.00  0.00    +0.000 A 
ATOM      4  C   UNL     1       4.312   2.982  18.406  0.00  0.00    +0.000 A 
ATOM      5  C   UNL     1       2.943   2.820  18.574  0.00  0.00    +0.000 A 
ATOM      6  N   UNL     1       2.133   3.746  19.139  0.00  0.00    +0.000 NA
ENDROOT
BRANCH   1   8
ATOM      7  N   UNL     1       2.303   7.222  20.002  0.00  0.00    +0.000 N 
ATOM      8  C   UNL     1       1.885   5.924  20.216  0.00  0.00    +0.000 C 
ATOM      9  O   UNL     1       0.912   5.552  20.864  0.00  0.00    +0.000 OA
ATOM     10  H   UNL     1       3.154   7.340  19.463  0.00  0.00    +0.000 HD
BRANCH   7  16
ATOM     11  C   UNL     1      -0.293  11.157  19.082  0.00  0.00    +0.000 C 
ATOM     12  C   UNL     1       0.361  10.260  20.083  0.00  0.00    +0.000 A 
ATOM     13  C   UNL     1       0.331  10.512  21.447  0.00  0.00    +0.000 A 
ATOM     14  N   UNL     1       0.926   9.703  22.351  0.00  0.00    +0.000 NA
ATOM     15  C   UNL     1       1.564   8.624  21.830  0.00  0.00    +0.000 A 
ATOM     16  C   UNL     1       1.613   8.350  20.466  0.00  0.00    +0.000 A 
ATOM     17  N   UNL     1       1.007   9.177  19.592  0.00  0.00    +0.000 NA
ENDBRANCH   7  16
ENDBRANCH   1   8
BRANCH   3  18
ATOM     18  O   UNL     1       6.255   4.298  18.650  0.00  0.00    +0.000 OA
BRANCH  18  19
ATOM     19  C   UNL     1       6.761   5.503  18.246  0.00  0.00    +0.000 A 
ATOM     20  C   UNL     1       7.754   6.097  18.995  0.00  0.00    +0.000 A 
ATOM     21  N   UNL     1       8.309   7.293  18.698  0.00  0.00    +0.000 NA
ATOM     22  C   UNL     1       7.845   7.889  17.588  0.00  0.00    +0.000 A 
ATOM     23  N   UNL     1       6.926   7.386  16.751  0.00  0.00    +0.000 NA
ATOM     24  C   UNL     1       6.414   6.185  17.098  0.00  0.00    +0.000 A 
ENDBRANCH  18  19
ENDBRANCH   3  18
TORSDOF 4
ENDMDL
MODEL 7
REMARK VINA RESULT:      -7.3      1.777      7.555
REMARK  Name = 
REMARK  5 active torsions:
REMARK  status: ('A' for Active; 'I' for Inactive)
REMARK    1  A    between atoms: C_1  and  C_2
REMARK    2  A    between atoms: C_6  and  N_7
REMARK    3  A    between atoms: C_8  and  C_10
REMARK    4  A    between atoms: C_12  and  O_13
REMARK    5  A    between atoms: O_13  and  C_14
REMARK                            x       y       z     vdW  Elec       q    Type
REMARK                         _______ _______ _______ _____ _____    ______ ____
ROOT
ATOM      1  C   UNL     1       2.920   4.097  18.614  0.00  0.00    +0.000 A 
ATOM      2  C   UNL     1       2.909   5.362  19.190  0.00  0.00    +0.000 A 
ATOM      3  C   UNL     1       1.985   5.618  20.195  0.00  0.00    +0.000 A 
ATOM      4  C   UNL     1       1.058   4.637  20.532  0.00  0.00    +0.000 A 
ATOM      5  C   UNL     1       1.133   3.407  19.889  0.00  0.00    +0.000 A 
ATOM      6  N   UNL     1       2.052   3.101  18.943  0.00  0.00    +0.000 NA
ENDROOT
BRANCH   1   8
ATOM      7  N   UNL     1       4.387   4.905  16.867  0.00  0.00    +0.000 N 
ATOM      8  C   UNL     1       3.944   3.800  17.567  0.00  0.00    +0.000 C 
ATOM      9  O   UNL     1       4.291   2.634  17.414  0.00  0.00    +0.000 OA
ATOM     10  H   UNL     1       3.963   5.794  17.110  0.00  0.00    +0.000 HD
BRANCH   7  16
ATOM     11  C   UNL     1       5.868   3.413  12.549  0.00  0.00    +0.000 C 
ATOM     12  C   UNL     1       6.150   4.163  13.810  0.00  0.00    +0.000 A 
ATOM     13  C   UNL     1       7.364   4.791  14.052  0.00  0.00    +0.000 A 
ATOM     14  N   UNL     1       7.621   5.465  15.194  0.00  0.00    +0.000 NA
ATOM     15  C   UNL     1       6.607   5.482  16.096  0.00  0.00    +0.000 A 
ATOM     16  C   UNL     1       5.382   4.856  15.881  0.00  0.00    +0.000 A 
ATOM     17  N   UNL     1       5.158   4.194  14.730  0.00  0.00    +0.000 NA
ENDBRANCH   7  16
ENDBRANCH   1   8
BRANCH   3  18
ATOM     18  O   UNL     1       1.882   6.823  20.853  0.00  0.00    +0.000 OA
BRANCH  18  19
ATOM     19  C   UNL     1       1.622   7.955  20.130  0.00  0.00    +0.000 A 
ATOM     20  C   UNL     1       0.900   8.973  20.717  0.00  0.00    +0.000 A 
ATOM     21  N   UNL     1       0.571  10.123  20.088  0.00  0.00    +0.000 NA
ATOM     22  C   UNL     1       1.010  10.241  18.825  0.00  0.00    +0.000 A 
ATOM     23  N   UNL     1       1.765   9.347  18.168  0.00  0.00    +0.000 NA
ATOM     24  C   UNL     1       2.067   8.222  18.851  0.00  0.00    +0.000 A 
ENDBRANCH  18  19
ENDBRANCH   3  18
TORSDOF 4
ENDMDL
MODEL 8
REMARK VINA RESULT:      -7.2      4.574      7.086
REMARK  Name = 
REMARK  5 active torsions:
REMARK  status: ('A' for Active; 'I' for Inactive)
REMARK    1  A    between atoms: C_1  and  C_2
REMARK    2  A    between atoms: C_6  and  N_7
REMARK    3  A    between atoms: C_8  and  C_10
REMARK    4  A    between atoms: C_12  and  O_13
REMARK    5  A    between atoms: O_13  and  C_14
REMARK                            x       y       z     vdW  Elec       q    Type
REMARK                         _______ _______ _______ _____ _____    ______ ____
ROOT
ATOM      1  C   UNL     1       6.993   6.792  17.328  0.00  0.00    +0.000 A 
ATOM      2  C   UNL     1       5.692   6.672  17.800  0.00  0.00    +0.000 A 
ATOM      3  C   UNL     1       4.813   5.853  17.101  0.00  0.00    +0.000 A 
ATOM      4  C   UNL     1       5.236   5.252  15.920  0.00  0.00    +0.000 A 
ATOM      5  C   UNL     1       6.552   5.445  15.515  0.00  0.00    +0.000 A 
ATOM      6  N   UNL     1       7.454   6.191  16.196  0.00  0.00    +0.000 NA
ENDROOT
BRANCH   1   8
ATOM      7  N   UNL     1       8.030   8.948  17.692  0.00  0.00    +0.000 N 
ATOM      8  C   UNL     1       7.957   7.631  18.102  0.00  0.00    +0.000 C 
ATOM      9  O   UNL     1       8.591   7.097  19.006  0.00  0.00    +0.000 OA
ATOM     10  H   UNL     1       7.450   9.208  16.901  0.00  0.00    +0.000 HD
BRANCH   7  16
ATOM     11  C   UNL     1      11.119  12.610  17.357  0.00  0.00    +0.000 C 
ATOM     12  C   UNL     1      10.322  11.682  18.216  0.00  0.00    +0.000 A 
ATOM     13  C   UNL     1      10.362  11.725  19.602  0.00  0.00    +0.000 A 
ATOM     14  N   UNL     1       9.645  10.884  20.378  0.00  0.00    +0.000 NA
ATOM     15  C   UNL     1       8.883   9.983  19.705  0.00  0.00    +0.000 A 
ATOM     16  C   UNL     1       8.830   9.916  18.315  0.00  0.00    +0.000 A 
ATOM     17  N   UNL     1       9.556  10.771  17.572  0.00  0.00    +0.000 NA
ENDBRANCH   7  16
ENDBRANCH   1   8
BRANCH   3  18
ATOM     18  O   UNL     1       3.504   5.640  17.473  0.00  0.00    +0.000 OA
BRANCH  18  19
ATOM     19  C   UNL     1       3.162   4.447  18.048  0.00  0.00    +0.000 A 
ATOM     20  C   UNL     1       2.217   3.653  17.431  0.00  0.00    +0.000 A 
ATOM     21  N   UNL     1       1.793   2.468  17.922  0.00  0.00    +0.000 NA
ATOM     22  C   UNL     1       2.366   2.075  19.070  0.00  0.00    +0.000 A 
ATOM     23  N   UNL     1       3.332   2.731  19.731  0.00  0.00    +0.000 NA
ATOM     24  C   UNL     1       3.720   3.905  19.188  0.00  0.00    +0.000 A 
ENDBRANCH  18  19
ENDBRANCH   3  18
TORSDOF 4
ENDMDL
MODEL 9
REMARK VINA RESULT:      -7.2      2.281      4.205
REMARK  Name = 
REMARK  5 active torsions:
REMARK  status: ('A' for Active; 'I' for Inactive)
REMARK    1  A    between atoms: C_1  and  C_2
REMARK    2  A    between atoms: C_6  and  N_7
REMARK    3  A    between atoms: C_8  and  C_10
REMARK    4  A    between atoms: C_12  and  O_13
REMARK    5  A    between atoms: O_13  and  C_14
REMARK                            x       y       z     vdW  Elec       q    Type
REMARK                         _______ _______ _______ _____ _____    ______ ____
ROOT
ATOM      1  C   UNL     1       2.898   7.430  17.854  0.00  0.00    +0.000 A 
ATOM      2  C   UNL     1       2.342   6.182  18.110  0.00  0.00    +0.000 A 
ATOM      3  C   UNL     1       3.083   5.053  17.786  0.00  0.00    +0.000 A 
ATOM      4  C   UNL     1       4.309   5.205  17.147  0.00  0.00    +0.000 A 
ATOM      5  C   UNL     1       4.778   6.492  16.914  0.00  0.00    +0.000 A 
ATOM      6  N   UNL     1       4.111   7.618  17.263  0.00  0.00    +0.000 NA
ENDROOT
BRANCH   1   8
ATOM      7  N   UNL     1       1.463   8.544  19.453  0.00  0.00    +0.000 N 
ATOM      8  C   UNL     1       2.128   8.649  18.246  0.00  0.00    +0.000 C 
ATOM      9  O   UNL     1       2.142   9.610  17.485  0.00  0.00    +0.000 OA
ATOM     10  H   UNL     1       1.541   7.655  19.935  0.00  0.00    +0.000 HD
BRANCH   7  16
ATOM     11  C   UNL     1      -2.015  11.838  19.116  0.00  0.00    +0.000 C 
ATOM     12  C   UNL     1      -0.934  11.195  19.924  0.00  0.00    +0.000 A 
ATOM     13  C   UNL     1      -0.617  11.606  21.211  0.00  0.00    +0.000 A 
ATOM     14  N   UNL     1       0.362  11.028  21.940  0.00  0.00    +0.000 NA
ATOM     15  C   UNL     1       1.022  10.015  21.321  0.00  0.00    +0.000 A 
ATOM     16  C   UNL     1       0.727   9.587  20.030  0.00  0.00    +0.000 A 
ATOM     17  N   UNL     1      -0.257  10.185  19.332  0.00  0.00    +0.000 NA
ENDBRANCH   7  16
ENDBRANCH   1   8
BRANCH   3  18
ATOM     18  O   UNL     1       2.650   3.764  18.002  0.00  0.00    +0.000 OA
BRANCH  18  19
ATOM     19  C   UNL     1       2.387   3.356  19.281  0.00  0.00    +0.000 A 
ATOM     20  C   UNL     1       3.436   2.972  20.090  0.00  0.00    +0.000 A 
ATOM     21  N   UNL     1       3.288   2.536  21.360  0.00  0.00    +0.000 NA
ATOM     22  C   UNL     1       2.028   2.508  21.822  0.00  0.00    +0.000 A 
ATOM     23  N   UNL     1       0.936   2.908  21.152  0.00  0.00    +0.000 NA
ATOM     24  C   UNL     1       1.149   3.341  19.891  0.00  0.00    +0.000 A 
ENDBRANCH  18  19
ENDBRANCH   3  18
TORSDOF 4
ENDMDL
