MODEL 1
REMARK VINA RESULT:      -6.4      0.000      0.000
REMARK  Name = 
REMARK  9 active torsions:
REMARK  status: ('A' for Active; 'I' for Inactive)
REMARK    1  A    between atoms: C_1  and  C_2
REMARK    2  A    between atoms: C_2  and  O_3
REMARK    3  A    between atoms: O_3  and  C_4
REMARK    4  A    between atoms: C_4  and  C_6
REMARK    5  A    between atoms: C_6  and  C_7
REMARK    6  A    between atoms: C_7  and  C_9
REMARK    7  A    between atoms: C_17  and  N_18
REMARK    8  A    between atoms: N_18  and  C_19
REMARK    9  A    between atoms: N_18  and  C_20
REMARK                            x       y       z     vdW  Elec       q    Type
REMARK                         _______ _______ _______ _____ _____    ______ ____
ROOT
ATOM      1  C   UNL     1       4.305   5.242  18.013  0.00  0.00    +0.000 C 
ATOM      2  S   UNL     1       4.477   6.595  16.753  0.00  0.00    +0.000 S 
ATOM      3  C   UNL     1       5.820   5.937  15.716  0.00  0.00    +0.000 C 
ATOM      4  C   UNL     1       5.524   4.609  14.976  0.00  0.00    +0.000 C 
ATOM      5  C   UNL     1       5.189   3.480  15.987  0.00  0.00    +0.000 C 
ATOM      6  S   UNL     1       3.740   3.750  17.059  0.00  0.00    +0.000 S 
ENDROOT
BRANCH   4   7
ATOM      7  N   UNL     1       6.687   4.217  14.106  0.00  0.00    +0.000 NA
ATOM      8  C   UNL     1       6.258   3.603  12.841  0.00  0.00    +0.000 C 
ATOM      9  C   UNL     1       7.563   5.353  13.786  0.00  0.00    +0.000 C 
ENDBRANCH   4   7
BRANCH   1  10
ATOM     10  C   UNL     1       5.611   4.907  18.752  0.00  0.00    +0.000 C 
ATOM     11  O   UNL     1       6.025   3.774  18.980  0.00  0.00    +0.000 OA
BRANCH  10  12
ATOM     12  O   UNL     1       6.297   6.031  19.118  0.00  0.00    +0.000 OA
BRANCH  12  14
ATOM     13  C   UNL     1       8.117   7.412  18.285  0.00  0.00    +0.000 C 
ATOM     14  C   UNL     1       7.691   6.037  18.769  0.00  0.00    +0.000 C 
ENDBRANCH  12  14
ENDBRANCH  10  12
ENDBRANCH   1  10
BRANCH   1  15
ATOM     15  C   UNL     1       3.207   5.694  19.010  0.00  0.00    +0.000 C 
ATOM     16  O   UNL     1       2.873   6.875  19.158  0.00  0.00    +0.000 OA
BRANCH  15  17
ATOM     17  C   UNL     1       2.483   4.679  19.866  0.00  0.00    +0.000 A 
ATOM     18  C   UNL     1       2.912   4.278  21.139  0.00  0.00    +0.000 A 
ATOM     19  C   UNL     1       2.217   3.301  21.859  0.00  0.00    +0.000 A 
ATOM     20  C   UNL     1       1.067   2.731  21.330  0.00  0.00    +0.000 A 
ATOM     21  C   UNL     1       0.603   3.141  20.084  0.00  0.00    +0.000 A 
ATOM     22  C   UNL     1       1.305   4.106  19.356  0.00  0.00    +0.000 A 
ENDBRANCH  15  17
ENDBRANCH   1  15
TORSDOF 6
ENDMDL
MODEL 2
REMARK VINA RESULT:      -6.4      1.745      2.886
REMARK  Name = 
REMARK  9 active torsions:
REMARK  status: ('A' for Active; 'I' for Inactive)
REMARK    1  A    between atoms: C_1  and  C_2
REMARK    2  A    between atoms: C_2  and  O_3
REMARK    3  A    between atoms: O_3  and  C_4
REMARK    4  A    between atoms: C_4  and  C_6
REMARK    5  A    between atoms: C_6  and  C_7
REMARK    6  A    between atoms: C_7  and  C_9
REMARK    7  A    between atoms: C_17  and  N_18
REMARK    8  A    between atoms: N_18  and  C_19
REMARK    9  A    between atoms: N_18  and  C_20
REMARK                            x       y       z     vdW  Elec       q    Type
REMARK                         _______ _______ _______ _____ _____    ______ ____
ROOT
ATOM      1  C   UNL     1       5.612   5.069  17.623  0.00  0.00    +0.000 C 
ATOM      2  S   UNL     1       4.550   3.833  16.733  0.00  0.00    +0.000 S 
ATOM      3  C   UNL     1       4.896   4.261  14.998  0.00  0.00    +0.000 C 
ATOM      4  C   UNL     1       6.360   4.080  14.528  0.00  0.00    +0.000 C 
ATOM      5  C   UNL     1       7.320   4.961  15.373  0.00  0.00    +0.000 C 
ATOM      6  S   UNL     1       7.360   4.634  17.165  0.00  0.00    +0.000 S 
ENDROOT
BRANCH   4   7
ATOM      7  N   UNL     1       6.491   4.403  13.065  0.00  0.00    +0.000 NA
ATOM      8  C   UNL     1       7.779   5.036  12.743  0.00  0.00    +0.000 C 
ATOM      9  C   UNL     1       6.342   3.217  12.208  0.00  0.00    +0.000 C 
ENDBRANCH   4   7
BRANCH   1  10
ATOM     10  C   UNL     1       5.333   6.529  17.231  0.00  0.00    +0.000 C 
ATOM     11  O   UNL     1       6.190   7.386  17.036  0.00  0.00    +0.000 OA
BRANCH  10  12
ATOM     12  O   UNL     1       3.996   6.778  17.093  0.00  0.00    +0.000 OA
BRANCH  12  14
ATOM     13  C   UNL     1       2.096   8.083  17.865  0.00  0.00    +0.000 C 
ATOM     14  C   UNL     1       3.571   8.087  17.505  0.00  0.00    +0.000 C 
ENDBRANCH  12  14
ENDBRANCH  10  12
ENDBRANCH   1  10
BRANCH   1  15
ATOM     15  C   UNL     1       5.380   4.850  19.140  0.00  0.00    +0.000 C 
ATOM     16  O   UNL     1       6.254   5.046  19.993  0.00  0.00    +0.000 OA
BRANCH  15  17
ATOM     17  C   UNL     1       4.039   4.373  19.650  0.00  0.00    +0.000 A 
ATOM     18  C   UNL     1       3.710   3.025  19.846  0.00  0.00    +0.000 A 
ATOM     19  C   UNL     1       2.434   2.650  20.279  0.00  0.00    +0.000 A 
ATOM     20  C   UNL     1       1.477   3.619  20.551  0.00  0.00    +0.000 A 
ATOM     21  C   UNL     1       1.795   4.965  20.399  0.00  0.00    +0.000 A 
ATOM     22  C   UNL     1       3.065   5.340  19.951  0.00  0.00    +0.000 A 
ENDBRANCH  15  17
ENDBRANCH   1  15
TORSDOF 6
ENDMDL
MODEL 3
REMARK VINA RESULT:      -6.4      0.255      1.056
REMARK  Name = 
REMARK  9 active torsions:
REMARK  status: ('A' for Active; 'I' for Inactive)
REMARK    1  A    between atoms: C_1  and  C_2
REMARK    2  A    between atoms: C_2  and  O_3
REMARK    3  A    between atoms: O_3  and  C_4
REMARK    4  A    between atoms: C_4  and  C_6
REMARK    5  A    between atoms: C_6  and  C_7
REMARK    6  A    between atoms: C_7  and  C_9
REMARK    7  A    between atoms: C_17  and  N_18
REMARK    8  A    between atoms: N_18  and  C_19
REMARK    9  A    between atoms: N_18  and  C_20
REMARK                            x       y       z     vdW  Elec       q    Type
REMARK                         _______ _______ _______ _____ _____    ______ ____
ROOT
ATOM      1  C   UNL     1       4.402   5.265  17.896  0.00  0.00    +0.000 C 
ATOM      2  S   UNL     1       4.416   6.535  16.541  0.00  0.00    +0.000 S 
ATOM      3  C   UNL     1       5.762   5.906  15.489  0.00  0.00    +0.000 C 
ATOM      4  C   UNL     1       5.539   4.511  14.854  0.00  0.00    +0.000 C 
ATOM      5  C   UNL     1       5.335   3.435  15.954  0.00  0.00    +0.000 C 
ATOM      6  S   UNL     1       3.915   3.673  17.072  0.00  0.00    +0.000 S 
ENDROOT
BRANCH   4   7
ATOM      7  N   UNL     1       6.692   4.145  13.960  0.00  0.00    +0.000 NA
ATOM      8  C   UNL     1       6.249   3.561  12.686  0.00  0.00    +0.000 C 
ATOM      9  C   UNL     1       7.559   5.293  13.656  0.00  0.00    +0.000 C 
ENDBRANCH   4   7
BRANCH   1  10
ATOM     10  C   UNL     1       5.759   5.081  18.594  0.00  0.00    +0.000 C 
ATOM     11  O   UNL     1       6.291   4.001  18.834  0.00  0.00    +0.000 OA
BRANCH  10  12
ATOM     12  O   UNL     1       6.343   6.277  18.906  0.00  0.00    +0.000 OA
BRANCH  12  14
ATOM     13  C   UNL     1       7.943   7.773  17.850  0.00  0.00    +0.000 C 
ATOM     14  C   UNL     1       7.712   6.416  18.492  0.00  0.00    +0.000 C 
ENDBRANCH  12  14
ENDBRANCH  10  12
ENDBRANCH   1  10
BRANCH   1  15
ATOM     15  C   UNL     1       3.315   5.704  18.910  0.00  0.00    +0.000 C 
ATOM     16  O   UNL     1       3.052   6.888  19.150  0.00  0.00    +0.000 OA
BRANCH  15  17
ATOM     17  C   UNL     1       2.512   4.672  19.669  0.00  0.00    +0.000 A 
ATOM     18  C   UNL     1       1.363   4.046  19.165  0.00  0.00    +0.000 A 
ATOM     19  C   UNL     1       0.643   3.130  19.938  0.00  0.00    +0.000 A 
ATOM     20  C   UNL     1       1.076   2.805  21.217  0.00  0.00    +0.000 A 
ATOM     21  C   UNL     1       2.234   3.386  21.723  0.00  0.00    +0.000 A 
ATOM     22  C   UNL     1       2.946   4.314  20.957  0.00  0.00    +0.000 A 
ENDBRANCH  15  17
ENDBRANCH   1  15
TORSDOF 6
ENDMDL
MODEL 4
REMARK VINA RESULT:      -6.4      2.419      6.389
REMARK  Name = 
REMARK  9 active torsions:
REMARK  status: ('A' for Active; 'I' for Inactive)
REMARK    1  A    between atoms: C_1  and  C_2
REMARK    2  A    between atoms: C_2  and  O_3
REMARK    3  A    between atoms: O_3  and  C_4
REMARK    4  A    between atoms: C_4  and  C_6
REMARK    5  A    between atoms: C_6  and  C_7
REMARK    6  A    between atoms: C_7  and  C_9
REMARK    7  A    between atoms: C_17  and  N_18
REMARK    8  A    between atoms: N_18  and  C_19
REMARK    9  A    between atoms: N_18  and  C_20
REMARK                            x       y       z     vdW  Elec       q    Type
REMARK                         _______ _______ _______ _____ _____    ______ ____
ROOT
ATOM      1  C   UNL     1       5.843   5.106  16.950  0.00  0.00    +0.000 C 
ATOM      2  S   UNL     1       6.104   4.729  18.750  0.00  0.00    +0.000 S 
ATOM      3  C   UNL     1       4.607   5.465  19.480  0.00  0.00    +0.000 C 
ATOM      4  C   UNL     1       3.257   4.849  19.037  0.00  0.00    +0.000 C 
ATOM      5  C   UNL     1       3.074   4.974  17.501  0.00  0.00    +0.000 C 
ATOM      6  S   UNL     1       4.326   4.151  16.462  0.00  0.00    +0.000 S 
ENDROOT
BRANCH   4   7
ATOM      7  N   UNL     1       2.113   5.502  19.764  0.00  0.00    +0.000 NA
ATOM      8  C   UNL     1       1.904   4.935  21.104  0.00  0.00    +0.000 C 
ATOM      9  C   UNL     1       2.289   6.954  19.908  0.00  0.00    +0.000 C 
ENDBRANCH   4   7
BRANCH   1  10
ATOM     10  C   UNL     1       5.623   6.598  16.649  0.00  0.00    +0.000 C 
ATOM     11  O   UNL     1       4.976   7.042  15.706  0.00  0.00    +0.000 OA
BRANCH  10  12
ATOM     12  O   UNL     1       6.216   7.403  17.581  0.00  0.00    +0.000 OA
BRANCH  12  14
ATOM     13  C   UNL     1       8.023   8.999  17.899  0.00  0.00    +0.000 C 
ATOM     14  C   UNL     1       7.623   7.625  17.391  0.00  0.00    +0.000 C 
ENDBRANCH  12  14
ENDBRANCH  10  12
ENDBRANCH   1  10
BRANCH   1  15
ATOM     15  C   UNL     1       7.086   4.569  16.195  0.00  0.00    +0.000 C 
ATOM     16  O   UNL     1       8.094   4.142  16.770  0.00  0.00    +0.000 OA
BRANCH  15  17
ATOM     17  C   UNL     1       7.116   4.547  14.683  0.00  0.00    +0.000 A 
ATOM     18  C   UNL     1       7.922   5.387  13.903  0.00  0.00    +0.000 A 
ATOM     19  C   UNL     1       7.867   5.344  12.506  0.00  0.00    +0.000 A 
ATOM     20  C   UNL     1       7.027   4.440  11.869  0.00  0.00    +0.000 A 
ATOM     21  C   UNL     1       6.246   3.572  12.624  0.00  0.00    +0.000 A 
ATOM     22  C   UNL     1       6.288   3.625  14.020  0.00  0.00    +0.000 A 
ENDBRANCH  15  17
ENDBRANCH   1  15
TORSDOF 6
ENDMDL
MODEL 5
REMARK VINA RESULT:      -6.4      1.755      2.908
REMARK  Name = 
REMARK  9 active torsions:
REMARK  status: ('A' for Active; 'I' for Inactive)
REMARK    1  A    between atoms: C_1  and  C_2
REMARK    2  A    between atoms: C_2  and  O_3
REMARK    3  A    between atoms: O_3  and  C_4
REMARK    4  A    between atoms: C_4  and  C_6
REMARK    5  A    between atoms: C_6  and  C_7
REMARK    6  A    between atoms: C_7  and  C_9
REMARK    7  A    between atoms: C_17  and  N_18
REMARK    8  A    between atoms: N_18  and  C_19
REMARK    9  A    between atoms: N_18  and  C_20
REMARK                            x       y       z     vdW  Elec       q    Type
REMARK                         _______ _______ _______ _____ _____    ______ ____
ROOT
ATOM      1  C   UNL     1       5.657   5.090  17.595  0.00  0.00    +0.000 C 
ATOM      2  S   UNL     1       4.552   3.878  16.724  0.00  0.00    +0.000 S 
ATOM      3  C   UNL     1       4.892   4.286  14.983  0.00  0.00    +0.000 C 
ATOM      4  C   UNL     1       6.346   4.064  14.500  0.00  0.00    +0.000 C 
ATOM      5  C   UNL     1       7.337   4.924  15.329  0.00  0.00    +0.000 C 
ATOM      6  S   UNL     1       7.388   4.606  17.123  0.00  0.00    +0.000 S 
ENDROOT
BRANCH   4   7
ATOM      7  N   UNL     1       6.471   4.374  13.033  0.00  0.00    +0.000 NA
ATOM      8  C   UNL     1       7.749   5.021  12.704  0.00  0.00    +0.000 C 
ATOM      9  C   UNL     1       6.336   3.179  12.188  0.00  0.00    +0.000 C 
ENDBRANCH   4   7
BRANCH   1  10
ATOM     10  C   UNL     1       5.413   6.555  17.198  0.00  0.00    +0.000 C 
ATOM     11  O   UNL     1       6.287   7.404  17.050  0.00  0.00    +0.000 OA
BRANCH  10  12
ATOM     12  O   UNL     1       4.087   6.818  16.995  0.00  0.00    +0.000 OA
BRANCH  12  14
ATOM     13  C   UNL     1       2.141   8.030  17.805  0.00  0.00    +0.000 C 
ATOM     14  C   UNL     1       3.629   8.081  17.505  0.00  0.00    +0.000 C 
ENDBRANCH  12  14
ENDBRANCH  10  12
ENDBRANCH   1  10
BRANCH   1  15
ATOM     15  C   UNL     1       5.434   4.886  19.116  0.00  0.00    +0.000 C 
ATOM     16  O   UNL     1       6.325   5.050  19.957  0.00  0.00    +0.000 OA
BRANCH  15  17
ATOM     17  C   UNL     1       4.081   4.465  19.644  0.00  0.00    +0.000 A 
ATOM     18  C   UNL     1       3.041   5.358  19.937  0.00  0.00    +0.000 A 
ATOM     19  C   UNL     1       1.828   4.904  20.464  0.00  0.00    +0.000 A 
ATOM     20  C   UNL     1       1.626   3.547  20.680  0.00  0.00    +0.000 A 
ATOM     21  C   UNL     1       2.631   2.640  20.361  0.00  0.00    +0.000 A 
ATOM     22  C   UNL     1       3.850   3.094  19.849  0.00  0.00    +0.000 A 
ENDBRANCH  15  17
ENDBRANCH   1  15
TORSDOF 6
ENDMDL
MODEL 6
REMARK VINA RESULT:      -6.4      1.605      2.452
REMARK  Name = 
REMARK  9 active torsions:
REMARK  status: ('A' for Active; 'I' for Inactive)
REMARK    1  A    between atoms: C_1  and  C_2
REMARK    2  A    between atoms: C_2  and  O_3
REMARK    3  A    between atoms: O_3  and  C_4
REMARK    4  A    between atoms: C_4  and  C_6
REMARK    5  A    between atoms: C_6  and  C_7
REMARK    6  A    between atoms: C_7  and  C_9
REMARK    7  A    between atoms: C_17  and  N_18
REMARK    8  A    between atoms: N_18  and  C_19
REMARK    9  A    between atoms: N_18  and  C_20
REMARK                            x       y       z     vdW  Elec       q    Type
REMARK                         _______ _______ _______ _____ _____    ______ ____
ROOT
ATOM      1  C   UNL     1       5.789   5.188  17.571  0.00  0.00    +0.000 C 
ATOM      2  S   UNL     1       4.516   4.163  16.690  0.00  0.00    +0.000 S 
ATOM      3  C   UNL     1       4.916   4.529  14.952  0.00  0.00    +0.000 C 
ATOM      4  C   UNL     1       6.321   4.092  14.468  0.00  0.00    +0.000 C 
ATOM      5  C   UNL     1       7.429   4.786  15.304  0.00  0.00    +0.000 C 
ATOM      6  S   UNL     1       7.428   4.451  17.096  0.00  0.00    +0.000 S 
ENDROOT
BRANCH   4   7
ATOM      7  N   UNL     1       6.493   4.391  13.004  0.00  0.00    +0.000 NA
ATOM      8  C   UNL     1       7.783   5.034  12.711  0.00  0.00    +0.000 C 
ATOM      9  C   UNL     1       6.384   3.189  12.164  0.00  0.00    +0.000 C 
ENDBRANCH   4   7
BRANCH   1  10
ATOM     10  C   UNL     1       5.770   6.676  17.185  0.00  0.00    +0.000 C 
ATOM     11  O   UNL     1       4.773   7.392  17.171  0.00  0.00    +0.000 OA
BRANCH  10  12
ATOM     12  O   UNL     1       7.018   7.142  16.875  0.00  0.00    +0.000 OA
BRANCH  12  14
ATOM     13  C   UNL     1       8.030   9.163  17.773  0.00  0.00    +0.000 C 
ATOM     14  C   UNL     1       7.760   7.683  17.981  0.00  0.00    +0.000 C 
ENDBRANCH  12  14
ENDBRANCH  10  12
ENDBRANCH   1  10
BRANCH   1  15
ATOM     15  C   UNL     1       5.536   5.009  19.090  0.00  0.00    +0.000 C 
ATOM     16  O   UNL     1       6.419   5.150  19.944  0.00  0.00    +0.000 OA
BRANCH  15  17
ATOM     17  C   UNL     1       4.161   4.642  19.601  0.00  0.00    +0.000 A 
ATOM     18  C   UNL     1       3.755   3.332  19.886  0.00  0.00    +0.000 A 
ATOM     19  C   UNL     1       2.451   3.058  20.314  0.00  0.00    +0.000 A 
ATOM     20  C   UNL     1       1.544   4.094  20.492  0.00  0.00    +0.000 A 
ATOM     21  C   UNL     1       1.938   5.406  20.251  0.00  0.00    +0.000 A 
ATOM     22  C   UNL     1       3.235   5.679  19.807  0.00  0.00    +0.000 A 
ENDBRANCH  15  17
ENDBRANCH   1  15
TORSDOF 6
ENDMDL
MODEL 7
REMARK VINA RESULT:      -6.3      1.604      2.481
REMARK  Name = 
REMARK  9 active torsions:
REMARK  status: ('A' for Active; 'I' for Inactive)
REMARK    1  A    between atoms: C_1  and  C_2
REMARK    2  A    between atoms: C_2  and  O_3
REMARK    3  A    between atoms: O_3  and  C_4
REMARK    4  A    between atoms: C_4  and  C_6
REMARK    5  A    between atoms: C_6  and  C_7
REMARK    6  A    between atoms: C_7  and  C_9
REMARK    7  A    between atoms: C_17  and  N_18
REMARK    8  A    between atoms: N_18  and  C_19
REMARK    9  A    between atoms: N_18  and  C_20
REMARK                            x       y       z     vdW  Elec       q    Type
REMARK                         _______ _______ _______ _____ _____    ______ ____
ROOT
ATOM      1  C   UNL     1       5.791   5.208  17.564  0.00  0.00    +0.000 C 
ATOM      2  S   UNL     1       4.511   4.196  16.678  0.00  0.00    +0.000 S 
ATOM      3  C   UNL     1       4.919   4.561  14.942  0.00  0.00    +0.000 C 
ATOM      4  C   UNL     1       6.322   4.113  14.461  0.00  0.00    +0.000 C 
ATOM      5  C   UNL     1       7.434   4.796  15.302  0.00  0.00    +0.000 C 
ATOM      6  S   UNL     1       7.424   4.458  17.093  0.00  0.00    +0.000 S 
ENDROOT
BRANCH   4   7
ATOM      7  N   UNL     1       6.501   4.414  12.998  0.00  0.00    +0.000 NA
ATOM      8  C   UNL     1       7.787   5.067  12.713  0.00  0.00    +0.000 C 
ATOM      9  C   UNL     1       6.407   3.211  12.157  0.00  0.00    +0.000 C 
ENDBRANCH   4   7
BRANCH   1  10
ATOM     10  C   UNL     1       5.786   6.697  17.181  0.00  0.00    +0.000 C 
ATOM     11  O   UNL     1       4.796   7.423  17.173  0.00  0.00    +0.000 OA
BRANCH  10  12
ATOM     12  O   UNL     1       7.036   7.150  16.867  0.00  0.00    +0.000 OA
BRANCH  12  14
ATOM     13  C   UNL     1       8.019   9.179  17.778  0.00  0.00    +0.000 C 
ATOM     14  C   UNL     1       7.786   7.690  17.968  0.00  0.00    +0.000 C 
ENDBRANCH  12  14
ENDBRANCH  10  12
ENDBRANCH   1  10
BRANCH   1  15
ATOM     15  C   UNL     1       5.531   5.028  19.083  0.00  0.00    +0.000 C 
ATOM     16  O   UNL     1       6.426   5.093  19.933  0.00  0.00    +0.000 OA
BRANCH  15  17
ATOM     17  C   UNL     1       4.135   4.755  19.595  0.00  0.00    +0.000 A 
ATOM     18  C   UNL     1       3.158   5.743  19.771  0.00  0.00    +0.000 A 
ATOM     19  C   UNL     1       1.898   5.427  20.292  0.00  0.00    +0.000 A 
ATOM     20  C   UNL     1       1.589   4.113  20.617  0.00  0.00    +0.000 A 
ATOM     21  C   UNL     1       2.532   3.111  20.416  0.00  0.00    +0.000 A 
ATOM     22  C   UNL     1       3.796   3.428  19.911  0.00  0.00    +0.000 A 
ENDBRANCH  15  17
ENDBRANCH   1  15
TORSDOF 6
ENDMDL
MODEL 8
REMARK VINA RESULT:      -6.3      2.399      6.334
REMARK  Name = 
REMARK  9 active torsions:
REMARK  status: ('A' for Active; 'I' for Inactive)
REMARK    1  A    between atoms: C_1  and  C_2
REMARK    2  A    between atoms: C_2  and  O_3
REMARK    3  A    between atoms: O_3  and  C_4
REMARK    4  A    between atoms: C_4  and  C_6
REMARK    5  A    between atoms: C_6  and  C_7
REMARK    6  A    between atoms: C_7  and  C_9
REMARK    7  A    between atoms: C_17  and  N_18
REMARK    8  A    between atoms: N_18  and  C_19
REMARK    9  A    between atoms: N_18  and  C_20
REMARK                            x       y       z     vdW  Elec       q    Type
REMARK                         _______ _______ _______ _____ _____    ______ ____
ROOT
ATOM      1  C   UNL     1       6.349   5.053  15.558  0.00  0.00    +0.000 C 
ATOM      2  S   UNL     1       5.384   3.498  15.873  0.00  0.00    +0.000 S 
ATOM      3  C   UNL     1       4.810   3.785  17.577  0.00  0.00    +0.000 C 
ATOM      4  C   UNL     1       3.871   4.998  17.787  0.00  0.00    +0.000 C 
ATOM      5  C   UNL     1       4.573   6.315  17.358  0.00  0.00    +0.000 C 
ATOM      6  S   UNL     1       5.100   6.428  15.617  0.00  0.00    +0.000 S 
ENDROOT
BRANCH   4   7
ATOM      7  N   UNL     1       3.420   5.078  19.220  0.00  0.00    +0.000 NA
ATOM      8  C   UNL     1       2.310   6.024  19.406  0.00  0.00    +0.000 C 
ATOM      9  C   UNL     1       3.001   3.774  19.754  0.00  0.00    +0.000 C 
ENDBRANCH   4   7
BRANCH   1  10
ATOM     10  C   UNL     1       7.453   5.325  16.592  0.00  0.00    +0.000 C 
ATOM     11  O   UNL     1       8.055   4.465  17.228  0.00  0.00    +0.000 OA
BRANCH  10  12
ATOM     12  O   UNL     1       7.722   6.659  16.718  0.00  0.00    +0.000 OA
BRANCH  12  14
ATOM     13  C   UNL     1       8.231   8.605  18.084  0.00  0.00    +0.000 C 
ATOM     14  C   UNL     1       7.891   7.125  18.067  0.00  0.00    +0.000 C 
ENDBRANCH  12  14
ENDBRANCH  10  12
ENDBRANCH   1  10
BRANCH   1  15
ATOM     15  C   UNL     1       6.947   4.928  14.132  0.00  0.00    +0.000 C 
ATOM     16  O   UNL     1       7.935   5.569  13.756  0.00  0.00    +0.000 OA
BRANCH  15  17
ATOM     17  C   UNL     1       6.326   3.993  13.119  0.00  0.00    +0.000 A 
ATOM     18  C   UNL     1       7.031   2.985  12.447  0.00  0.00    +0.000 A 
ATOM     19  C   UNL     1       6.403   2.183  11.489  0.00  0.00    +0.000 A 
ATOM     20  C   UNL     1       5.054   2.358  11.208  0.00  0.00    +0.000 A 
ATOM     21  C   UNL     1       4.327   3.328  11.891  0.00  0.00    +0.000 A 
ATOM     22  C   UNL     1       4.957   4.141  12.837  0.00  0.00    +0.000 A 
ENDBRANCH  15  17
ENDBRANCH   1  15
TORSDOF 6
ENDMDL
MODEL 9
REMARK VINA RESULT:      -6.2      2.392      6.412
REMARK  Name = 
REMARK  9 active torsions:
REMARK  status: ('A' for Active; 'I' for Inactive)
REMARK    1  A    between atoms: C_1  and  C_2
REMARK    2  A    between atoms: C_2  and  O_3
REMARK    3  A    between atoms: O_3  and  C_4
REMARK    4  A    between atoms: C_4  and  C_6
REMARK    5  A    between atoms: C_6  and  C_7
REMARK    6  A    between atoms: C_7  and  C_9
REMARK    7  A    between atoms: C_17  and  N_18
REMARK    8  A    between atoms: N_18  and  C_19
REMARK    9  A    between atoms: N_18  and  C_20
REMARK                            x       y       z     vdW  Elec       q    Type
REMARK                         _______ _______ _______ _____ _____    ______ ____
ROOT
ATOM      1  C   UNL     1       6.271   5.010  15.425  0.00  0.00    +0.000 C 
ATOM      2  S   UNL     1       5.318   3.439  15.693  0.00  0.00    +0.000 S 
ATOM      3  C   UNL     1       4.628   3.729  17.353  0.00  0.00    +0.000 C 
ATOM      4  C   UNL     1       3.655   4.926  17.489  0.00  0.00    +0.000 C 
ATOM      5  C   UNL     1       4.357   6.252  17.094  0.00  0.00    +0.000 C 
ATOM      6  S   UNL     1       4.994   6.360  15.389  0.00  0.00    +0.000 S 
ENDROOT
BRANCH   4   7
ATOM      7  N   UNL     1       3.110   5.009  18.889  0.00  0.00    +0.000 NA
ATOM      8  C   UNL     1       2.716   3.694  19.416  0.00  0.00    +0.000 C 
ATOM      9  C   UNL     1       4.064   5.609  19.833  0.00  0.00    +0.000 C 
ENDBRANCH   4   7
BRANCH   1  10
ATOM     10  C   UNL     1       7.299   5.313  16.527  0.00  0.00    +0.000 C 
ATOM     11  O   UNL     1       7.842   4.473  17.240  0.00  0.00    +0.000 OA
BRANCH  10  12
ATOM     12  O   UNL     1       7.577   6.648  16.617  0.00  0.00    +0.000 OA
BRANCH  12  14
ATOM     13  C   UNL     1       8.141   8.617  17.929  0.00  0.00    +0.000 C 
ATOM     14  C   UNL     1       7.767   7.145  17.952  0.00  0.00    +0.000 C 
ENDBRANCH  12  14
ENDBRANCH  10  12
ENDBRANCH   1  10
BRANCH   1  15
ATOM     15  C   UNL     1       6.963   4.884  14.043  0.00  0.00    +0.000 C 
ATOM     16  O   UNL     1       7.982   5.514  13.738  0.00  0.00    +0.000 OA
BRANCH  15  17
ATOM     17  C   UNL     1       6.402   3.961  12.985  0.00  0.00    +0.000 A 
ATOM     18  C   UNL     1       5.055   3.940  12.598  0.00  0.00    +0.000 A 
ATOM     19  C   UNL     1       4.594   3.028  11.642  0.00  0.00    +0.000 A 
ATOM     20  C   UNL     1       5.479   2.144  11.039  0.00  0.00    +0.000 A 
ATOM     21  C   UNL     1       6.827   2.173  11.381  0.00  0.00    +0.000 A 
ATOM     22  C   UNL     1       7.286   3.073  12.348  0.00  0.00    +0.000 A 
ENDBRANCH  15  17
ENDBRANCH   1  15
TORSDOF 6
ENDMDL
