MODEL 1
REMARK VINA RESULT:      -7.4      0.000      0.000
REMARK  Name = 
REMARK  15 active torsions:
REMARK  status: ('A' for Active; 'I' for Inactive)
REMARK    1  A    between atoms: C_1  and  O_2
REMARK    2  A    between atoms: O_2  and  C_3
REMARK    3  A    between atoms: C_6  and  C_7
REMARK    4  A    between atoms: C_7  and  C_8
REMARK    5  A    between atoms: C_8  and  C_9
REMARK    6  A    between atoms: C_13  and  C_14
REMARK    7  A    between atoms: C_14  and  C_15
REMARK    8  A    between atoms: C_15  and  C_16
REMARK    9  A    between atoms: C_19  and  O_20
REMARK   10  A    between atoms: O_20  and  C_21
REMARK   11  A    between atoms: N_24  and  C_25
REMARK   12  A    between atoms: C_25  and  C_26
REMARK   13  A    between atoms: C_26  and  O_27
REMARK   14  A    between atoms: C_26  and  C_28
REMARK   15  A    between atoms: C_28  and  O_29
REMARK                            x       y       z     vdW  Elec       q    Type
REMARK                         _______ _______ _______ _____ _____    ______ ____
ROOT
ATOM      1  C   UNL     1       2.039   7.584  20.147  0.00  0.00    +0.000 C 
ATOM      2  C   UNL     1       1.761   8.524  18.942  0.00  0.00    +0.000 C 
ATOM      3  C   UNL     1       2.775   8.355  17.838  0.00  0.00    +0.000 C 
ATOM      4  C   UNL     1       2.764   6.915  17.392  0.00  0.00    +0.000 C 
ATOM      5  C   UNL     1       3.062   5.928  18.544  0.00  0.00    +0.000 C 
ATOM      6  N   UNL     1       2.146   6.160  19.708  0.00  0.00    +0.000 NA
ENDROOT
BRANCH   1   7
ATOM      7  C   UNL     1       0.910   7.958  21.175  0.00  0.00    +0.000 C 
BRANCH   7   8
ATOM      8  C   UNL     1       1.142   9.068  22.204  0.00  0.00    +0.000 C 
BRANCH   8  12
ATOM      9  C   UNL     1      -1.854  12.132  21.829  0.00  0.00    +0.000 A 
ATOM     10  C   UNL     1      -0.987  11.866  20.771  0.00  0.00    +0.000 A 
ATOM     11  C   UNL     1       0.007  10.899  20.900  0.00  0.00    +0.000 A 
ATOM     12  C   UNL     1       0.151  10.197  22.101  0.00  0.00    +0.000 A 
ATOM     13  C   UNL     1      -0.691  10.492  23.179  0.00  0.00    +0.000 A 
ATOM     14  C   UNL     1      -1.689  11.461  23.041  0.00  0.00    +0.000 A 
BRANCH   9  16
ATOM     15  C   UNL     1      -2.306  14.369  21.242  0.00  0.00    +0.000 C 
ATOM     16  O   UNL     1      -2.805  13.082  21.582  0.00  0.00    +0.000 OA
ENDBRANCH   9  16
ENDBRANCH   8  12
ENDBRANCH   7   8
ENDBRANCH   1   7
BRANCH   5  17
ATOM     17  C   UNL     1       2.962   4.477  17.951  0.00  0.00    +0.000 C 
BRANCH  17  18
ATOM     18  C   UNL     1       4.275   3.683  18.022  0.00  0.00    +0.000 C 
BRANCH  18  19
ATOM     19  C   UNL     1       5.299   4.106  16.994  0.00  0.00    +0.000 A 
ATOM     20  C   UNL     1       4.967   4.117  15.636  0.00  0.00    +0.000 A 
ATOM     21  C   UNL     1       5.875   4.595  14.684  0.00  0.00    +0.000 A 
ATOM     22  C   UNL     1       7.120   5.072  15.078  0.00  0.00    +0.000 A 
ATOM     23  C   UNL     1       7.484   5.016  16.422  0.00  0.00    +0.000 A 
ATOM     24  C   UNL     1       6.573   4.533  17.379  0.00  0.00    +0.000 A 
BRANCH  22  25
ATOM     25  O   UNL     1       7.906   5.552  14.066  0.00  0.00    +0.000 OA
ATOM     26  C   UNL     1       7.628   5.023  12.775  0.00  0.00    +0.000 C 
ENDBRANCH  22  25
ENDBRANCH  18  19
ENDBRANCH  17  18
ENDBRANCH   5  17
BRANCH   6  27
ATOM     27  C   UNL     1       2.347   5.162  20.783  0.00  0.00    +0.000 C 
BRANCH  27  28
ATOM     28  C   UNL     1       1.390   3.947  20.980  0.00  0.00    +0.000 C 
BRANCH  28  29
ATOM     29  O   UNL     1       0.321   3.808  20.036  0.00  0.00    +0.000 OA
ATOM     30  H   UNL     1      -0.372   4.438  20.266  0.00  0.00    +0.000 HD
ENDBRANCH  28  29
BRANCH  28  31
ATOM     31  C   UNL     1       2.190   2.633  20.925  0.00  0.00    +0.000 C 
BRANCH  31  32
ATOM     32  O   UNL     1       2.734   2.344  22.213  0.00  0.00    +0.000 OA
ATOM     33  H   UNL     1       3.289   1.549  22.085  0.00  0.00    +0.000 HD
ENDBRANCH  31  32
ENDBRANCH  28  31
ENDBRANCH  27  28
ENDBRANCH   6  27
TORSDOF 13
ENDMDL
MODEL 2
REMARK VINA RESULT:      -6.9      3.517      9.162
REMARK  Name = 
REMARK  15 active torsions:
REMARK  status: ('A' for Active; 'I' for Inactive)
REMARK    1  A    between atoms: C_1  and  O_2
REMARK    2  A    between atoms: O_2  and  C_3
REMARK    3  A    between atoms: C_6  and  C_7
REMARK    4  A    between atoms: C_7  and  C_8
REMARK    5  A    between atoms: C_8  and  C_9
REMARK    6  A    between atoms: C_13  and  C_14
REMARK    7  A    between atoms: C_14  and  C_15
REMARK    8  A    between atoms: C_15  and  C_16
REMARK    9  A    between atoms: C_19  and  O_20
REMARK   10  A    between atoms: O_20  and  C_21
REMARK   11  A    between atoms: N_24  and  C_25
REMARK   12  A    between atoms: C_25  and  C_26
REMARK   13  A    between atoms: C_26  and  O_27
REMARK   14  A    between atoms: C_26  and  C_28
REMARK   15  A    between atoms: C_28  and  O_29
REMARK                            x       y       z     vdW  Elec       q    Type
REMARK                         _______ _______ _______ _____ _____    ______ ____
ROOT
ATOM      1  C   UNL     1       0.943   9.861  21.689  0.00  0.00    +0.000 C 
ATOM      2  C   UNL     1      -0.190   9.322  22.604  0.00  0.00    +0.000 C 
ATOM      3  C   UNL     1      -0.982  10.430  23.250  0.00  0.00    +0.000 C 
ATOM      4  C   UNL     1      -1.559  11.303  22.165  0.00  0.00    +0.000 C 
ATOM      5  C   UNL     1      -0.477  11.895  21.233  0.00  0.00    +0.000 C 
ATOM      6  N   UNL     1       0.407  10.820  20.676  0.00  0.00    +0.000 NA
ENDROOT
BRANCH   1   7
ATOM      7  C   UNL     1       1.653   8.558  21.171  0.00  0.00    +0.000 C 
BRANCH   7   8
ATOM      8  C   UNL     1       0.876   7.242  21.080  0.00  0.00    +0.000 C 
BRANCH   8  12
ATOM      9  C   UNL     1       3.205   4.093  19.301  0.00  0.00    +0.000 A 
ATOM     10  C   UNL     1       3.520   5.427  19.048  0.00  0.00    +0.000 A 
ATOM     11  C   UNL     1       2.748   6.449  19.593  0.00  0.00    +0.000 A 
ATOM     12  C   UNL     1       1.639   6.143  20.390  0.00  0.00    +0.000 A 
ATOM     13  C   UNL     1       1.296   4.805  20.610  0.00  0.00    +0.000 A 
ATOM     14  C   UNL     1       2.078   3.783  20.062  0.00  0.00    +0.000 A 
BRANCH   9  16
ATOM     15  C   UNL     1       3.659   1.817  18.894  0.00  0.00    +0.000 C 
ATOM     16  O   UNL     1       4.045   3.176  18.735  0.00  0.00    +0.000 OA
ENDBRANCH   9  16
ENDBRANCH   8  12
ENDBRANCH   7   8
ENDBRANCH   1   7
BRANCH   5  17
ATOM     17  C   UNL     1      -1.220  12.727  20.127  0.00  0.00    +0.000 C 
BRANCH  17  18
ATOM     18  C   UNL     1      -2.715  12.398  19.999  0.00  0.00    +0.000 C 
BRANCH  18  19
ATOM     19  C   UNL     1      -3.112  11.892  18.632  0.00  0.00    +0.000 A 
ATOM     20  C   UNL     1      -2.144  11.371  17.768  0.00  0.00    +0.000 A 
ATOM     21  C   UNL     1      -2.512  10.814  16.538  0.00  0.00    +0.000 A 
ATOM     22  C   UNL     1      -3.849  10.767  16.160  0.00  0.00    +0.000 A 
ATOM     23  C   UNL     1      -4.818  11.332  16.987  0.00  0.00    +0.000 A 
ATOM     24  C   UNL     1      -4.448  11.895  18.222  0.00  0.00    +0.000 A 
BRANCH  22  25
ATOM     25  O   UNL     1      -4.094  10.163  14.956  0.00  0.00    +0.000 OA
ATOM     26  C   UNL     1      -2.964  10.029  14.102  0.00  0.00    +0.000 C 
ENDBRANCH  22  25
ENDBRANCH  18  19
ENDBRANCH  17  18
ENDBRANCH   5  17
BRANCH   6  27
ATOM     27  C   UNL     1       1.387  11.353  19.703  0.00  0.00    +0.000 C 
BRANCH  27  28
ATOM     28  C   UNL     1       1.342  10.984  18.189  0.00  0.00    +0.000 C 
BRANCH  28  29
ATOM     29  O   UNL     1       2.464  11.385  17.393  0.00  0.00    +0.000 OA
ATOM     30  H   UNL     1       2.745  10.631  16.862  0.00  0.00    +0.000 HD
ENDBRANCH  28  29
BRANCH  28  31
ATOM     31  C   UNL     1       1.216   9.459  18.021  0.00  0.00    +0.000 C 
BRANCH  31  32
ATOM     32  O   UNL     1       2.281   8.973  17.204  0.00  0.00    +0.000 OA
ATOM     33  H   UNL     1       2.928   9.705  17.164  0.00  0.00    +0.000 HD
ENDBRANCH  31  32
ENDBRANCH  28  31
ENDBRANCH  27  28
ENDBRANCH   6  27
TORSDOF 13
ENDMDL
MODEL 3
REMARK VINA RESULT:      -6.9      2.912      5.515
REMARK  Name = 
REMARK  15 active torsions:
REMARK  status: ('A' for Active; 'I' for Inactive)
REMARK    1  A    between atoms: C_1  and  O_2
REMARK    2  A    between atoms: O_2  and  C_3
REMARK    3  A    between atoms: C_6  and  C_7
REMARK    4  A    between atoms: C_7  and  C_8
REMARK    5  A    between atoms: C_8  and  C_9
REMARK    6  A    between atoms: C_13  and  C_14
REMARK    7  A    between atoms: C_14  and  C_15
REMARK    8  A    between atoms: C_15  and  C_16
REMARK    9  A    between atoms: C_19  and  O_20
REMARK   10  A    between atoms: O_20  and  C_21
REMARK   11  A    between atoms: N_24  and  C_25
REMARK   12  A    between atoms: C_25  and  C_26
REMARK   13  A    between atoms: C_26  and  O_27
REMARK   14  A    between atoms: C_26  and  C_28
REMARK   15  A    between atoms: C_28  and  O_29
REMARK                            x       y       z     vdW  Elec       q    Type
REMARK                         _______ _______ _______ _____ _____    ______ ____
ROOT
ATOM      1  C   UNL     1      -0.699  11.015  21.101  0.00  0.00    +0.000 C 
ATOM      2  C   UNL     1      -0.259  10.311  22.414  0.00  0.00    +0.000 C 
ATOM      3  C   UNL     1       0.009   8.840  22.214  0.00  0.00    +0.000 C 
ATOM      4  C   UNL     1       1.073   8.686  21.157  0.00  0.00    +0.000 C 
ATOM      5  C   UNL     1       0.683   9.343  19.813  0.00  0.00    +0.000 C 
ATOM      6  N   UNL     1       0.288  10.777  20.005  0.00  0.00    +0.000 NA
ENDROOT
BRANCH   1   7
ATOM      7  C   UNL     1      -0.965  12.498  21.547  0.00  0.00    +0.000 C 
BRANCH   7   8
ATOM      8  C   UNL     1      -1.184  12.830  23.026  0.00  0.00    +0.000 C 
BRANCH   8  12
ATOM      9  C   UNL     1      -5.321  13.756  23.754  0.00  0.00    +0.000 A 
ATOM     10  C   UNL     1      -4.506  14.668  23.086  0.00  0.00    +0.000 A 
ATOM     11  C   UNL     1      -3.158  14.387  22.879  0.00  0.00    +0.000 A 
ATOM     12  C   UNL     1      -2.609  13.191  23.353  0.00  0.00    +0.000 A 
ATOM     13  C   UNL     1      -3.416  12.294  24.061  0.00  0.00    +0.000 A 
ATOM     14  C   UNL     1      -4.769  12.581  24.263  0.00  0.00    +0.000 A 
BRANCH   9  16
ATOM     15  C   UNL     1      -7.579  13.083  23.685  0.00  0.00    +0.000 C 
ATOM     16  O   UNL     1      -6.632  14.125  23.879  0.00  0.00    +0.000 OA
ENDBRANCH   9  16
ENDBRANCH   8  12
ENDBRANCH   7   8
ENDBRANCH   1   7
BRANCH   5  17
ATOM     17  C   UNL     1       1.896   9.155  18.834  0.00  0.00    +0.000 C 
BRANCH  17  18
ATOM     18  C   UNL     1       1.879   7.824  18.068  0.00  0.00    +0.000 C 
BRANCH  18  19
ATOM     19  C   UNL     1       3.144   7.013  18.227  0.00  0.00    +0.000 A 
ATOM     20  C   UNL     1       3.270   6.109  19.286  0.00  0.00    +0.000 A 
ATOM     21  C   UNL     1       4.397   5.286  19.390  0.00  0.00    +0.000 A 
ATOM     22  C   UNL     1       5.406   5.352  18.435  0.00  0.00    +0.000 A 
ATOM     23  C   UNL     1       5.318   6.286  17.405  0.00  0.00    +0.000 A 
ATOM     24  C   UNL     1       4.187   7.116  17.302  0.00  0.00    +0.000 A 
BRANCH  22  25
ATOM     25  O   UNL     1       6.438   4.471  18.616  0.00  0.00    +0.000 OA
ATOM     26  C   UNL     1       7.519   4.603  17.702  0.00  0.00    +0.000 C 
ENDBRANCH  22  25
ENDBRANCH  18  19
ENDBRANCH  17  18
ENDBRANCH   5  17
BRANCH   6  27
ATOM     27  C   UNL     1       0.007  11.454  18.719  0.00  0.00    +0.000 C 
BRANCH  27  28
ATOM     28  C   UNL     1      -1.442  11.653  18.182  0.00  0.00    +0.000 C 
BRANCH  28  29
ATOM     29  O   UNL     1      -1.593  12.484  17.025  0.00  0.00    +0.000 OA
ATOM     30  H   UNL     1      -0.775  12.448  16.515  0.00  0.00    +0.000 HD
ENDBRANCH  28  29
BRANCH  28  31
ATOM     31  C   UNL     1      -2.062  10.291  17.819  0.00  0.00    +0.000 C 
BRANCH  31  32
ATOM     32  O   UNL     1      -1.784   9.982  16.453  0.00  0.00    +0.000 OA
ATOM     33  H   UNL     1      -1.421  10.806  16.072  0.00  0.00    +0.000 HD
ENDBRANCH  31  32
ENDBRANCH  28  31
ENDBRANCH  27  28
ENDBRANCH   6  27
TORSDOF 13
ENDMDL
MODEL 4
REMARK VINA RESULT:      -6.9      3.109     11.095
REMARK  Name = 
REMARK  15 active torsions:
REMARK  status: ('A' for Active; 'I' for Inactive)
REMARK    1  A    between atoms: C_1  and  O_2
REMARK    2  A    between atoms: O_2  and  C_3
REMARK    3  A    between atoms: C_6  and  C_7
REMARK    4  A    between atoms: C_7  and  C_8
REMARK    5  A    between atoms: C_8  and  C_9
REMARK    6  A    between atoms: C_13  and  C_14
REMARK    7  A    between atoms: C_14  and  C_15
REMARK    8  A    between atoms: C_15  and  C_16
REMARK    9  A    between atoms: C_19  and  O_20
REMARK   10  A    between atoms: O_20  and  C_21
REMARK   11  A    between atoms: N_24  and  C_25
REMARK   12  A    between atoms: C_25  and  C_26
REMARK   13  A    between atoms: C_26  and  O_27
REMARK   14  A    between atoms: C_26  and  C_28
REMARK   15  A    between atoms: C_28  and  O_29
REMARK                            x       y       z     vdW  Elec       q    Type
REMARK                         _______ _______ _______ _____ _____    ______ ____
ROOT
ATOM      1  C   UNL     1       1.280   9.640  19.974  0.00  0.00    +0.000 C 
ATOM      2  C   UNL     1       0.885   8.547  21.004  0.00  0.00    +0.000 C 
ATOM      3  C   UNL     1       0.888   9.066  22.420  0.00  0.00    +0.000 C 
ATOM      4  C   UNL     1      -0.062  10.232  22.506  0.00  0.00    +0.000 C 
ATOM      5  C   UNL     1       0.294  11.370  21.522  0.00  0.00    +0.000 C 
ATOM      6  N   UNL     1       0.422  10.854  20.119  0.00  0.00    +0.000 NA
ENDROOT
BRANCH   1   7
ATOM      7  C   UNL     1       1.257   8.879  18.599  0.00  0.00    +0.000 C 
BRANCH   7   8
ATOM      8  C   UNL     1       2.556   8.651  17.823  0.00  0.00    +0.000 C 
BRANCH   8  12
ATOM      9  C   UNL     1       3.823   4.539  17.796  0.00  0.00    +0.000 A 
ATOM     10  C   UNL     1       2.712   4.926  18.545  0.00  0.00    +0.000 A 
ATOM     11  C   UNL     1       2.320   6.261  18.584  0.00  0.00    +0.000 A 
ATOM     12  C   UNL     1       3.048   7.228  17.882  0.00  0.00    +0.000 A 
ATOM     13  C   UNL     1       4.187   6.849  17.165  0.00  0.00    +0.000 A 
ATOM     14  C   UNL     1       4.574   5.505  17.127  0.00  0.00    +0.000 A 
BRANCH   9  16
ATOM     15  C   UNL     1       2.968   2.344  17.827  0.00  0.00    +0.000 C 
ATOM     16  O   UNL     1       4.101   3.202  17.811  0.00  0.00    +0.000 OA
ENDBRANCH   9  16
ENDBRANCH   8  12
ENDBRANCH   7   8
ENDBRANCH   1   7
BRANCH   5  17
ATOM     17  C   UNL     1      -0.802  12.483  21.680  0.00  0.00    +0.000 C 
BRANCH  17  18
ATOM     18  C   UNL     1      -1.489  12.491  23.054  0.00  0.00    +0.000 C 
BRANCH  18  19
ATOM     19  C   UNL     1      -2.995  12.578  22.982  0.00  0.00    +0.000 A 
ATOM     20  C   UNL     1      -3.758  12.527  24.153  0.00  0.00    +0.000 A 
ATOM     21  C   UNL     1      -5.146  12.700  24.108  0.00  0.00    +0.000 A 
ATOM     22  C   UNL     1      -5.786  12.931  22.896  0.00  0.00    +0.000 A 
ATOM     23  C   UNL     1      -5.045  12.929  21.715  0.00  0.00    +0.000 A 
ATOM     24  C   UNL     1      -3.650  12.752  21.760  0.00  0.00    +0.000 A 
BRANCH  22  25
ATOM     25  O   UNL     1      -7.138  13.127  22.979  0.00  0.00    +0.000 OA
ATOM     26  C   UNL     1      -7.917  12.414  22.026  0.00  0.00    +0.000 C 
ENDBRANCH  22  25
ENDBRANCH  18  19
ENDBRANCH  17  18
ENDBRANCH   5  17
BRANCH   6  27
ATOM     27  C   UNL     1       0.664  11.942  19.145  0.00  0.00    +0.000 C 
BRANCH  27  28
ATOM     28  C   UNL     1       2.097  12.452  18.806  0.00  0.00    +0.000 C 
BRANCH  28  29
ATOM     29  O   UNL     1       2.555  12.245  17.464  0.00  0.00    +0.000 OA
ATOM     30  H   UNL     1       1.967  12.720  16.865  0.00  0.00    +0.000 HD
ENDBRANCH  28  29
BRANCH  28  31
ATOM     31  C   UNL     1       2.193  13.967  19.066  0.00  0.00    +0.000 C 
BRANCH  31  32
ATOM     32  O   UNL     1       3.542  14.320  19.372  0.00  0.00    +0.000 OA
ATOM     33  H   UNL     1       3.711  15.144  18.872  0.00  0.00    +0.000 HD
ENDBRANCH  31  32
ENDBRANCH  28  31
ENDBRANCH  27  28
ENDBRANCH   6  27
TORSDOF 13
ENDMDL
MODEL 5
REMARK VINA RESULT:      -6.8      1.133      9.609
REMARK  Name = 
REMARK  15 active torsions:
REMARK  status: ('A' for Active; 'I' for Inactive)
REMARK    1  A    between atoms: C_1  and  O_2
REMARK    2  A    between atoms: O_2  and  C_3
REMARK    3  A    between atoms: C_6  and  C_7
REMARK    4  A    between atoms: C_7  and  C_8
REMARK    5  A    between atoms: C_8  and  C_9
REMARK    6  A    between atoms: C_13  and  C_14
REMARK    7  A    between atoms: C_14  and  C_15
REMARK    8  A    between atoms: C_15  and  C_16
REMARK    9  A    between atoms: C_19  and  O_20
REMARK   10  A    between atoms: O_20  and  C_21
REMARK   11  A    between atoms: N_24  and  C_25
REMARK   12  A    between atoms: C_25  and  C_26
REMARK   13  A    between atoms: C_26  and  O_27
REMARK   14  A    between atoms: C_26  and  C_28
REMARK   15  A    between atoms: C_28  and  O_29
REMARK                            x       y       z     vdW  Elec       q    Type
REMARK                         _______ _______ _______ _____ _____    ______ ____
ROOT
ATOM      1  C   UNL     1       3.436   5.607  18.483  0.00  0.00    +0.000 C 
ATOM      2  C   UNL     1       3.921   6.809  17.627  0.00  0.00    +0.000 C 
ATOM      3  C   UNL     1       2.845   7.849  17.437  0.00  0.00    +0.000 C 
ATOM      4  C   UNL     1       2.390   8.322  18.794  0.00  0.00    +0.000 C 
ATOM      5  C   UNL     1       1.868   7.174  19.687  0.00  0.00    +0.000 C 
ATOM      6  N   UNL     1       2.874   6.066  19.789  0.00  0.00    +0.000 NA
ENDROOT
BRANCH   1   7
ATOM      7  C   UNL     1       4.680   4.647  18.510  0.00  0.00    +0.000 C 
BRANCH   7   8
ATOM      8  C   UNL     1       6.031   5.121  17.970  0.00  0.00    +0.000 C 
BRANCH   8  12
ATOM      9  C   UNL     1       6.544   4.229  13.793  0.00  0.00    +0.000 A 
ATOM     10  C   UNL     1       5.567   3.569  14.535  0.00  0.00    +0.000 A 
ATOM     11  C   UNL     1       5.421   3.829  15.896  0.00  0.00    +0.000 A 
ATOM     12  C   UNL     1       6.265   4.747  16.530  0.00  0.00    +0.000 A 
ATOM     13  C   UNL     1       7.274   5.378  15.796  0.00  0.00    +0.000 A 
ATOM     14  C   UNL     1       7.413   5.115  14.429  0.00  0.00    +0.000 A 
BRANCH   9  16
ATOM     15  C   UNL     1       5.621   2.956  12.038  0.00  0.00    +0.000 C 
ATOM     16  O   UNL     1       6.581   3.914  12.464  0.00  0.00    +0.000 OA
ENDBRANCH   9  16
ENDBRANCH   8  12
ENDBRANCH   7   8
ENDBRANCH   1   7
BRANCH   5  17
ATOM     17  C   UNL     1       1.486   7.800  21.075  0.00  0.00    +0.000 C 
BRANCH  17  18
ATOM     18  C   UNL     1      -0.018   8.057  21.250  0.00  0.00    +0.000 C 
BRANCH  18  19
ATOM     19  C   UNL     1      -0.360   9.500  21.541  0.00  0.00    +0.000 A 
ATOM     20  C   UNL     1      -0.427  10.429  20.498  0.00  0.00    +0.000 A 
ATOM     21  C   UNL     1      -0.834  11.745  20.741  0.00  0.00    +0.000 A 
ATOM     22  C   UNL     1      -1.183  12.147  22.026  0.00  0.00    +0.000 A 
ATOM     23  C   UNL     1      -1.070  11.246  23.083  0.00  0.00    +0.000 A 
ATOM     24  C   UNL     1      -0.657   9.923  22.839  0.00  0.00    +0.000 A 
BRANCH  22  25
ATOM     25  O   UNL     1      -1.605  13.444  22.136  0.00  0.00    +0.000 OA
ATOM     26  C   UNL     1      -2.683  13.660  23.038  0.00  0.00    +0.000 C 
ENDBRANCH  22  25
ENDBRANCH  18  19
ENDBRANCH  17  18
ENDBRANCH   5  17
BRANCH   6  27
ATOM     27  C   UNL     1       2.437   5.001  20.719  0.00  0.00    +0.000 C 
BRANCH  27  28
ATOM     28  C   UNL     1       1.201   4.097  20.429  0.00  0.00    +0.000 C 
BRANCH  28  29
ATOM     29  O   UNL     1       0.862   3.889  19.052  0.00  0.00    +0.000 OA
ATOM     30  H   UNL     1       1.529   3.314  18.659  0.00  0.00    +0.000 HD
ENDBRANCH  28  29
BRANCH  28  31
ATOM     31  C   UNL     1       1.415   2.699  21.038  0.00  0.00    +0.000 C 
BRANCH  31  32
ATOM     32  O   UNL     1       1.869   2.824  22.386  0.00  0.00    +0.000 OA
ATOM     33  H   UNL     1       2.254   3.721  22.445  0.00  0.00    +0.000 HD
ENDBRANCH  31  32
ENDBRANCH  28  31
ENDBRANCH  27  28
ENDBRANCH   6  27
TORSDOF 13
ENDMDL
MODEL 6
REMARK VINA RESULT:      -6.8      2.848     10.710
REMARK  Name = 
REMARK  15 active torsions:
REMARK  status: ('A' for Active; 'I' for Inactive)
REMARK    1  A    between atoms: C_1  and  O_2
REMARK    2  A    between atoms: O_2  and  C_3
REMARK    3  A    between atoms: C_6  and  C_7
REMARK    4  A    between atoms: C_7  and  C_8
REMARK    5  A    between atoms: C_8  and  C_9
REMARK    6  A    between atoms: C_13  and  C_14
REMARK    7  A    between atoms: C_14  and  C_15
REMARK    8  A    between atoms: C_15  and  C_16
REMARK    9  A    between atoms: C_19  and  O_20
REMARK   10  A    between atoms: O_20  and  C_21
REMARK   11  A    between atoms: N_24  and  C_25
REMARK   12  A    between atoms: C_25  and  C_26
REMARK   13  A    between atoms: C_26  and  O_27
REMARK   14  A    between atoms: C_26  and  C_28
REMARK   15  A    between atoms: C_28  and  O_29
REMARK                            x       y       z     vdW  Elec       q    Type
REMARK                         _______ _______ _______ _____ _____    ______ ____
ROOT
ATOM      1  C   UNL     1       0.566   9.568  19.055  0.00  0.00    +0.000 C 
ATOM      2  C   UNL     1      -0.121   9.790  17.680  0.00  0.00    +0.000 C 
ATOM      3  C   UNL     1      -1.551  10.250  17.822  0.00  0.00    +0.000 C 
ATOM      4  C   UNL     1      -1.567  11.525  18.626  0.00  0.00    +0.000 C 
ATOM      5  C   UNL     1      -0.920  11.363  20.020  0.00  0.00    +0.000 C 
ATOM      6  N   UNL     1       0.460  10.786  19.914  0.00  0.00    +0.000 NA
ENDROOT
BRANCH   1   7
ATOM      7  C   UNL     1       2.002   9.056  18.672  0.00  0.00    +0.000 C 
BRANCH   7   8
ATOM      8  C   UNL     1       2.181   8.038  17.543  0.00  0.00    +0.000 C 
BRANCH   8  12
ATOM      9  C   UNL     1       4.339   4.600  18.965  0.00  0.00    +0.000 A 
ATOM     10  C   UNL     1       4.989   5.568  18.202  0.00  0.00    +0.000 A 
ATOM     11  C   UNL     1       4.285   6.664  17.710  0.00  0.00    +0.000 A 
ATOM     12  C   UNL     1       2.917   6.795  17.968  0.00  0.00    +0.000 A 
ATOM     13  C   UNL     1       2.254   5.802  18.698  0.00  0.00    +0.000 A 
ATOM     14  C   UNL     1       2.967   4.705  19.192  0.00  0.00    +0.000 A 
BRANCH   9  16
ATOM     15  C   UNL     1       4.439   2.449  19.923  0.00  0.00    +0.000 C 
ATOM     16  O   UNL     1       5.132   3.581  19.415  0.00  0.00    +0.000 OA
ENDBRANCH   9  16
ENDBRANCH   8  12
ENDBRANCH   7   8
ENDBRANCH   1   7
BRANCH   5  17
ATOM     17  C   UNL     1      -0.955  12.770  20.716  0.00  0.00    +0.000 C 
BRANCH  17  18
ATOM     18  C   UNL     1      -2.259  13.548  20.482  0.00  0.00    +0.000 C 
BRANCH  18  19
ATOM     19  C   UNL     1      -3.307  13.315  21.545  0.00  0.00    +0.000 A 
ATOM     20  C   UNL     1      -4.665  13.399  21.222  0.00  0.00    +0.000 A 
ATOM     21  C   UNL     1      -5.644  13.093  22.174  0.00  0.00    +0.000 A 
ATOM     22  C   UNL     1      -5.279  12.696  23.455  0.00  0.00    +0.000 A 
ATOM     23  C   UNL     1      -3.931  12.661  23.807  0.00  0.00    +0.000 A 
ATOM     24  C   UNL     1      -2.946  12.971  22.851  0.00  0.00    +0.000 A 
BRANCH  22  25
ATOM     25  O   UNL     1      -6.320  12.383  24.287  0.00  0.00    +0.000 OA
ATOM     26  C   UNL     1      -7.471  13.209  24.159  0.00  0.00    +0.000 C 
ENDBRANCH  22  25
ENDBRANCH  18  19
ENDBRANCH  17  18
ENDBRANCH   5  17
BRANCH   6  27
ATOM     27  C   UNL     1       1.137  10.715  21.228  0.00  0.00    +0.000 C 
BRANCH  27  28
ATOM     28  C   UNL     1       1.122   9.427  22.105  0.00  0.00    +0.000 C 
BRANCH  28  29
ATOM     29  O   UNL     1       2.202   9.263  23.031  0.00  0.00    +0.000 OA
ATOM     30  H   UNL     1       1.832   9.154  23.915  0.00  0.00    +0.000 HD
ENDBRANCH  28  29
BRANCH  28  31
ATOM     31  C   UNL     1      -0.173   9.371  22.937  0.00  0.00    +0.000 C 
BRANCH  31  32
ATOM     32  O   UNL     1      -0.423  10.646  23.529  0.00  0.00    +0.000 OA
ATOM     33  H   UNL     1      -0.005  11.294  22.927  0.00  0.00    +0.000 HD
ENDBRANCH  31  32
ENDBRANCH  28  31
ENDBRANCH  27  28
ENDBRANCH   6  27
TORSDOF 13
ENDMDL
MODEL 7
REMARK VINA RESULT:      -6.8      0.963      9.555
REMARK  Name = 
REMARK  15 active torsions:
REMARK  status: ('A' for Active; 'I' for Inactive)
REMARK    1  A    between atoms: C_1  and  O_2
REMARK    2  A    between atoms: O_2  and  C_3
REMARK    3  A    between atoms: C_6  and  C_7
REMARK    4  A    between atoms: C_7  and  C_8
REMARK    5  A    between atoms: C_8  and  C_9
REMARK    6  A    between atoms: C_13  and  C_14
REMARK    7  A    between atoms: C_14  and  C_15
REMARK    8  A    between atoms: C_15  and  C_16
REMARK    9  A    between atoms: C_19  and  O_20
REMARK   10  A    between atoms: O_20  and  C_21
REMARK   11  A    between atoms: N_24  and  C_25
REMARK   12  A    between atoms: C_25  and  C_26
REMARK   13  A    between atoms: C_26  and  O_27
REMARK   14  A    between atoms: C_26  and  C_28
REMARK   15  A    between atoms: C_28  and  O_29
REMARK                            x       y       z     vdW  Elec       q    Type
REMARK                         _______ _______ _______ _____ _____    ______ ____
ROOT
ATOM      1  C   UNL     1       3.232   5.786  18.841  0.00  0.00    +0.000 C 
ATOM      2  C   UNL     1       3.714   6.957  17.941  0.00  0.00    +0.000 C 
ATOM      3  C   UNL     1       2.631   7.979  17.703  0.00  0.00    +0.000 C 
ATOM      4  C   UNL     1       2.164   8.503  19.036  0.00  0.00    +0.000 C 
ATOM      5  C   UNL     1       1.645   7.388  19.972  0.00  0.00    +0.000 C 
ATOM      6  N   UNL     1       2.658   6.293  20.124  0.00  0.00    +0.000 NA
ENDROOT
BRANCH   1   7
ATOM      7  C   UNL     1       4.482   4.837  18.914  0.00  0.00    +0.000 C 
BRANCH   7   8
ATOM      8  C   UNL     1       4.684   3.746  17.859  0.00  0.00    +0.000 C 
BRANCH   8  12
ATOM      9  C   UNL     1       6.894   4.891  14.350  0.00  0.00    +0.000 A 
ATOM     10  C   UNL     1       7.446   5.075  15.616  0.00  0.00    +0.000 A 
ATOM     11  C   UNL     1       6.720   4.739  16.756  0.00  0.00    +0.000 A 
ATOM     12  C   UNL     1       5.424   4.225  16.637  0.00  0.00    +0.000 A 
ATOM     13  C   UNL     1       4.853   4.080  15.369  0.00  0.00    +0.000 A 
ATOM     14  C   UNL     1       5.588   4.416  14.228  0.00  0.00    +0.000 A 
BRANCH   9  16
ATOM     15  C   UNL     1       7.417   4.583  12.073  0.00  0.00    +0.000 C 
ATOM     16  O   UNL     1       7.704   5.233  13.304  0.00  0.00    +0.000 OA
ENDBRANCH   9  16
ENDBRANCH   8  12
ENDBRANCH   7   8
ENDBRANCH   1   7
BRANCH   5  17
ATOM     17  C   UNL     1       1.250   8.066  21.331  0.00  0.00    +0.000 C 
BRANCH  17  18
ATOM     18  C   UNL     1      -0.198   8.576  21.376  0.00  0.00    +0.000 C 
BRANCH  18  19
ATOM     19  C   UNL     1      -0.317  10.047  21.701  0.00  0.00    +0.000 A 
ATOM     20  C   UNL     1       0.248  11.001  20.849  0.00  0.00    +0.000 A 
ATOM     21  C   UNL     1       0.064  12.368  21.088  0.00  0.00    +0.000 A 
ATOM     22  C   UNL     1      -0.688  12.795  22.176  0.00  0.00    +0.000 A 
ATOM     23  C   UNL     1      -1.211  11.857  23.063  0.00  0.00    +0.000 A 
ATOM     24  C   UNL     1      -1.024  10.483  22.825  0.00  0.00    +0.000 A 
BRANCH  22  25
ATOM     25  O   UNL     1      -0.834  14.152  22.286  0.00  0.00    +0.000 OA
ATOM     26  C   UNL     1      -0.949  14.647  23.615  0.00  0.00    +0.000 C 
ENDBRANCH  22  25
ENDBRANCH  18  19
ENDBRANCH  17  18
ENDBRANCH   5  17
BRANCH   6  27
ATOM     27  C   UNL     1       2.223   5.263  21.094  0.00  0.00    +0.000 C 
BRANCH  27  28
ATOM     28  C   UNL     1       1.348   4.042  20.676  0.00  0.00    +0.000 C 
BRANCH  28  29
ATOM     29  O   UNL     1       0.863   4.027  19.328  0.00  0.00    +0.000 OA
ATOM     30  H   UNL     1       1.552   4.378  18.752  0.00  0.00    +0.000 HD
ENDBRANCH  28  29
BRANCH  28  31
ATOM     31  C   UNL     1       2.140   2.736  20.865  0.00  0.00    +0.000 C 
BRANCH  31  32
ATOM     32  O   UNL     1       2.570   2.623  22.222  0.00  0.00    +0.000 OA
ATOM     33  H   UNL     1       2.476   3.522  22.596  0.00  0.00    +0.000 HD
ENDBRANCH  31  32
ENDBRANCH  28  31
ENDBRANCH  27  28
ENDBRANCH   6  27
TORSDOF 13
ENDMDL
MODEL 8
REMARK VINA RESULT:      -6.7      2.838     11.161
REMARK  Name = 
REMARK  15 active torsions:
REMARK  status: ('A' for Active; 'I' for Inactive)
REMARK    1  A    between atoms: C_1  and  O_2
REMARK    2  A    between atoms: O_2  and  C_3
REMARK    3  A    between atoms: C_6  and  C_7
REMARK    4  A    between atoms: C_7  and  C_8
REMARK    5  A    between atoms: C_8  and  C_9
REMARK    6  A    between atoms: C_13  and  C_14
REMARK    7  A    between atoms: C_14  and  C_15
REMARK    8  A    between atoms: C_15  and  C_16
REMARK    9  A    between atoms: C_19  and  O_20
REMARK   10  A    between atoms: O_20  and  C_21
REMARK   11  A    between atoms: N_24  and  C_25
REMARK   12  A    between atoms: C_25  and  C_26
REMARK   13  A    between atoms: C_26  and  O_27
REMARK   14  A    between atoms: C_26  and  C_28
REMARK   15  A    between atoms: C_28  and  O_29
REMARK                            x       y       z     vdW  Elec       q    Type
REMARK                         _______ _______ _______ _____ _____    ______ ____
ROOT
ATOM      1  C   UNL     1       1.297   9.472  19.848  0.00  0.00    +0.000 C 
ATOM      2  C   UNL     1       1.280   8.377  20.950  0.00  0.00    +0.000 C 
ATOM      3  C   UNL     1       1.224   8.963  22.338  0.00  0.00    +0.000 C 
ATOM      4  C   UNL     1      -0.004   9.829  22.445  0.00  0.00    +0.000 C 
ATOM      5  C   UNL     1      -0.035  10.959  21.390  0.00  0.00    +0.000 C 
ATOM      6  N   UNL     1       0.147  10.413  20.005  0.00  0.00    +0.000 NA
ENDROOT
BRANCH   1   7
ATOM      7  C   UNL     1       1.403   8.651  18.512  0.00  0.00    +0.000 C 
BRANCH   7   8
ATOM      8  C   UNL     1       2.774   8.341  17.905  0.00  0.00    +0.000 C 
BRANCH   8  12
ATOM      9  C   UNL     1       3.593   4.124  17.674  0.00  0.00    +0.000 A 
ATOM     10  C   UNL     1       4.586   5.050  17.356  0.00  0.00    +0.000 A 
ATOM     11  C   UNL     1       4.314   6.415  17.395  0.00  0.00    +0.000 A 
ATOM     12  C   UNL     1       3.037   6.867  17.742  0.00  0.00    +0.000 A 
ATOM     13  C   UNL     1       2.028   5.939  18.020  0.00  0.00    +0.000 A 
ATOM     14  C   UNL     1       2.308   4.570  17.982  0.00  0.00    +0.000 A 
BRANCH   9  16
ATOM     15  C   UNL     1       3.641   2.037  18.766  0.00  0.00    +0.000 C 
ATOM     16  O   UNL     1       3.978   2.814  17.625  0.00  0.00    +0.000 OA
ENDBRANCH   9  16
ENDBRANCH   8  12
ENDBRANCH   7   8
ENDBRANCH   1   7
BRANCH   5  17
ATOM     17  C   UNL     1      -1.385  11.738  21.581  0.00  0.00    +0.000 C 
BRANCH  17  18
ATOM     18  C   UNL     1      -1.904  11.740  23.027  0.00  0.00    +0.000 C 
BRANCH  18  19
ATOM     19  C   UNL     1      -2.310  13.107  23.527  0.00  0.00    +0.000 A 
ATOM     20  C   UNL     1      -3.649  13.375  23.827  0.00  0.00    +0.000 A 
ATOM     21  C   UNL     1      -4.023  14.605  24.379  0.00  0.00    +0.000 A 
ATOM     22  C   UNL     1      -3.065  15.578  24.642  0.00  0.00    +0.000 A 
ATOM     23  C   UNL     1      -1.735  15.344  24.298  0.00  0.00    +0.000 A 
ATOM     24  C   UNL     1      -1.359  14.108  23.740  0.00  0.00    +0.000 A 
BRANCH  22  25
ATOM     25  O   UNL     1      -3.541  16.723  25.220  0.00  0.00    +0.000 OA
ATOM     26  C   UNL     1      -2.683  17.854  25.129  0.00  0.00    +0.000 C 
ENDBRANCH  22  25
ENDBRANCH  18  19
ENDBRANCH  17  18
ENDBRANCH   5  17
BRANCH   6  27
ATOM     27  C   UNL     1       0.021  11.464  18.971  0.00  0.00    +0.000 C 
BRANCH  27  28
ATOM     28  C   UNL     1      -1.295  11.687  18.166  0.00  0.00    +0.000 C 
BRANCH  28  29
ATOM     29  O   UNL     1      -1.251  12.658  17.113  0.00  0.00    +0.000 OA
ATOM     30  H   UNL     1      -1.998  13.258  17.222  0.00  0.00    +0.000 HD
ENDBRANCH  28  29
BRANCH  28  31
ATOM     31  C   UNL     1      -1.746  10.365  17.517  0.00  0.00    +0.000 C 
BRANCH  31  32
ATOM     32  O   UNL     1      -2.101  10.593  16.153  0.00  0.00    +0.000 OA
ATOM     33  H   UNL     1      -2.680  11.382  16.167  0.00  0.00    +0.000 HD
ENDBRANCH  31  32
ENDBRANCH  28  31
ENDBRANCH  27  28
ENDBRANCH   6  27
TORSDOF 13
ENDMDL
MODEL 9
REMARK VINA RESULT:      -6.7      2.798     11.365
REMARK  Name = 
REMARK  15 active torsions:
REMARK  status: ('A' for Active; 'I' for Inactive)
REMARK    1  A    between atoms: C_1  and  O_2
REMARK    2  A    between atoms: O_2  and  C_3
REMARK    3  A    between atoms: C_6  and  C_7
REMARK    4  A    between atoms: C_7  and  C_8
REMARK    5  A    between atoms: C_8  and  C_9
REMARK    6  A    between atoms: C_13  and  C_14
REMARK    7  A    between atoms: C_14  and  C_15
REMARK    8  A    between atoms: C_15  and  C_16
REMARK    9  A    between atoms: C_19  and  O_20
REMARK   10  A    between atoms: O_20  and  C_21
REMARK   11  A    between atoms: N_24  and  C_25
REMARK   12  A    between atoms: C_25  and  C_26
REMARK   13  A    between atoms: C_26  and  O_27
REMARK   14  A    between atoms: C_26  and  C_28
REMARK   15  A    between atoms: C_28  and  O_29
REMARK                            x       y       z     vdW  Elec       q    Type
REMARK                         _______ _______ _______ _____ _____    ______ ____
ROOT
ATOM      1  C   UNL     1       1.197   9.598  19.914  0.00  0.00    +0.000 C 
ATOM      2  C   UNL     1       1.065   8.420  20.917  0.00  0.00    +0.000 C 
ATOM      3  C   UNL     1       1.010   8.891  22.349  0.00  0.00    +0.000 C 
ATOM      4  C   UNL     1      -0.153   9.838  22.499  0.00  0.00    +0.000 C 
ATOM      5  C   UNL     1      -0.067  11.050  21.544  0.00  0.00    +0.000 C 
ATOM      6  N   UNL     1       0.116  10.609  20.122  0.00  0.00    +0.000 NA
ENDROOT
BRANCH   1   7
ATOM      7  C   UNL     1       1.283   8.885  18.516  0.00  0.00    +0.000 C 
BRANCH   7   8
ATOM      8  C   UNL     1       2.643   8.640  17.859  0.00  0.00    +0.000 C 
BRANCH   8  12
ATOM      9  C   UNL     1       3.701   4.478  17.597  0.00  0.00    +0.000 A 
ATOM     10  C   UNL     1       2.488   4.858  18.169  0.00  0.00    +0.000 A 
ATOM     11  C   UNL     1       2.158   6.206  18.287  0.00  0.00    +0.000 A 
ATOM     12  C   UNL     1       3.048   7.189  17.845  0.00  0.00    +0.000 A 
ATOM     13  C   UNL     1       4.285   6.811  17.310  0.00  0.00    +0.000 A 
ATOM     14  C   UNL     1       4.609   5.456  17.191  0.00  0.00    +0.000 A 
BRANCH   9  16
ATOM     15  C   UNL     1       2.765   2.321  17.744  0.00  0.00    +0.000 C 
ATOM     16  O   UNL     1       3.910   3.130  17.510  0.00  0.00    +0.000 OA
ENDBRANCH   9  16
ENDBRANCH   8  12
ENDBRANCH   7   8
ENDBRANCH   1   7
BRANCH   5  17
ATOM     17  C   UNL     1      -1.360  11.912  21.767  0.00  0.00    +0.000 C 
BRANCH  17  18
ATOM     18  C   UNL     1      -1.308  12.800  23.020  0.00  0.00    +0.000 C 
BRANCH  18  19
ATOM     19  C   UNL     1      -2.568  13.601  23.252  0.00  0.00    +0.000 A 
ATOM     20  C   UNL     1      -3.782  12.947  23.488  0.00  0.00    +0.000 A 
ATOM     21  C   UNL     1      -4.935  13.677  23.796  0.00  0.00    +0.000 A 
ATOM     22  C   UNL     1      -4.889  15.064  23.878  0.00  0.00    +0.000 A 
ATOM     23  C   UNL     1      -3.700  15.731  23.592  0.00  0.00    +0.000 A 
ATOM     24  C   UNL     1      -2.540  14.998  23.278  0.00  0.00    +0.000 A 
BRANCH  22  25
ATOM     25  O   UNL     1      -6.068  15.666  24.227  0.00  0.00    +0.000 OA
ATOM     26  C   UNL     1      -7.208  15.251  23.485  0.00  0.00    +0.000 C 
ENDBRANCH  22  25
ENDBRANCH  18  19
ENDBRANCH  17  18
ENDBRANCH   5  17
BRANCH   6  27
ATOM     27  C   UNL     1       0.101  11.749  19.178  0.00  0.00    +0.000 C 
BRANCH  27  28
ATOM     28  C   UNL     1      -1.165  12.132  18.355  0.00  0.00    +0.000 C 
BRANCH  28  29
ATOM     29  O   UNL     1      -1.010  13.166  17.376  0.00  0.00    +0.000 OA
ATOM     30  H   UNL     1      -0.565  12.792  16.606  0.00  0.00    +0.000 HD
ENDBRANCH  28  29
BRANCH  28  31
ATOM     31  C   UNL     1      -1.697  10.899  17.602  0.00  0.00    +0.000 C 
BRANCH  31  32
ATOM     32  O   UNL     1      -2.161  11.286  16.308  0.00  0.00    +0.000 OA
ATOM     33  H   UNL     1      -3.024  10.838  16.200  0.00  0.00    +0.000 HD
ENDBRANCH  31  32
ENDBRANCH  28  31
ENDBRANCH  27  28
ENDBRANCH   6  27
TORSDOF 13
ENDMDL
