MODEL 1
REMARK VINA RESULT:      -7.1      0.000      0.000
REMARK  Name = 
REMARK  0 active torsions:
REMARK  status: ('A' for Active; 'I' for Inactive)
REMARK                            x       y       z     vdW  Elec       q    Type
REMARK                         _______ _______ _______ _____ _____    ______ ____
ROOT
ATOM      1  C   UNL     1       1.105   2.967  20.328  0.00  0.00    +0.000 C 
ATOM      2  C   UNL     1       0.858   2.496  18.909  0.00  0.00    +0.000 C 
ATOM      3  C   UNL     1       2.144   2.405  18.108  0.00  0.00    +0.000 C 
ATOM      4  C   UNL     1       2.658   3.756  17.646  0.00  0.00    +0.000 C 
ATOM      5  C   UNL     1       3.294   4.671  18.704  0.00  0.00    +0.000 C 
ATOM      6  C   UNL     1       2.305   5.271  19.725  0.00  0.00    +0.000 C 
ATOM      7  C   UNL     1       1.249   4.468  20.486  0.00  0.00    +0.000 C 
ATOM      8  O   UNL     1       4.288   3.998  19.509  0.00  0.00    +0.000 OA
ATOM      9  O   UNL     1       5.589   4.070  18.845  0.00  0.00    +0.000 OA
ATOM     10  C   UNL     1       6.213   5.288  19.277  0.00  0.00    +0.000 C 
ATOM     11  C   UNL     1       6.794   5.994  18.058  0.00  0.00    +0.000 C 
ATOM     12  C   UNL     1       5.774   6.365  16.976  0.00  0.00    +0.000 C 
ATOM     13  O   UNL     1       4.653   5.492  16.916  0.00  0.00    +0.000 OA
ATOM     14  O   UNL     1       3.780   5.881  18.027  0.00  0.00    +0.000 OA
ENDROOT
TORSDOF 0
ENDMDL
MODEL 2
REMARK VINA RESULT:      -7.0      1.052      2.588
REMARK  Name = 
REMARK  0 active torsions:
REMARK  status: ('A' for Active; 'I' for Inactive)
REMARK                            x       y       z     vdW  Elec       q    Type
REMARK                         _______ _______ _______ _____ _____    ______ ____
ROOT
ATOM      1  C   UNL     1       1.311   3.306  18.183  0.00  0.00    +0.000 C 
ATOM      2  C   UNL     1       1.274   3.694  19.647  0.00  0.00    +0.000 C 
ATOM      3  C   UNL     1       2.122   4.920  19.933  0.00  0.00    +0.000 C 
ATOM      4  C   UNL     1       3.610   4.620  19.977  0.00  0.00    +0.000 C 
ATOM      5  C   UNL     1       4.317   4.350  18.640  0.00  0.00    +0.000 C 
ATOM      6  C   UNL     1       3.952   3.008  17.971  0.00  0.00    +0.000 C 
ATOM      7  C   UNL     1       2.526   2.498  17.768  0.00  0.00    +0.000 C 
ATOM      8  O   UNL     1       4.030   5.349  17.637  0.00  0.00    +0.000 OA
ATOM      9  O   UNL     1       4.972   6.461  17.768  0.00  0.00    +0.000 OA
ATOM     10  C   UNL     1       6.117   6.136  16.968  0.00  0.00    +0.000 C 
ATOM     11  C   UNL     1       7.374   6.430  17.779  0.00  0.00    +0.000 C 
ATOM     12  C   UNL     1       7.498   5.647  19.090  0.00  0.00    +0.000 C 
ATOM     13  O   UNL     1       6.250   5.304  19.677  0.00  0.00    +0.000 OA
ATOM     14  O   UNL     1       5.748   4.157  18.913  0.00  0.00    +0.000 OA
ENDROOT
TORSDOF 0
ENDMDL
MODEL 3
REMARK VINA RESULT:      -6.9      1.331      2.545
REMARK  Name = 
REMARK  0 active torsions:
REMARK  status: ('A' for Active; 'I' for Inactive)
REMARK                            x       y       z     vdW  Elec       q    Type
REMARK                         _______ _______ _______ _____ _____    ______ ____
ROOT
ATOM      1  C   UNL     1       0.960   3.125  19.432  0.00  0.00    +0.000 C 
ATOM      2  C   UNL     1       1.190   4.269  20.399  0.00  0.00    +0.000 C 
ATOM      3  C   UNL     1       2.132   5.315  19.831  0.00  0.00    +0.000 C 
ATOM      4  C   UNL     1       3.589   4.891  19.874  0.00  0.00    +0.000 C 
ATOM      5  C   UNL     1       4.047   3.824  18.868  0.00  0.00    +0.000 C 
ATOM      6  C   UNL     1       3.510   2.403  19.139  0.00  0.00    +0.000 C 
ATOM      7  C   UNL     1       2.047   2.067  19.427  0.00  0.00    +0.000 C 
ATOM      8  O   UNL     1       3.643   4.115  17.512  0.00  0.00    +0.000 OA
ATOM      9  O   UNL     1       4.645   4.967  16.873  0.00  0.00    +0.000 OA
ATOM     10  C   UNL     1       5.622   4.096  16.285  0.00  0.00    +0.000 C 
ATOM     11  C   UNL     1       7.010   4.621  16.633  0.00  0.00    +0.000 C 
ATOM     12  C   UNL     1       7.316   4.702  18.131  0.00  0.00    +0.000 C 
ATOM     13  O   UNL     1       6.170   4.921  18.944  0.00  0.00    +0.000 OA
ATOM     14  O   UNL     1       5.492   3.625  19.041  0.00  0.00    +0.000 OA
ENDROOT
TORSDOF 0
ENDMDL
MODEL 4
REMARK VINA RESULT:      -6.7      1.063      1.224
REMARK  Name = 
REMARK  0 active torsions:
REMARK  status: ('A' for Active; 'I' for Inactive)
REMARK                            x       y       z     vdW  Elec       q    Type
REMARK                         _______ _______ _______ _____ _____    ______ ____
ROOT
ATOM      1  C   UNL     1       1.528   4.224  20.911  0.00  0.00    +0.000 C 
ATOM      2  C   UNL     1       1.093   3.064  20.038  0.00  0.00    +0.000 C 
ATOM      3  C   UNL     1       2.269   2.396  19.350  0.00  0.00    +0.000 C 
ATOM      4  C   UNL     1       2.795   3.184  18.164  0.00  0.00    +0.000 C 
ATOM      5  C   UNL     1       3.597   4.460  18.461  0.00  0.00    +0.000 C 
ATOM      6  C   UNL     1       2.767   5.636  19.018  0.00  0.00    +0.000 C 
ATOM      7  C   UNL     1       1.768   5.525  20.169  0.00  0.00    +0.000 C 
ATOM      8  O   UNL     1       4.642   4.256  19.438  0.00  0.00    +0.000 OA
ATOM      9  O   UNL     1       5.858   3.797  18.768  0.00  0.00    +0.000 OA
ATOM     10  C   UNL     1       6.591   4.969  18.382  0.00  0.00    +0.000 C 
ATOM     11  C   UNL     1       7.061   4.794  16.942  0.00  0.00    +0.000 C 
ATOM     12  C   UNL     1       5.942   4.598  15.914  0.00  0.00    +0.000 C 
ATOM     13  O   UNL     1       4.778   3.972  16.440  0.00  0.00    +0.000 OA
ATOM     14  O   UNL     1       4.062   5.015  17.182  0.00  0.00    +0.000 OA
ENDROOT
TORSDOF 0
ENDMDL
MODEL 5
REMARK VINA RESULT:      -6.6      1.449      4.756
REMARK  Name = 
REMARK  0 active torsions:
REMARK  status: ('A' for Active; 'I' for Inactive)
REMARK                            x       y       z     vdW  Elec       q    Type
REMARK                         _______ _______ _______ _____ _____    ______ ____
ROOT
ATOM      1  C   UNL     1       6.772   4.389  16.705  0.00  0.00    +0.000 C 
ATOM      2  C   UNL     1       7.052   5.534  17.656  0.00  0.00    +0.000 C 
ATOM      3  C   UNL     1       6.471   5.285  19.036  0.00  0.00    +0.000 C 
ATOM      4  C   UNL     1       4.971   5.504  19.101  0.00  0.00    +0.000 C 
ATOM      5  C   UNL     1       4.071   4.444  18.448  0.00  0.00    +0.000 C 
ATOM      6  C   UNL     1       4.113   4.416  16.906  0.00  0.00    +0.000 C 
ATOM      7  C   UNL     1       5.393   4.409  16.072  0.00  0.00    +0.000 C 
ATOM      8  O   UNL     1       4.404   3.096  18.848  0.00  0.00    +0.000 OA
ATOM      9  O   UNL     1       3.694   2.759  20.081  0.00  0.00    +0.000 OA
ATOM     10  C   UNL     1       2.421   2.220  19.697  0.00  0.00    +0.000 C 
ATOM     11  C   UNL     1       1.342   2.862  20.561  0.00  0.00    +0.000 C 
ATOM     12  C   UNL     1       1.243   4.386  20.449  0.00  0.00    +0.000 C 
ATOM     13  O   UNL     1       2.474   5.023  20.131  0.00  0.00    +0.000 OA
ATOM     14  O   UNL     1       2.672   4.821  18.693  0.00  0.00    +0.000 OA
ENDROOT
TORSDOF 0
ENDMDL
MODEL 6
REMARK VINA RESULT:      -6.5      1.464      4.801
REMARK  Name = 
REMARK  0 active torsions:
REMARK  status: ('A' for Active; 'I' for Inactive)
REMARK                            x       y       z     vdW  Elec       q    Type
REMARK                         _______ _______ _______ _____ _____    ______ ____
ROOT
ATOM      1  C   UNL     1       6.848   6.420  17.224  0.00  0.00    +0.000 C 
ATOM      2  C   UNL     1       6.827   5.503  16.018  0.00  0.00    +0.000 C 
ATOM      3  C   UNL     1       5.428   5.005  15.705  0.00  0.00    +0.000 C 
ATOM      4  C   UNL     1       4.963   3.904  16.640  0.00  0.00    +0.000 C 
ATOM      5  C   UNL     1       4.580   4.305  18.073  0.00  0.00    +0.000 C 
ATOM      6  C   UNL     1       5.765   4.721  18.970  0.00  0.00    +0.000 C 
ATOM      7  C   UNL     1       6.856   5.711  18.565  0.00  0.00    +0.000 C 
ATOM      8  O   UNL     1       3.673   5.429  18.122  0.00  0.00    +0.000 OA
ATOM      9  O   UNL     1       2.294   4.953  18.021  0.00  0.00    +0.000 OA
ATOM     10  C   UNL     1       1.850   4.669  19.355  0.00  0.00    +0.000 C 
ATOM     11  C   UNL     1       1.146   3.317  19.355  0.00  0.00    +0.000 C 
ATOM     12  C   UNL     1       2.009   2.136  18.902  0.00  0.00    +0.000 C 
ATOM     13  O   UNL     1       3.029   2.488  17.976  0.00  0.00    +0.000 OA
ATOM     14  O   UNL     1       4.097   3.105  18.769  0.00  0.00    +0.000 OA
ENDROOT
TORSDOF 0
ENDMDL
MODEL 7
REMARK VINA RESULT:      -6.4      1.494      2.019
REMARK  Name = 
REMARK  0 active torsions:
REMARK  status: ('A' for Active; 'I' for Inactive)
REMARK                            x       y       z     vdW  Elec       q    Type
REMARK                         _______ _______ _______ _____ _____    ______ ____
ROOT
ATOM      1  C   UNL     1       1.915   2.104  18.940  0.00  0.00    +0.000 C 
ATOM      2  C   UNL     1       1.023   3.314  18.751  0.00  0.00    +0.000 C 
ATOM      3  C   UNL     1       1.533   4.233  17.655  0.00  0.00    +0.000 C 
ATOM      4  C   UNL     1       2.714   5.082  18.089  0.00  0.00    +0.000 C 
ATOM      5  C   UNL     1       4.074   4.381  18.237  0.00  0.00    +0.000 C 
ATOM      6  C   UNL     1       4.181   3.418  19.439  0.00  0.00    +0.000 C 
ATOM      7  C   UNL     1       3.149   2.347  19.788  0.00  0.00    +0.000 C 
ATOM      8  O   UNL     1       4.422   3.575  17.090  0.00  0.00    +0.000 OA
ATOM      9  O   UNL     1       5.099   4.404  16.094  0.00  0.00    +0.000 OA
ATOM     10  C   UNL     1       6.499   4.377  16.409  0.00  0.00    +0.000 C 
ATOM     11  C   UNL     1       7.039   5.801  16.339  0.00  0.00    +0.000 C 
ATOM     12  C   UNL     1       6.376   6.794  17.299  0.00  0.00    +0.000 C 
ATOM     13  O   UNL     1       5.023   6.483  17.607  0.00  0.00    +0.000 OA
ATOM     14  O   UNL     1       5.074   5.398  18.591  0.00  0.00    +0.000 OA
ENDROOT
TORSDOF 0
ENDMDL
MODEL 8
REMARK VINA RESULT:      -6.4      1.085      2.439
REMARK  Name = 
REMARK  0 active torsions:
REMARK  status: ('A' for Active; 'I' for Inactive)
REMARK                            x       y       z     vdW  Elec       q    Type
REMARK                         _______ _______ _______ _____ _____    ______ ____
ROOT
ATOM      1  C   UNL     1       0.613   3.023  19.546  0.00  0.00    +0.000 C 
ATOM      2  C   UNL     1       1.262   3.076  20.914  0.00  0.00    +0.000 C 
ATOM      3  C   UNL     1       2.304   4.176  21.007  0.00  0.00    +0.000 C 
ATOM      4  C   UNL     1       3.611   3.821  20.322  0.00  0.00    +0.000 C 
ATOM      5  C   UNL     1       3.631   3.830  18.786  0.00  0.00    +0.000 C 
ATOM      6  C   UNL     1       2.840   2.685  18.119  0.00  0.00    +0.000 C 
ATOM      7  C   UNL     1       1.412   2.284  18.489  0.00  0.00    +0.000 C 
ATOM      8  O   UNL     1       3.073   5.037  18.220  0.00  0.00    +0.000 OA
ATOM      9  O   UNL     1       4.116   6.057  18.115  0.00  0.00    +0.000 OA
ATOM     10  C   UNL     1       4.751   5.877  16.841  0.00  0.00    +0.000 C 
ATOM     11  C   UNL     1       6.261   5.938  17.039  0.00  0.00    +0.000 C 
ATOM     12  C   UNL     1       6.834   4.880  17.987  0.00  0.00    +0.000 C 
ATOM     13  O   UNL     1       5.928   4.459  18.999  0.00  0.00    +0.000 OA
ATOM     14  O   UNL     1       5.000   3.530  18.346  0.00  0.00    +0.000 OA
ENDROOT
TORSDOF 0
ENDMDL
MODEL 9
REMARK VINA RESULT:      -6.4      1.339      4.852
REMARK  Name = 
REMARK  0 active torsions:
REMARK  status: ('A' for Active; 'I' for Inactive)
REMARK                            x       y       z     vdW  Elec       q    Type
REMARK                         _______ _______ _______ _____ _____    ______ ____
ROOT
ATOM      1  C   UNL     1       7.116   5.610  16.863  0.00  0.00    +0.000 C 
ATOM      2  C   UNL     1       7.200   6.162  18.272  0.00  0.00    +0.000 C 
ATOM      3  C   UNL     1       6.486   5.275  19.275  0.00  0.00    +0.000 C 
ATOM      4  C   UNL     1       4.976   5.420  19.232  0.00  0.00    +0.000 C 
ATOM      5  C   UNL     1       4.238   4.793  18.040  0.00  0.00    +0.000 C 
ATOM      6  C   UNL     1       4.457   5.509  16.690  0.00  0.00    +0.000 C 
ATOM      7  C   UNL     1       5.821   5.917  16.135  0.00  0.00    +0.000 C 
ATOM      8  O   UNL     1       4.623   3.422  17.794  0.00  0.00    +0.000 OA
ATOM      9  O   UNL     1       3.804   2.528  18.611  0.00  0.00    +0.000 OA
ATOM     10  C   UNL     1       2.626   2.225  17.849  0.00  0.00    +0.000 C 
ATOM     11  C   UNL     1       1.411   2.362  18.759  0.00  0.00    +0.000 C 
ATOM     12  C   UNL     1       1.212   3.753  19.370  0.00  0.00    +0.000 C 
ATOM     13  O   UNL     1       2.420   4.477  19.562  0.00  0.00    +0.000 OA
ATOM     14  O   UNL     1       2.796   4.992  18.241  0.00  0.00    +0.000 OA
ENDROOT
TORSDOF 0
ENDMDL
