MODEL 1
REMARK VINA RESULT:      -7.6      0.000      0.000
REMARK  Name = 
REMARK  6 active torsions:
REMARK  status: ('A' for Active; 'I' for Inactive)
REMARK    1  A    between atoms: C_1  and  S_2
REMARK    2  A    between atoms: S_2  and  N_5
REMARK    3  A    between atoms: N_5  and  C_6
REMARK    4  A    between atoms: C_6  and  C_7
REMARK    5  A    between atoms: N_14  and  C_15
REMARK    6  A    between atoms: C_20  and  N_21
REMARK                            x       y       z     vdW  Elec       q    Type
REMARK                         _______ _______ _______ _____ _____    ______ ____
ROOT
ATOM      1  C   UNL     1       1.188   2.903  20.110  0.00  0.00    +0.000 C 
ATOM      2  C   UNL     1       2.053   2.198  21.168  0.00  0.00    +0.000 C 
ATOM      3  C   UNL     1       3.535   2.555  21.018  0.00  0.00    +0.000 C 
ATOM      4  C   UNL     1       4.058   2.334  19.595  0.00  0.00    +0.000 C 
ATOM      5  N   UNL     1       3.166   2.882  18.576  0.00  0.00    +0.000 N 
ATOM      6  C   UNL     1       3.561   3.371  17.327  0.00  0.00    +0.000 C 
ATOM      7  O   UNL     1       2.713   3.842  16.569  0.00  0.00    +0.000 OA
ATOM      8  N   UNL     1       4.907   3.282  17.043  0.00  0.00    +0.000 N 
ATOM      9  C   UNL     1       1.741   2.564  18.727  0.00  0.00    +0.000 C 
ATOM     10  H   UNL     1       5.386   2.490  17.432  0.00  0.00    +0.000 HD
ENDROOT
BRANCH   8  11
ATOM     11  C   UNL     1       5.567   3.846  15.910  0.00  0.00    +0.000 A 
ATOM     12  C   UNL     1       5.347   3.296  14.630  0.00  0.00    +0.000 A 
ATOM     13  C   UNL     1       6.070   3.713  13.517  0.00  0.00    +0.000 A 
ATOM     14  C   UNL     1       7.001   4.720  13.657  0.00  0.00    +0.000 A 
ATOM     15  C   UNL     1       7.194   5.314  14.911  0.00  0.00    +0.000 A 
ATOM     16  C   UNL     1       6.482   4.928  16.073  0.00  0.00    +0.000 A 
BRANCH  16  17
ATOM     17  N   UNL     1       6.739   5.558  17.299  0.00  0.00    +0.000 N 
ATOM     18  C   UNL     1       6.752   7.024  17.425  0.00  0.00    +0.000 C 
ATOM     19  C   UNL     1       7.981   7.329  18.284  0.00  0.00    +0.000 C 
ATOM     20  C   UNL     1       8.063   6.123  19.199  0.00  0.00    +0.000 C 
ATOM     21  C   UNL     1       7.686   4.974  18.272  0.00  0.00    +0.000 C 
ENDBRANCH  16  17
ENDBRANCH   8  11
BRANCH   1  22
ATOM     22  C   UNL     1       1.100   4.414  20.407  0.00  0.00    +0.000 C 
BRANCH  22  23
ATOM     23  N   UNL     1       1.476   5.247  19.255  0.00  0.00    +0.000 NA
ATOM     24  H   UNL     1       1.650   4.759  18.371  0.00  0.00    +0.000 HD
BRANCH  23  26
ATOM     25  C   UNL     1       2.637   7.329  17.945  0.00  0.00    +0.000 C 
ATOM     26  S   UNL     1       2.598   6.480  19.516  0.00  0.00    +0.000 S 
ATOM     27  O   UNL     1       3.892   5.869  19.727  0.00  0.00    +0.000 OA
ATOM     28  O   UNL     1       2.010   7.373  20.488  0.00  0.00    +0.000 OA
ENDBRANCH  23  26
ENDBRANCH  22  23
ENDBRANCH   1  22
TORSDOF 5
ENDMDL
MODEL 2
REMARK VINA RESULT:      -7.5      4.230      8.014
REMARK  Name = 
REMARK  6 active torsions:
REMARK  status: ('A' for Active; 'I' for Inactive)
REMARK    1  A    between atoms: C_1  and  S_2
REMARK    2  A    between atoms: S_2  and  N_5
REMARK    3  A    between atoms: N_5  and  C_6
REMARK    4  A    between atoms: C_6  and  C_7
REMARK    5  A    between atoms: N_14  and  C_15
REMARK    6  A    between atoms: C_20  and  N_21
REMARK                            x       y       z     vdW  Elec       q    Type
REMARK                         _______ _______ _______ _____ _____    ______ ____
ROOT
ATOM      1  C   UNL     1       3.886   4.902  17.942  0.00  0.00    +0.000 C 
ATOM      2  C   UNL     1       4.472   5.767  16.814  0.00  0.00    +0.000 C 
ATOM      3  C   UNL     1       4.564   7.241  17.219  0.00  0.00    +0.000 C 
ATOM      4  C   UNL     1       3.237   7.795  17.748  0.00  0.00    +0.000 C 
ATOM      5  N   UNL     1       2.604   6.907  18.721  0.00  0.00    +0.000 N 
ATOM      6  C   UNL     1       1.781   7.312  19.776  0.00  0.00    +0.000 C 
ATOM      7  O   UNL     1       1.338   6.465  20.552  0.00  0.00    +0.000 OA
ATOM      8  N   UNL     1       1.529   8.665  19.859  0.00  0.00    +0.000 N 
ATOM      9  C   UNL     1       2.536   5.489  18.351  0.00  0.00    +0.000 C 
ATOM     10  H   UNL     1       1.482   9.157  18.986  0.00  0.00    +0.000 HD
ENDROOT
BRANCH   8  11
ATOM     11  C   UNL     1       0.851   9.329  20.925  0.00  0.00    +0.000 A 
ATOM     12  C   UNL     1       1.069   8.915  22.256  0.00  0.00    +0.000 A 
ATOM     13  C   UNL     1       0.331   9.431  23.316  0.00  0.00    +0.000 A 
ATOM     14  C   UNL     1      -0.616  10.403  23.068  0.00  0.00    +0.000 A 
ATOM     15  C   UNL     1      -0.808  10.863  21.760  0.00  0.00    +0.000 A 
ATOM     16  C   UNL     1      -0.080  10.373  20.647  0.00  0.00    +0.000 A 
BRANCH  16  17
ATOM     17  N   UNL     1      -0.338  10.872  19.361  0.00  0.00    +0.000 N 
ATOM     18  C   UNL     1       0.317  12.090  18.862  0.00  0.00    +0.000 C 
ATOM     19  C   UNL     1      -0.800  12.879  18.177  0.00  0.00    +0.000 C 
ATOM     20  C   UNL     1      -1.703  11.787  17.636  0.00  0.00    +0.000 C 
ATOM     21  C   UNL     1      -1.678  10.749  18.752  0.00  0.00    +0.000 C 
ENDBRANCH  16  17
ENDBRANCH   8  11
BRANCH   1  22
ATOM     22  C   UNL     1       4.897   4.769  19.099  0.00  0.00    +0.000 C 
BRANCH  22  23
ATOM     23  N   UNL     1       5.408   3.399  19.259  0.00  0.00    +0.000 NA
ATOM     24  H   UNL     1       5.905   2.996  18.458  0.00  0.00    +0.000 HD
BRANCH  23  26
ATOM     25  C   UNL     1       3.675   1.408  18.603  0.00  0.00    +0.000 C 
ATOM     26  S   UNL     1       4.393   2.269  19.993  0.00  0.00    +0.000 S 
ATOM     27  O   UNL     1       3.336   2.989  20.668  0.00  0.00    +0.000 OA
ATOM     28  O   UNL     1       5.250   1.340  20.695  0.00  0.00    +0.000 OA
ENDBRANCH  23  26
ENDBRANCH  22  23
ENDBRANCH   1  22
TORSDOF 5
ENDMDL
MODEL 3
REMARK VINA RESULT:      -7.3      4.343      6.511
REMARK  Name = 
REMARK  6 active torsions:
REMARK  status: ('A' for Active; 'I' for Inactive)
REMARK    1  A    between atoms: C_1  and  S_2
REMARK    2  A    between atoms: S_2  and  N_5
REMARK    3  A    between atoms: N_5  and  C_6
REMARK    4  A    between atoms: C_6  and  C_7
REMARK    5  A    between atoms: N_14  and  C_15
REMARK    6  A    between atoms: C_20  and  N_21
REMARK                            x       y       z     vdW  Elec       q    Type
REMARK                         _______ _______ _______ _____ _____    ______ ____
ROOT
ATOM      1  C   UNL     1       0.350  11.018  20.137  0.00  0.00    +0.000 C 
ATOM      2  C   UNL     1       0.104  10.452  21.545  0.00  0.00    +0.000 C 
ATOM      3  C   UNL     1       1.164   9.417  21.934  0.00  0.00    +0.000 C 
ATOM      4  C   UNL     1       1.329   8.315  20.883  0.00  0.00    +0.000 C 
ATOM      5  N   UNL     1       1.424   8.841  19.524  0.00  0.00    +0.000 N 
ATOM      6  C   UNL     1       2.128   8.251  18.470  0.00  0.00    +0.000 C 
ATOM      7  O   UNL     1       2.161   8.816  17.377  0.00  0.00    +0.000 OA
ATOM      8  N   UNL     1       2.743   7.051  18.754  0.00  0.00    +0.000 N 
ATOM      9  C   UNL     1       0.427   9.853  19.153  0.00  0.00    +0.000 C 
ATOM     10  H   UNL     1       2.273   6.462  19.418  0.00  0.00    +0.000 HD
ENDROOT
BRANCH   8  11
ATOM     11  C   UNL     1       3.636   6.340  17.896  0.00  0.00    +0.000 A 
ATOM     12  C   UNL     1       4.573   7.054  17.120  0.00  0.00    +0.000 A 
ATOM     13  C   UNL     1       5.367   6.426  16.166  0.00  0.00    +0.000 A 
ATOM     14  C   UNL     1       5.266   5.060  15.998  0.00  0.00    +0.000 A 
ATOM     15  C   UNL     1       4.380   4.329  16.798  0.00  0.00    +0.000 A 
ATOM     16  C   UNL     1       3.553   4.920  17.785  0.00  0.00    +0.000 A 
BRANCH  16  17
ATOM     17  N   UNL     1       2.677   4.126  18.539  0.00  0.00    +0.000 N 
ATOM     18  C   UNL     1       3.163   3.002  19.354  0.00  0.00    +0.000 C 
ATOM     19  C   UNL     1       2.175   1.867  19.081  0.00  0.00    +0.000 C 
ATOM     20  C   UNL     1       0.870   2.602  18.848  0.00  0.00    +0.000 C 
ATOM     21  C   UNL     1       1.313   3.827  18.055  0.00  0.00    +0.000 C 
ENDBRANCH  16  17
ENDBRANCH   8  11
BRANCH   1  22
ATOM     22  C   UNL     1       1.591  11.935  20.135  0.00  0.00    +0.000 C 
BRANCH  22  23
ATOM     23  N   UNL     1       1.533  12.978  21.170  0.00  0.00    +0.000 NA
ATOM     24  H   UNL     1       0.604  13.338  21.412  0.00  0.00    +0.000 HD
BRANCH  23  26
ATOM     25  C   UNL     1       1.870  15.564  21.944  0.00  0.00    +0.000 C 
ATOM     26  S   UNL     1       2.679  14.215  21.098  0.00  0.00    +0.000 S 
ATOM     27  O   UNL     1       2.843  14.590  19.711  0.00  0.00    +0.000 OA
ATOM     28  O   UNL     1       3.796  13.790  21.910  0.00  0.00    +0.000 OA
ENDBRANCH  23  26
ENDBRANCH  22  23
ENDBRANCH   1  22
TORSDOF 5
ENDMDL
MODEL 4
REMARK VINA RESULT:      -7.2      1.340      1.553
REMARK  Name = 
REMARK  6 active torsions:
REMARK  status: ('A' for Active; 'I' for Inactive)
REMARK    1  A    between atoms: C_1  and  S_2
REMARK    2  A    between atoms: S_2  and  N_5
REMARK    3  A    between atoms: N_5  and  C_6
REMARK    4  A    between atoms: C_6  and  C_7
REMARK    5  A    between atoms: N_14  and  C_15
REMARK    6  A    between atoms: C_20  and  N_21
REMARK                            x       y       z     vdW  Elec       q    Type
REMARK                         _______ _______ _______ _____ _____    ______ ____
ROOT
ATOM      1  C   UNL     1       1.277   4.479  20.556  0.00  0.00    +0.000 C 
ATOM      2  C   UNL     1       1.655   3.176  21.279  0.00  0.00    +0.000 C 
ATOM      3  C   UNL     1       3.088   2.744  20.956  0.00  0.00    +0.000 C 
ATOM      4  C   UNL     1       3.363   2.676  19.451  0.00  0.00    +0.000 C 
ATOM      5  N   UNL     1       2.878   3.854  18.736  0.00  0.00    +0.000 N 
ATOM      6  C   UNL     1       3.436   4.384  17.569  0.00  0.00    +0.000 C 
ATOM      7  O   UNL     1       2.955   5.408  17.083  0.00  0.00    +0.000 OA
ATOM      8  N   UNL     1       4.509   3.694  17.047  0.00  0.00    +0.000 N 
ATOM      9  C   UNL     1       1.514   4.290  19.059  0.00  0.00    +0.000 C 
ATOM     10  H   UNL     1       4.495   2.699  17.173  0.00  0.00    +0.000 HD
ENDROOT
BRANCH   8  11
ATOM     11  C   UNL     1       5.333   4.118  15.961  0.00  0.00    +0.000 A 
ATOM     12  C   UNL     1       5.083   3.626  14.662  0.00  0.00    +0.000 A 
ATOM     13  C   UNL     1       5.938   3.893  13.599  0.00  0.00    +0.000 A 
ATOM     14  C   UNL     1       7.043   4.692  13.806  0.00  0.00    +0.000 A 
ATOM     15  C   UNL     1       7.277   5.232  15.076  0.00  0.00    +0.000 A 
ATOM     16  C   UNL     1       6.436   4.993  16.191  0.00  0.00    +0.000 A 
BRANCH  16  17
ATOM     17  N   UNL     1       6.742   5.556  17.439  0.00  0.00    +0.000 N 
ATOM     18  C   UNL     1       6.893   7.008  17.614  0.00  0.00    +0.000 C 
ATOM     19  C   UNL     1       8.138   7.168  18.487  0.00  0.00    +0.000 C 
ATOM     20  C   UNL     1       8.099   5.930  19.362  0.00  0.00    +0.000 C 
ATOM     21  C   UNL     1       7.622   4.852  18.395  0.00  0.00    +0.000 C 
ENDBRANCH  16  17
ENDBRANCH   8  11
BRANCH   1  22
ATOM     22  C   UNL     1       2.031   5.675  21.173  0.00  0.00    +0.000 C 
BRANCH  22  23
ATOM     23  N   UNL     1       1.913   6.902  20.370  0.00  0.00    +0.000 NA
ATOM     24  H   UNL     1       2.757   7.214  19.879  0.00  0.00    +0.000 HD
BRANCH  23  26
ATOM     25  C   UNL     1       1.076   9.409  19.731  0.00  0.00    +0.000 C 
ATOM     26  S   UNL     1       1.071   8.199  21.045  0.00  0.00    +0.000 S 
ATOM     27  O   UNL     1       1.859   8.723  22.138  0.00  0.00    +0.000 OA
ATOM     28  O   UNL     1      -0.291   7.754  21.232  0.00  0.00    +0.000 OA
ENDBRANCH  23  26
ENDBRANCH  22  23
ENDBRANCH   1  22
TORSDOF 5
ENDMDL
MODEL 5
REMARK VINA RESULT:      -7.2      4.432      6.584
REMARK  Name = 
REMARK  6 active torsions:
REMARK  status: ('A' for Active; 'I' for Inactive)
REMARK    1  A    between atoms: C_1  and  S_2
REMARK    2  A    between atoms: S_2  and  N_5
REMARK    3  A    between atoms: N_5  and  C_6
REMARK    4  A    between atoms: C_6  and  C_7
REMARK    5  A    between atoms: N_14  and  C_15
REMARK    6  A    between atoms: C_20  and  N_21
REMARK                            x       y       z     vdW  Elec       q    Type
REMARK                         _______ _______ _______ _____ _____    ______ ____
ROOT
ATOM      1  C   UNL     1       0.210  11.004  20.298  0.00  0.00    +0.000 C 
ATOM      2  C   UNL     1      -0.011  10.413  21.700  0.00  0.00    +0.000 C 
ATOM      3  C   UNL     1       1.074   9.395  22.064  0.00  0.00    +0.000 C 
ATOM      4  C   UNL     1       1.252   8.311  20.996  0.00  0.00    +0.000 C 
ATOM      5  N   UNL     1       1.323   8.858  19.644  0.00  0.00    +0.000 N 
ATOM      6  C   UNL     1       2.028   8.298  18.575  0.00  0.00    +0.000 C 
ATOM      7  O   UNL     1       2.039   8.879  17.490  0.00  0.00    +0.000 OA
ATOM      8  N   UNL     1       2.671   7.106  18.836  0.00  0.00    +0.000 N 
ATOM      9  C   UNL     1       0.301   9.853  19.296  0.00  0.00    +0.000 C 
ATOM     10  H   UNL     1       2.220   6.499  19.496  0.00  0.00    +0.000 HD
ENDROOT
BRANCH   8  11
ATOM     11  C   UNL     1       3.570   6.427  17.960  0.00  0.00    +0.000 A 
ATOM     12  C   UNL     1       4.478   7.171  17.178  0.00  0.00    +0.000 A 
ATOM     13  C   UNL     1       5.274   6.573  16.207  0.00  0.00    +0.000 A 
ATOM     14  C   UNL     1       5.206   5.206  16.028  0.00  0.00    +0.000 A 
ATOM     15  C   UNL     1       4.349   4.446  16.833  0.00  0.00    +0.000 A 
ATOM     16  C   UNL     1       3.521   5.006  17.836  0.00  0.00    +0.000 A 
BRANCH  16  17
ATOM     17  N   UNL     1       2.676   4.183  18.594  0.00  0.00    +0.000 N 
ATOM     18  C   UNL     1       3.199   3.054  19.378  0.00  0.00    +0.000 C 
ATOM     19  C   UNL     1       2.226   1.906  19.105  0.00  0.00    +0.000 C 
ATOM     20  C   UNL     1       0.903   2.622  18.914  0.00  0.00    +0.000 C 
ATOM     21  C   UNL     1       1.307   3.869  18.135  0.00  0.00    +0.000 C 
ENDBRANCH  16  17
ENDBRANCH   8  11
BRANCH   1  22
ATOM     22  C   UNL     1       1.431  11.946  20.297  0.00  0.00    +0.000 C 
BRANCH  22  23
ATOM     23  N   UNL     1       1.061  13.361  20.137  0.00  0.00    +0.000 NA
ATOM     24  H   UNL     1       1.432  13.845  19.313  0.00  0.00    +0.000 HD
BRANCH  23  26
ATOM     25  C   UNL     1       0.880  15.981  20.842  0.00  0.00    +0.000 C 
ATOM     26  S   UNL     1       1.116  14.341  21.510  0.00  0.00    +0.000 S 
ATOM     27  O   UNL     1       2.453  14.269  22.057  0.00  0.00    +0.000 OA
ATOM     28  O   UNL     1      -0.049  14.012  22.298  0.00  0.00    +0.000 OA
ENDBRANCH  23  26
ENDBRANCH  22  23
ENDBRANCH   1  22
TORSDOF 5
ENDMDL
MODEL 6
REMARK VINA RESULT:      -7.1      4.208      6.294
REMARK  Name = 
REMARK  6 active torsions:
REMARK  status: ('A' for Active; 'I' for Inactive)
REMARK    1  A    between atoms: C_1  and  S_2
REMARK    2  A    between atoms: S_2  and  N_5
REMARK    3  A    between atoms: N_5  and  C_6
REMARK    4  A    between atoms: C_6  and  C_7
REMARK    5  A    between atoms: N_14  and  C_15
REMARK    6  A    between atoms: C_20  and  N_21
REMARK                            x       y       z     vdW  Elec       q    Type
REMARK                         _______ _______ _______ _____ _____    ______ ____
ROOT
ATOM      1  C   UNL     1       0.331  10.901  20.197  0.00  0.00    +0.000 C 
ATOM      2  C   UNL     1       0.111  10.335  21.610  0.00  0.00    +0.000 C 
ATOM      3  C   UNL     1       1.188   9.313  21.985  0.00  0.00    +0.000 C 
ATOM      4  C   UNL     1       1.352   8.210  20.935  0.00  0.00    +0.000 C 
ATOM      5  N   UNL     1       1.422   8.735  19.573  0.00  0.00    +0.000 N 
ATOM      6  C   UNL     1       2.118   8.151  18.511  0.00  0.00    +0.000 C 
ATOM      7  O   UNL     1       2.129   8.715  17.416  0.00  0.00    +0.000 OA
ATOM      8  N   UNL     1       2.751   6.959  18.788  0.00  0.00    +0.000 N 
ATOM      9  C   UNL     1       0.408   9.734  19.214  0.00  0.00    +0.000 C 
ATOM     10  H   UNL     1       2.297   6.366  19.460  0.00  0.00    +0.000 HD
ENDROOT
BRANCH   8  11
ATOM     11  C   UNL     1       3.640   6.257  17.920  0.00  0.00    +0.000 A 
ATOM     12  C   UNL     1       4.482   6.982  17.050  0.00  0.00    +0.000 A 
ATOM     13  C   UNL     1       5.261   6.350  16.087  0.00  0.00    +0.000 A 
ATOM     14  C   UNL     1       5.244   4.973  16.002  0.00  0.00    +0.000 A 
ATOM     15  C   UNL     1       4.455   4.236  16.893  0.00  0.00    +0.000 A 
ATOM     16  C   UNL     1       3.647   4.831  17.893  0.00  0.00    +0.000 A 
BRANCH  16  17
ATOM     17  N   UNL     1       2.870   4.028  18.742  0.00  0.00    +0.000 N 
ATOM     18  C   UNL     1       1.405   3.979  18.629  0.00  0.00    +0.000 C 
ATOM     19  C   UNL     1       0.900   4.047  20.071  0.00  0.00    +0.000 C 
ATOM     20  C   UNL     1       1.990   3.333  20.845  0.00  0.00    +0.000 C 
ATOM     21  C   UNL     1       3.261   3.809  20.150  0.00  0.00    +0.000 C 
ENDBRANCH  16  17
ENDBRANCH   8  11
BRANCH   1  22
ATOM     22  C   UNL     1       1.561  11.832  20.176  0.00  0.00    +0.000 C 
BRANCH  22  23
ATOM     23  N   UNL     1       1.502  12.881  21.206  0.00  0.00    +0.000 NA
ATOM     24  H   UNL     1       0.569  13.205  21.482  0.00  0.00    +0.000 HD
BRANCH  23  26
ATOM     25  C   UNL     1       3.094  14.095  19.366  0.00  0.00    +0.000 C 
ATOM     26  S   UNL     1       2.592  14.162  21.079  0.00  0.00    +0.000 S 
ATOM     27  O   UNL     1       3.744  13.851  21.896  0.00  0.00    +0.000 OA
ATOM     28  O   UNL     1       1.828  15.374  21.269  0.00  0.00    +0.000 OA
ENDBRANCH  23  26
ENDBRANCH  22  23
ENDBRANCH   1  22
TORSDOF 5
ENDMDL
MODEL 7
REMARK VINA RESULT:      -7.1      4.272      6.442
REMARK  Name = 
REMARK  6 active torsions:
REMARK  status: ('A' for Active; 'I' for Inactive)
REMARK    1  A    between atoms: C_1  and  S_2
REMARK    2  A    between atoms: S_2  and  N_5
REMARK    3  A    between atoms: N_5  and  C_6
REMARK    4  A    between atoms: C_6  and  C_7
REMARK    5  A    between atoms: N_14  and  C_15
REMARK    6  A    between atoms: C_20  and  N_21
REMARK                            x       y       z     vdW  Elec       q    Type
REMARK                         _______ _______ _______ _____ _____    ______ ____
ROOT
ATOM      1  C   UNL     1       0.252  10.937  20.296  0.00  0.00    +0.000 C 
ATOM      2  C   UNL     1       0.046  10.344  21.699  0.00  0.00    +0.000 C 
ATOM      3  C   UNL     1       1.140   9.333  22.053  0.00  0.00    +0.000 C 
ATOM      4  C   UNL     1       1.318   8.251  20.983  0.00  0.00    +0.000 C 
ATOM      5  N   UNL     1       1.374   8.800  19.631  0.00  0.00    +0.000 N 
ATOM      6  C   UNL     1       2.075   8.246  18.557  0.00  0.00    +0.000 C 
ATOM      7  O   UNL     1       2.073   8.828  17.472  0.00  0.00    +0.000 OA
ATOM      8  N   UNL     1       2.728   7.058  18.811  0.00  0.00    +0.000 N 
ATOM      9  C   UNL     1       0.343   9.789  19.293  0.00  0.00    +0.000 C 
ATOM     10  H   UNL     1       2.286   6.448  19.474  0.00  0.00    +0.000 HD
ENDROOT
BRANCH   8  11
ATOM     11  C   UNL     1       3.625   6.385  17.928  0.00  0.00    +0.000 A 
ATOM     12  C   UNL     1       4.532   7.136  17.150  0.00  0.00    +0.000 A 
ATOM     13  C   UNL     1       5.326   6.546  16.173  0.00  0.00    +0.000 A 
ATOM     14  C   UNL     1       5.256   5.181  15.982  0.00  0.00    +0.000 A 
ATOM     15  C   UNL     1       4.400   4.414  16.782  0.00  0.00    +0.000 A 
ATOM     16  C   UNL     1       3.574   4.967  17.791  0.00  0.00    +0.000 A 
BRANCH  16  17
ATOM     17  N   UNL     1       2.730   4.137  18.544  0.00  0.00    +0.000 N 
ATOM     18  C   UNL     1       3.249   2.978  19.287  0.00  0.00    +0.000 C 
ATOM     19  C   UNL     1       2.250   1.855  19.003  0.00  0.00    +0.000 C 
ATOM     20  C   UNL     1       0.937   2.598  18.857  0.00  0.00    +0.000 C 
ATOM     21  C   UNL     1       1.347   3.859  18.103  0.00  0.00    +0.000 C 
ENDBRANCH  16  17
ENDBRANCH   8  11
BRANCH   1  22
ATOM     22  C   UNL     1       1.466  11.888  20.286  0.00  0.00    +0.000 C 
BRANCH  22  23
ATOM     23  N   UNL     1       1.086  13.304  20.403  0.00  0.00    +0.000 NA
ATOM     24  H   UNL     1       0.085  13.507  20.498  0.00  0.00    +0.000 HD
BRANCH  23  26
ATOM     25  C   UNL     1       2.526  13.359  18.097  0.00  0.00    +0.000 C 
ATOM     26  S   UNL     1       1.848  14.405  19.376  0.00  0.00    +0.000 S 
ATOM     27  O   UNL     1       2.950  15.000  20.099  0.00  0.00    +0.000 OA
ATOM     28  O   UNL     1       0.803  15.207  18.783  0.00  0.00    +0.000 OA
ENDBRANCH  23  26
ENDBRANCH  22  23
ENDBRANCH   1  22
TORSDOF 5
ENDMDL
MODEL 8
REMARK VINA RESULT:      -7.0      4.327      8.095
REMARK  Name = 
REMARK  6 active torsions:
REMARK  status: ('A' for Active; 'I' for Inactive)
REMARK    1  A    between atoms: C_1  and  S_2
REMARK    2  A    between atoms: S_2  and  N_5
REMARK    3  A    between atoms: N_5  and  C_6
REMARK    4  A    between atoms: C_6  and  C_7
REMARK    5  A    between atoms: N_14  and  C_15
REMARK    6  A    between atoms: C_20  and  N_21
REMARK                            x       y       z     vdW  Elec       q    Type
REMARK                         _______ _______ _______ _____ _____    ______ ____
ROOT
ATOM      1  C   UNL     1       4.042   4.984  17.847  0.00  0.00    +0.000 C 
ATOM      2  C   UNL     1       4.429   5.832  16.624  0.00  0.00    +0.000 C 
ATOM      3  C   UNL     1       4.413   7.329  16.945  0.00  0.00    +0.000 C 
ATOM      4  C   UNL     1       3.095   7.787  17.578  0.00  0.00    +0.000 C 
ATOM      5  N   UNL     1       2.650   6.902  18.652  0.00  0.00    +0.000 N 
ATOM      6  C   UNL     1       1.896   7.289  19.763  0.00  0.00    +0.000 C 
ATOM      7  O   UNL     1       1.614   6.452  20.621  0.00  0.00    +0.000 OA
ATOM      8  N   UNL     1       1.520   8.615  19.806  0.00  0.00    +0.000 N 
ATOM      9  C   UNL     1       2.686   5.464  18.360  0.00  0.00    +0.000 C 
ATOM     10  H   UNL     1       1.341   9.049  18.919  0.00  0.00    +0.000 HD
ENDROOT
BRANCH   8  11
ATOM     11  C   UNL     1       0.885   9.275  20.900  0.00  0.00    +0.000 A 
ATOM     12  C   UNL     1       1.143   8.844  22.219  0.00  0.00    +0.000 A 
ATOM     13  C   UNL     1       0.446   9.355  23.308  0.00  0.00    +0.000 A 
ATOM     14  C   UNL     1      -0.499  10.339  23.103  0.00  0.00    +0.000 A 
ATOM     15  C   UNL     1      -0.730  10.815  21.807  0.00  0.00    +0.000 A 
ATOM     16  C   UNL     1      -0.045  10.331  20.665  0.00  0.00    +0.000 A 
BRANCH  16  17
ATOM     17  N   UNL     1      -0.340  10.845  19.394  0.00  0.00    +0.000 N 
ATOM     18  C   UNL     1       0.397  11.989  18.835  0.00  0.00    +0.000 C 
ATOM     19  C   UNL     1      -0.679  12.883  18.219  0.00  0.00    +0.000 C 
ATOM     20  C   UNL     1      -1.723  11.886  17.756  0.00  0.00    +0.000 C 
ATOM     21  C   UNL     1      -1.725  10.857  18.881  0.00  0.00    +0.000 C 
ENDBRANCH  16  17
ENDBRANCH   8  11
BRANCH   1  22
ATOM     22  C   UNL     1       5.168   5.014  18.901  0.00  0.00    +0.000 C 
BRANCH  22  23
ATOM     23  N   UNL     1       6.279   4.106  18.577  0.00  0.00    +0.000 NA
ATOM     24  H   UNL     1       6.555   3.437  19.303  0.00  0.00    +0.000 HD
BRANCH  23  26
ATOM     25  C   UNL     1       7.706   6.419  18.462  0.00  0.00    +0.000 C 
ATOM     26  S   UNL     1       7.623   4.764  17.796  0.00  0.00    +0.000 S 
ATOM     27  O   UNL     1       7.315   4.863  16.386  0.00  0.00    +0.000 OA
ATOM     28  O   UNL     1       8.775   4.036  18.275  0.00  0.00    +0.000 OA
ENDBRANCH  23  26
ENDBRANCH  22  23
ENDBRANCH   1  22
TORSDOF 5
ENDMDL
MODEL 9
REMARK VINA RESULT:      -7.0      4.183      6.298
REMARK  Name = 
REMARK  6 active torsions:
REMARK  status: ('A' for Active; 'I' for Inactive)
REMARK    1  A    between atoms: C_1  and  S_2
REMARK    2  A    between atoms: S_2  and  N_5
REMARK    3  A    between atoms: N_5  and  C_6
REMARK    4  A    between atoms: C_6  and  C_7
REMARK    5  A    between atoms: N_14  and  C_15
REMARK    6  A    between atoms: C_20  and  N_21
REMARK                            x       y       z     vdW  Elec       q    Type
REMARK                         _______ _______ _______ _____ _____    ______ ____
ROOT
ATOM      1  C   UNL     1       0.375  10.921  20.211  0.00  0.00    +0.000 C 
ATOM      2  C   UNL     1       0.127  10.338  21.612  0.00  0.00    +0.000 C 
ATOM      3  C   UNL     1       1.178   9.288  21.983  0.00  0.00    +0.000 C 
ATOM      4  C   UNL     1       1.332   8.199  20.917  0.00  0.00    +0.000 C 
ATOM      5  N   UNL     1       1.429   8.744  19.565  0.00  0.00    +0.000 N 
ATOM      6  C   UNL     1       2.125   8.163  18.502  0.00  0.00    +0.000 C 
ATOM      7  O   UNL     1       2.161   8.743  17.417  0.00  0.00    +0.000 OA
ATOM      8  N   UNL     1       2.730   6.953  18.767  0.00  0.00    +0.000 N 
ATOM      9  C   UNL     1       0.440   9.769  19.210  0.00  0.00    +0.000 C 
ATOM     10  H   UNL     1       2.257   6.359  19.424  0.00  0.00    +0.000 HD
ENDROOT
BRANCH   8  11
ATOM     11  C   UNL     1       3.616   6.246  17.898  0.00  0.00    +0.000 A 
ATOM     12  C   UNL     1       4.444   6.967  17.011  0.00  0.00    +0.000 A 
ATOM     13  C   UNL     1       5.218   6.329  16.048  0.00  0.00    +0.000 A 
ATOM     14  C   UNL     1       5.208   4.951  15.979  0.00  0.00    +0.000 A 
ATOM     15  C   UNL     1       4.433   4.219  16.886  0.00  0.00    +0.000 A 
ATOM     16  C   UNL     1       3.631   4.820  17.887  0.00  0.00    +0.000 A 
BRANCH  16  17
ATOM     17  N   UNL     1       2.867   4.023  18.753  0.00  0.00    +0.000 N 
ATOM     18  C   UNL     1       1.400   3.970  18.660  0.00  0.00    +0.000 C 
ATOM     19  C   UNL     1       0.916   4.048  20.109  0.00  0.00    +0.000 C 
ATOM     20  C   UNL     1       2.018   3.341  20.873  0.00  0.00    +0.000 C 
ATOM     21  C   UNL     1       3.278   3.814  20.156  0.00  0.00    +0.000 C 
ENDBRANCH  16  17
ENDBRANCH   8  11
BRANCH   1  22
ATOM     22  C   UNL     1       1.623  11.827  20.220  0.00  0.00    +0.000 C 
BRANCH  22  23
ATOM     23  N   UNL     1       1.842  12.511  18.936  0.00  0.00    +0.000 NA
ATOM     24  H   UNL     1       2.186  11.937  18.160  0.00  0.00    +0.000 HD
BRANCH  23  26
ATOM     25  C   UNL     1       3.089  14.181  20.684  0.00  0.00    +0.000 C 
ATOM     26  S   UNL     1       2.598  14.020  18.975  0.00  0.00    +0.000 S 
ATOM     27  O   UNL     1       1.597  15.027  18.699  0.00  0.00    +0.000 OA
ATOM     28  O   UNL     1       3.798  13.901  18.179  0.00  0.00    +0.000 OA
ENDBRANCH  23  26
ENDBRANCH  22  23
ENDBRANCH   1  22
TORSDOF 5
ENDMDL
