MODEL 1
REMARK VINA RESULT:      -7.8      0.000      0.000
REMARK  Name = 
REMARK  5 active torsions:
REMARK  status: ('A' for Active; 'I' for Inactive)
REMARK    1  A    between atoms: C_1  and  C_2
REMARK    2  A    between atoms: C_2  and  C_3
REMARK    3  A    between atoms: C_2  and  C_4
REMARK    4  A    between atoms: C_2  and  C_5
REMARK    5  A    between atoms: C_14  and  C_15
REMARK                            x       y       z     vdW  Elec       q    Type
REMARK                         _______ _______ _______ _____ _____    ______ ____
ROOT
ATOM      1  C   UNL     1       5.088   4.823  17.678  0.00  0.00    +0.000 A 
ATOM      2  C   UNL     1       3.994   5.587  17.992  0.00  0.00    +0.000 A 
ATOM      3  C   UNL     1       3.610   5.189  19.290  0.00  0.00    +0.000 A 
ATOM      4  N   UNL     1       2.622   5.737  20.038  0.00  0.00    +0.000 N 
ATOM      5  C   UNL     1       2.164   7.002  19.809  0.00  0.00    +0.000 C 
ATOM      6  N   UNL     1       2.280   7.722  18.743  0.00  0.00    +0.000 NA
ATOM      7  C   UNL     1       1.744   8.979  18.847  0.00  0.00    +0.000 C 
ATOM      8  O   UNL     1       1.797   9.812  17.955  0.00  0.00    +0.000 OA
ATOM      9  C   UNL     1       1.106   9.195  20.179  0.00  0.00    +0.000 C 
ATOM     10  C   UNL     1       0.466  10.296  20.592  0.00  0.00    +0.000 C 
ATOM     11  S   UNL     1       1.316   7.776  21.141  0.00  0.00    +0.000 S 
ATOM     12  N   UNL     1       4.384   4.175  19.706  0.00  0.00    +0.000 NA
ATOM     13  O   UNL     1       5.320   3.962  18.704  0.00  0.00    +0.000 OA
ATOM     14  H   UNL     1       2.489   5.368  20.970  0.00  0.00    +0.000 HD
ENDROOT
BRANCH  10  15
ATOM     15  C   UNL     1       0.260  11.487  19.751  0.00  0.00    +0.000 A 
ATOM     16  C   UNL     1       1.091  12.599  19.938  0.00  0.00    +0.000 A 
ATOM     17  F   UNL     1       2.088  12.547  20.835  0.00  0.00    +0.000 F 
ATOM     18  C   UNL     1       0.909  13.777  19.217  0.00  0.00    +0.000 A 
ATOM     19  C   UNL     1      -0.123  13.863  18.284  0.00  0.00    +0.000 A 
ATOM     20  C   UNL     1      -0.959  12.764  18.075  0.00  0.00    +0.000 A 
ATOM     21  C   UNL     1      -0.770  11.583  18.803  0.00  0.00    +0.000 A 
ATOM     22 CL   UNL     1      -1.843  10.262  18.494  0.00  0.00    +0.000 Cl
ENDBRANCH  10  15
BRANCH   1  24
ATOM     23  C   UNL     1       7.452   4.738  16.937  0.00  0.00    +0.000 C 
ATOM     24  C   UNL     1       5.982   4.810  16.472  0.00  0.00    +0.000 C 
ATOM     25  C   UNL     1       5.769   6.116  15.683  0.00  0.00    +0.000 C 
ATOM     26  C   UNL     1       5.697   3.617  15.548  0.00  0.00    +0.000 C 
ENDBRANCH   1  24
TORSDOF 2
ENDMDL
MODEL 2
REMARK VINA RESULT:      -7.6      3.462      8.273
REMARK  Name = 
REMARK  5 active torsions:
REMARK  status: ('A' for Active; 'I' for Inactive)
REMARK    1  A    between atoms: C_1  and  C_2
REMARK    2  A    between atoms: C_2  and  C_3
REMARK    3  A    between atoms: C_2  and  C_4
REMARK    4  A    between atoms: C_2  and  C_5
REMARK    5  A    between atoms: C_14  and  C_15
REMARK                            x       y       z     vdW  Elec       q    Type
REMARK                         _______ _______ _______ _____ _____    ______ ____
ROOT
ATOM      1  C   UNL     1      -0.160  10.086  20.028  0.00  0.00    +0.000 A 
ATOM      2  C   UNL     1       0.948   9.287  19.917  0.00  0.00    +0.000 A 
ATOM      3  C   UNL     1       0.790   8.279  20.892  0.00  0.00    +0.000 A 
ATOM      4  N   UNL     1       1.610   7.217  21.089  0.00  0.00    +0.000 N 
ATOM      5  C   UNL     1       2.442   6.759  20.108  0.00  0.00    +0.000 C 
ATOM      6  N   UNL     1       2.859   7.375  19.052  0.00  0.00    +0.000 NA
ATOM      7  C   UNL     1       3.658   6.617  18.235  0.00  0.00    +0.000 C 
ATOM      8  O   UNL     1       4.110   7.018  17.173  0.00  0.00    +0.000 OA
ATOM      9  C   UNL     1       3.888   5.256  18.799  0.00  0.00    +0.000 C 
ATOM     10  C   UNL     1       4.644   4.285  18.271  0.00  0.00    +0.000 C 
ATOM     11  S   UNL     1       3.014   5.106  20.283  0.00  0.00    +0.000 S 
ATOM     12  N   UNL     1      -0.319   8.507  21.611  0.00  0.00    +0.000 NA
ATOM     13  O   UNL     1      -0.921   9.626  21.055  0.00  0.00    +0.000 OA
ATOM     14  H   UNL     1       1.344   6.555  21.804  0.00  0.00    +0.000 HD
ENDROOT
BRANCH  10  15
ATOM     15  C   UNL     1       5.413   4.435  17.025  0.00  0.00    +0.000 A 
ATOM     16  C   UNL     1       4.811   4.082  15.811  0.00  0.00    +0.000 A 
ATOM     17  F   UNL     1       3.535   3.666  15.791  0.00  0.00    +0.000 F 
ATOM     18  C   UNL     1       5.507   4.144  14.605  0.00  0.00    +0.000 A 
ATOM     19  C   UNL     1       6.835   4.564  14.595  0.00  0.00    +0.000 A 
ATOM     20  C   UNL     1       7.454   4.929  15.792  0.00  0.00    +0.000 A 
ATOM     21  C   UNL     1       6.749   4.865  17.000  0.00  0.00    +0.000 A 
ATOM     22 CL   UNL     1       7.578   5.331  18.446  0.00  0.00    +0.000 Cl
ENDBRANCH  10  15
BRANCH   1  24
ATOM     23  C   UNL     1      -1.356  10.807  17.979  0.00  0.00    +0.000 C 
ATOM     24  C   UNL     1      -0.608  11.284  19.241  0.00  0.00    +0.000 C 
ATOM     25  C   UNL     1       0.635  12.088  18.813  0.00  0.00    +0.000 C 
ATOM     26  C   UNL     1      -1.537  12.199  20.051  0.00  0.00    +0.000 C 
ENDBRANCH   1  24
TORSDOF 2
ENDMDL
MODEL 3
REMARK VINA RESULT:      -7.5      1.600      1.934
REMARK  Name = 
REMARK  5 active torsions:
REMARK  status: ('A' for Active; 'I' for Inactive)
REMARK    1  A    between atoms: C_1  and  C_2
REMARK    2  A    between atoms: C_2  and  C_3
REMARK    3  A    between atoms: C_2  and  C_4
REMARK    4  A    between atoms: C_2  and  C_5
REMARK    5  A    between atoms: C_14  and  C_15
REMARK                            x       y       z     vdW  Elec       q    Type
REMARK                         _______ _______ _______ _____ _____    ______ ____
ROOT
ATOM      1  C   UNL     1       5.605   5.339  18.043  0.00  0.00    +0.000 A 
ATOM      2  C   UNL     1       4.397   5.948  18.263  0.00  0.00    +0.000 A 
ATOM      3  C   UNL     1       3.940   5.453  19.502  0.00  0.00    +0.000 A 
ATOM      4  N   UNL     1       2.820   5.844  20.158  0.00  0.00    +0.000 N 
ATOM      5  C   UNL     1       2.229   7.050  19.918  0.00  0.00    +0.000 C 
ATOM      6  N   UNL     1       2.358   7.822  18.890  0.00  0.00    +0.000 NA
ATOM      7  C   UNL     1       1.658   8.997  18.972  0.00  0.00    +0.000 C 
ATOM      8  O   UNL     1       1.693   9.866  18.113  0.00  0.00    +0.000 OA
ATOM      9  C   UNL     1       0.869   9.079  20.235  0.00  0.00    +0.000 C 
ATOM     10  C   UNL     1       0.055  10.074  20.610  0.00  0.00    +0.000 C 
ATOM     11  S   UNL     1       1.161   7.659  21.175  0.00  0.00    +0.000 S 
ATOM     12  N   UNL     1       4.791   4.528  19.968  0.00  0.00    +0.000 NA
ATOM     13  O   UNL     1       5.841   4.473  19.064  0.00  0.00    +0.000 OA
ATOM     14  H   UNL     1       2.643   5.424  21.061  0.00  0.00    +0.000 HD
ENDROOT
BRANCH  10  15
ATOM     15  C   UNL     1      -0.216  11.263  19.785  0.00  0.00    +0.000 A 
ATOM     16  C   UNL     1      -1.223  11.196  18.813  0.00  0.00    +0.000 A 
ATOM     17  F   UNL     1      -1.957  10.080  18.684  0.00  0.00    +0.000 F 
ATOM     18  C   UNL     1      -1.487  12.265  17.960  0.00  0.00    +0.000 A 
ATOM     19  C   UNL     1      -0.736  13.435  18.066  0.00  0.00    +0.000 A 
ATOM     20  C   UNL     1       0.267  13.527  19.032  0.00  0.00    +0.000 A 
ATOM     21  C   UNL     1       0.527  12.448  19.887  0.00  0.00    +0.000 A 
ATOM     22 CL   UNL     1       1.785  12.631  21.060  0.00  0.00    +0.000 Cl
ENDBRANCH  10  15
BRANCH   1  24
ATOM     23  C   UNL     1       7.308   6.855  17.069  0.00  0.00    +0.000 C 
ATOM     24  C   UNL     1       6.609   5.486  16.936  0.00  0.00    +0.000 C 
ATOM     25  C   UNL     1       5.870   5.430  15.586  0.00  0.00    +0.000 C 
ATOM     26  C   UNL     1       7.675   4.381  16.967  0.00  0.00    +0.000 C 
ENDBRANCH   1  24
TORSDOF 2
ENDMDL
MODEL 4
REMARK VINA RESULT:      -7.5      1.471      1.930
REMARK  Name = 
REMARK  5 active torsions:
REMARK  status: ('A' for Active; 'I' for Inactive)
REMARK    1  A    between atoms: C_1  and  C_2
REMARK    2  A    between atoms: C_2  and  C_3
REMARK    3  A    between atoms: C_2  and  C_4
REMARK    4  A    between atoms: C_2  and  C_5
REMARK    5  A    between atoms: C_14  and  C_15
REMARK                            x       y       z     vdW  Elec       q    Type
REMARK                         _______ _______ _______ _____ _____    ______ ____
ROOT
ATOM      1  C   UNL     1       5.043   4.930  17.556  0.00  0.00    +0.000 A 
ATOM      2  C   UNL     1       3.945   5.661  17.931  0.00  0.00    +0.000 A 
ATOM      3  C   UNL     1       3.673   5.285  19.263  0.00  0.00    +0.000 A 
ATOM      4  N   UNL     1       2.721   5.816  20.068  0.00  0.00    +0.000 N 
ATOM      5  C   UNL     1       2.196   7.055  19.841  0.00  0.00    +0.000 C 
ATOM      6  N   UNL     1       2.205   7.748  18.751  0.00  0.00    +0.000 NA
ATOM      7  C   UNL     1       1.628   8.986  18.862  0.00  0.00    +0.000 C 
ATOM      8  O   UNL     1       1.582   9.795  17.947  0.00  0.00    +0.000 OA
ATOM      9  C   UNL     1       1.081   9.216  20.231  0.00  0.00    +0.000 C 
ATOM     10  C   UNL     1       0.428  10.303  20.662  0.00  0.00    +0.000 C 
ATOM     11  S   UNL     1       1.418   7.834  21.212  0.00  0.00    +0.000 S 
ATOM     12  N   UNL     1       4.516   4.315  19.646  0.00  0.00    +0.000 NA
ATOM     13  O   UNL     1       5.384   4.109  18.584  0.00  0.00    +0.000 OA
ATOM     14  H   UNL     1       2.671   5.470  21.016  0.00  0.00    +0.000 HD
ENDROOT
BRANCH  10  15
ATOM     15  C   UNL     1       0.113  11.460  19.808  0.00  0.00    +0.000 A 
ATOM     16  C   UNL     1      -0.990  11.385  18.948  0.00  0.00    +0.000 A 
ATOM     17  F   UNL     1      -1.770  10.294  18.951  0.00  0.00    +0.000 F 
ATOM     18  C   UNL     1      -1.304  12.422  18.071  0.00  0.00    +0.000 A 
ATOM     19  C   UNL     1      -0.508  13.565  18.040  0.00  0.00    +0.000 A 
ATOM     20  C   UNL     1       0.592  13.665  18.893  0.00  0.00    +0.000 A 
ATOM     21  C   UNL     1       0.902  12.619  19.772  0.00  0.00    +0.000 A 
ATOM     22 CL   UNL     1       2.280  12.810  20.801  0.00  0.00    +0.000 Cl
ENDBRANCH  10  15
BRANCH   1  24
ATOM     23  C   UNL     1       5.678   3.546  15.600  0.00  0.00    +0.000 C 
ATOM     24  C   UNL     1       5.846   4.917  16.288  0.00  0.00    +0.000 C 
ATOM     25  C   UNL     1       7.332   5.121  16.641  0.00  0.00    +0.000 C 
ATOM     26  C   UNL     1       5.411   6.018  15.310  0.00  0.00    +0.000 C 
ENDBRANCH   1  24
TORSDOF 2
ENDMDL
MODEL 5
REMARK VINA RESULT:      -7.1      2.579      3.583
REMARK  Name = 
REMARK  5 active torsions:
REMARK  status: ('A' for Active; 'I' for Inactive)
REMARK    1  A    between atoms: C_1  and  C_2
REMARK    2  A    between atoms: C_2  and  C_3
REMARK    3  A    between atoms: C_2  and  C_4
REMARK    4  A    between atoms: C_2  and  C_5
REMARK    5  A    between atoms: C_14  and  C_15
REMARK                            x       y       z     vdW  Elec       q    Type
REMARK                         _______ _______ _______ _____ _____    ______ ____
ROOT
ATOM      1  C   UNL     1       2.529   4.575  19.258  0.00  0.00    +0.000 A 
ATOM      2  C   UNL     1       2.429   5.924  19.479  0.00  0.00    +0.000 A 
ATOM      3  C   UNL     1       2.946   6.540  18.319  0.00  0.00    +0.000 A 
ATOM      4  N   UNL     1       2.970   7.870  18.061  0.00  0.00    +0.000 N 
ATOM      5  C   UNL     1       2.123   8.740  18.684  0.00  0.00    +0.000 C 
ATOM      6  N   UNL     1       1.463   8.576  19.782  0.00  0.00    +0.000 NA
ATOM      7  C   UNL     1       0.657   9.632  20.120  0.00  0.00    +0.000 C 
ATOM      8  O   UNL     1      -0.071   9.638  21.102  0.00  0.00    +0.000 OA
ATOM      9  C   UNL     1       0.776  10.750  19.141  0.00  0.00    +0.000 C 
ATOM     10  C   UNL     1       0.153  11.935  19.194  0.00  0.00    +0.000 C 
ATOM     11  S   UNL     1       1.871  10.287  17.887  0.00  0.00    +0.000 S 
ATOM     12  N   UNL     1       3.413   5.608  17.476  0.00  0.00    +0.000 NA
ATOM     13  O   UNL     1       3.132   4.380  18.056  0.00  0.00    +0.000 OA
ATOM     14  H   UNL     1       3.340   8.160  17.165  0.00  0.00    +0.000 HD
ENDROOT
BRANCH  10  15
ATOM     15  C   UNL     1      -0.749  12.334  20.286  0.00  0.00    +0.000 A 
ATOM     16  C   UNL     1      -0.197  12.842  21.469  0.00  0.00    +0.000 A 
ATOM     17  F   UNL     1       1.131  13.007  21.572  0.00  0.00    +0.000 F 
ATOM     18  C   UNL     1      -0.993  13.181  22.561  0.00  0.00    +0.000 A 
ATOM     19  C   UNL     1      -2.374  13.013  22.487  0.00  0.00    +0.000 A 
ATOM     20  C   UNL     1      -2.948  12.515  21.316  0.00  0.00    +0.000 A 
ATOM     21  C   UNL     1      -2.142  12.178  20.222  0.00  0.00    +0.000 A 
ATOM     22 CL   UNL     1      -2.920  11.566  18.802  0.00  0.00    +0.000 Cl
ENDBRANCH  10  15
BRANCH   1  24
ATOM     23  C   UNL     1       3.061   2.217  19.811  0.00  0.00    +0.000 C 
ATOM     24  C   UNL     1       2.101   3.395  20.082  0.00  0.00    +0.000 C 
ATOM     25  C   UNL     1       0.676   2.987  19.662  0.00  0.00    +0.000 C 
ATOM     26  C   UNL     1       2.108   3.702  21.587  0.00  0.00    +0.000 C 
ENDBRANCH   1  24
TORSDOF 2
ENDMDL
MODEL 6
REMARK VINA RESULT:      -7.1      1.595      1.860
REMARK  Name = 
REMARK  5 active torsions:
REMARK  status: ('A' for Active; 'I' for Inactive)
REMARK    1  A    between atoms: C_1  and  C_2
REMARK    2  A    between atoms: C_2  and  C_3
REMARK    3  A    between atoms: C_2  and  C_4
REMARK    4  A    between atoms: C_2  and  C_5
REMARK    5  A    between atoms: C_14  and  C_15
REMARK                            x       y       z     vdW  Elec       q    Type
REMARK                         _______ _______ _______ _____ _____    ______ ____
ROOT
ATOM      1  C   UNL     1       4.676   5.322  17.670  0.00  0.00    +0.000 A 
ATOM      2  C   UNL     1       3.623   6.111  18.055  0.00  0.00    +0.000 A 
ATOM      3  C   UNL     1       3.273   5.673  19.350  0.00  0.00    +0.000 A 
ATOM      4  N   UNL     1       2.333   6.225  20.156  0.00  0.00    +0.000 N 
ATOM      5  C   UNL     1       1.914   7.514  19.995  0.00  0.00    +0.000 C 
ATOM      6  N   UNL     1       2.018   8.272  18.955  0.00  0.00    +0.000 NA
ATOM      7  C   UNL     1       1.532   9.542  19.129  0.00  0.00    +0.000 C 
ATOM      8  O   UNL     1       1.583  10.408  18.269  0.00  0.00    +0.000 OA
ATOM      9  C   UNL     1       0.952   9.726  20.491  0.00  0.00    +0.000 C 
ATOM     10  C   UNL     1       0.368  10.831  20.972  0.00  0.00    +0.000 C 
ATOM     11  S   UNL     1       1.144   8.262  21.388  0.00  0.00    +0.000 S 
ATOM     12  N   UNL     1       4.023   4.617  19.695  0.00  0.00    +0.000 NA
ATOM     13  O   UNL     1       4.913   4.413  18.651  0.00  0.00    +0.000 OA
ATOM     14  H   UNL     1       2.221   5.823  21.077  0.00  0.00    +0.000 HD
ENDROOT
BRANCH  10  15
ATOM     15  C   UNL     1       0.175  12.061  20.187  0.00  0.00    +0.000 A 
ATOM     16  C   UNL     1      -0.954  12.170  19.366  0.00  0.00    +0.000 A 
ATOM     17  F   UNL     1      -1.866  11.185  19.346  0.00  0.00    +0.000 F 
ATOM     18  C   UNL     1      -1.163  13.282  18.553  0.00  0.00    +0.000 A 
ATOM     19  C   UNL     1      -0.230  14.317  18.547  0.00  0.00    +0.000 A 
ATOM     20  C   UNL     1       0.900  14.234  19.362  0.00  0.00    +0.000 A 
ATOM     21  C   UNL     1       1.103  13.114  20.178  0.00  0.00    +0.000 A 
ATOM     22 CL   UNL     1       2.525  13.077  21.162  0.00  0.00    +0.000 Cl
ENDBRANCH  10  15
BRANCH   1  24
ATOM     23  C   UNL     1       7.008   5.450  16.838  0.00  0.00    +0.000 C 
ATOM     24  C   UNL     1       5.524   5.327  16.431  0.00  0.00    +0.000 C 
ATOM     25  C   UNL     1       5.139   6.546  15.571  0.00  0.00    +0.000 C 
ATOM     26  C   UNL     1       5.345   4.051  15.596  0.00  0.00    +0.000 C 
ENDBRANCH   1  24
TORSDOF 2
ENDMDL
MODEL 7
REMARK VINA RESULT:      -7.0      2.960      3.960
REMARK  Name = 
REMARK  5 active torsions:
REMARK  status: ('A' for Active; 'I' for Inactive)
REMARK    1  A    between atoms: C_1  and  C_2
REMARK    2  A    between atoms: C_2  and  C_3
REMARK    3  A    between atoms: C_2  and  C_4
REMARK    4  A    between atoms: C_2  and  C_5
REMARK    5  A    between atoms: C_14  and  C_15
REMARK                            x       y       z     vdW  Elec       q    Type
REMARK                         _______ _______ _______ _____ _____    ______ ____
ROOT
ATOM      1  C   UNL     1       2.573   4.727  19.274  0.00  0.00    +0.000 A 
ATOM      2  C   UNL     1       2.403   6.073  19.468  0.00  0.00    +0.000 A 
ATOM      3  C   UNL     1       3.011   6.698  18.358  0.00  0.00    +0.000 A 
ATOM      4  N   UNL     1       3.012   8.026  18.087  0.00  0.00    +0.000 N 
ATOM      5  C   UNL     1       2.077   8.869  18.612  0.00  0.00    +0.000 C 
ATOM      6  N   UNL     1       1.317   8.690  19.641  0.00  0.00    +0.000 NA
ATOM      7  C   UNL     1       0.444   9.718  19.886  0.00  0.00    +0.000 C 
ATOM      8  O   UNL     1      -0.378   9.706  20.790  0.00  0.00    +0.000 OA
ATOM      9  C   UNL     1       0.620  10.832  18.909  0.00  0.00    +0.000 C 
ATOM     10  C   UNL     1      -0.048  11.993  18.887  0.00  0.00    +0.000 C 
ATOM     11  S   UNL     1       1.850  10.399  17.777  0.00  0.00    +0.000 S 
ATOM     12  N   UNL     1       3.592   5.777  17.576  0.00  0.00    +0.000 NA
ATOM     13  O   UNL     1       3.299   4.544  18.140  0.00  0.00    +0.000 OA
ATOM     14  H   UNL     1       3.458   8.321  17.229  0.00  0.00    +0.000 HD
ENDROOT
BRANCH  10  15
ATOM     15  C   UNL     1      -1.069  12.367  19.879  0.00  0.00    +0.000 A 
ATOM     16  C   UNL     1      -2.416  12.107  19.596  0.00  0.00    +0.000 A 
ATOM     17  F   UNL     1      -2.752  11.476  18.460  0.00  0.00    +0.000 F 
ATOM     18  C   UNL     1      -3.433  12.492  20.466  0.00  0.00    +0.000 A 
ATOM     19  C   UNL     1      -3.116  13.155  21.650  0.00  0.00    +0.000 A 
ATOM     20  C   UNL     1      -1.780  13.418  21.957  0.00  0.00    +0.000 A 
ATOM     21  C   UNL     1      -0.762  13.028  21.078  0.00  0.00    +0.000 A 
ATOM     22 CL   UNL     1       0.872  13.388  21.521  0.00  0.00    +0.000 Cl
ENDBRANCH  10  15
BRANCH   1  24
ATOM     23  C   UNL     1       3.016   2.333  19.745  0.00  0.00    +0.000 C 
ATOM     24  C   UNL     1       2.108   3.539  20.066  0.00  0.00    +0.000 C 
ATOM     25  C   UNL     1       0.663   3.201  19.652  0.00  0.00    +0.000 C 
ATOM     26  C   UNL     1       2.145   3.796  21.579  0.00  0.00    +0.000 C 
ENDBRANCH   1  24
TORSDOF 2
ENDMDL
MODEL 8
REMARK VINA RESULT:      -7.0      2.941      3.900
REMARK  Name = 
REMARK  5 active torsions:
REMARK  status: ('A' for Active; 'I' for Inactive)
REMARK    1  A    between atoms: C_1  and  C_2
REMARK    2  A    between atoms: C_2  and  C_3
REMARK    3  A    between atoms: C_2  and  C_4
REMARK    4  A    between atoms: C_2  and  C_5
REMARK    5  A    between atoms: C_14  and  C_15
REMARK                            x       y       z     vdW  Elec       q    Type
REMARK                         _______ _______ _______ _____ _____    ______ ____
ROOT
ATOM      1  C   UNL     1       2.507   4.684  18.931  0.00  0.00    +0.000 A 
ATOM      2  C   UNL     1       2.354   6.019  19.202  0.00  0.00    +0.000 A 
ATOM      3  C   UNL     1       3.055   6.698  18.183  0.00  0.00    +0.000 A 
ATOM      4  N   UNL     1       3.106   8.040  18.002  0.00  0.00    +0.000 N 
ATOM      5  C   UNL     1       2.153   8.872  18.515  0.00  0.00    +0.000 C 
ATOM      6  N   UNL     1       1.316   8.647  19.473  0.00  0.00    +0.000 NA
ATOM      7  C   UNL     1       0.451   9.680  19.724  0.00  0.00    +0.000 C 
ATOM      8  O   UNL     1      -0.434   9.631  20.564  0.00  0.00    +0.000 OA
ATOM      9  C   UNL     1       0.722  10.850  18.839  0.00  0.00    +0.000 C 
ATOM     10  C   UNL     1       0.084  12.028  18.847  0.00  0.00    +0.000 C 
ATOM     11  S   UNL     1       2.022  10.459  17.770  0.00  0.00    +0.000 S 
ATOM     12  N   UNL     1       3.671   5.815  17.384  0.00  0.00    +0.000 NA
ATOM     13  O   UNL     1       3.310   4.556  17.841  0.00  0.00    +0.000 OA
ATOM     14  H   UNL     1       3.619   8.379  17.200  0.00  0.00    +0.000 HD
ENDROOT
BRANCH  10  15
ATOM     15  C   UNL     1      -0.997  12.365  19.788  0.00  0.00    +0.000 A 
ATOM     16  C   UNL     1      -2.322  12.095  19.420  0.00  0.00    +0.000 A 
ATOM     17  F   UNL     1      -2.583  11.489  18.251  0.00  0.00    +0.000 F 
ATOM     18  C   UNL     1      -3.393  12.444  20.239  0.00  0.00    +0.000 A 
ATOM     19  C   UNL     1      -3.154  13.081  21.455  0.00  0.00    +0.000 A 
ATOM     20  C   UNL     1      -1.842  13.353  21.846  0.00  0.00    +0.000 A 
ATOM     21  C   UNL     1      -0.769  12.998  21.018  0.00  0.00    +0.000 A 
ATOM     22 CL   UNL     1       0.830  13.367  21.565  0.00  0.00    +0.000 Cl
ENDBRANCH  10  15
BRANCH   1  24
ATOM     23  C   UNL     1       1.150   3.890  20.847  0.00  0.00    +0.000 C 
ATOM     24  C   UNL     1       1.960   3.460  19.606  0.00  0.00    +0.000 C 
ATOM     25  C   UNL     1       3.138   2.575  20.058  0.00  0.00    +0.000 C 
ATOM     26  C   UNL     1       1.049   2.642  18.680  0.00  0.00    +0.000 C 
ENDBRANCH   1  24
TORSDOF 2
ENDMDL
MODEL 9
REMARK VINA RESULT:      -6.9      1.387      1.818
REMARK  Name = 
REMARK  5 active torsions:
REMARK  status: ('A' for Active; 'I' for Inactive)
REMARK    1  A    between atoms: C_1  and  C_2
REMARK    2  A    between atoms: C_2  and  C_3
REMARK    3  A    between atoms: C_2  and  C_4
REMARK    4  A    between atoms: C_2  and  C_5
REMARK    5  A    between atoms: C_14  and  C_15
REMARK                            x       y       z     vdW  Elec       q    Type
REMARK                         _______ _______ _______ _____ _____    ______ ____
ROOT
ATOM      1  C   UNL     1       3.783   5.215  18.657  0.00  0.00    +0.000 A 
ATOM      2  C   UNL     1       2.873   6.210  18.902  0.00  0.00    +0.000 A 
ATOM      3  C   UNL     1       2.360   5.949  20.190  0.00  0.00    +0.000 A 
ATOM      4  N   UNL     1       1.487   6.725  20.878  0.00  0.00    +0.000 N 
ATOM      5  C   UNL     1       1.328   8.051  20.599  0.00  0.00    +0.000 C 
ATOM      6  N   UNL     1       1.643   8.692  19.522  0.00  0.00    +0.000 NA
ATOM      7  C   UNL     1       1.393  10.039  19.571  0.00  0.00    +0.000 C 
ATOM      8  O   UNL     1       1.663  10.810  18.663  0.00  0.00    +0.000 OA
ATOM      9  C   UNL     1       0.767  10.434  20.866  0.00  0.00    +0.000 C 
ATOM     10  C   UNL     1       0.368  11.662  21.224  0.00  0.00    +0.000 C 
ATOM     11  S   UNL     1       0.620   9.036  21.871  0.00  0.00    +0.000 S 
ATOM     12  N   UNL     1       2.874   4.805  20.664  0.00  0.00    +0.000 NA
ATOM     13  O   UNL     1       3.779   4.359  19.713  0.00  0.00    +0.000 OA
ATOM     14  H   UNL     1       1.240   6.425  21.812  0.00  0.00    +0.000 HD
ENDROOT
BRANCH  10  15
ATOM     15  C   UNL     1       0.463  12.839  20.346  0.00  0.00    +0.000 A 
ATOM     16  C   UNL     1       1.627  13.618  20.381  0.00  0.00    +0.000 A 
ATOM     17  F   UNL     1       2.653  13.254  21.167  0.00  0.00    +0.000 F 
ATOM     18  C   UNL     1       1.754  14.777  19.620  0.00  0.00    +0.000 A 
ATOM     19  C   UNL     1       0.703  15.184  18.801  0.00  0.00    +0.000 A 
ATOM     20  C   UNL     1      -0.464  14.421  18.743  0.00  0.00    +0.000 A 
ATOM     21  C   UNL     1      -0.584  13.255  19.510  0.00  0.00    +0.000 A 
ATOM     22 CL   UNL     1      -2.059  12.358  19.391  0.00  0.00    +0.000 Cl
ENDBRANCH  10  15
BRANCH   1  24
ATOM     23  C   UNL     1       4.736   6.226  16.603  0.00  0.00    +0.000 C 
ATOM     24  C   UNL     1       4.699   4.966  17.493  0.00  0.00    +0.000 C 
ATOM     25  C   UNL     1       4.146   3.787  16.670  0.00  0.00    +0.000 C 
ATOM     26  C   UNL     1       6.130   4.634  17.939  0.00  0.00    +0.000 C 
ENDBRANCH   1  24
TORSDOF 2
ENDMDL
