MODEL 1
REMARK VINA RESULT:      -8.3      0.000      0.000
REMARK  Name = 
REMARK  8 active torsions:
REMARK  status: ('A' for Active; 'I' for Inactive)
REMARK    1  A    between atoms: C_1  and  C_2
REMARK    2  A    between atoms: C_3  and  C_4
REMARK    3  A    between atoms: C_4  and  C_5
REMARK    4  A    between atoms: C_8  and  C_9
REMARK    5  A    between atoms: C_17  and  C_18
REMARK    6  A    between atoms: N_20  and  C_21
REMARK    7  A    between atoms: C_21  and  C_22
REMARK    8  A    between atoms: C_21  and  C_23
REMARK                            x       y       z     vdW  Elec       q    Type
REMARK                         _______ _______ _______ _____ _____    ______ ____
ROOT
ATOM      1  C   UNL     1       2.389   8.331  17.646  0.00  0.00    +0.000 C 
ATOM      2  C   UNL     1       1.886   8.367  19.050  0.00  0.00    +0.000 A 
ATOM      3  C   UNL     1       1.286   9.500  19.718  0.00  0.00    +0.000 A 
ATOM      4  C   UNL     1       1.074   9.112  21.029  0.00  0.00    +0.000 A 
ATOM      5  N   UNL     1       1.493   7.825  21.175  0.00  0.00    +0.000 N 
ATOM      6  C   UNL     1       1.934   7.318  19.973  0.00  0.00    +0.000 A 
ATOM      7  H   UNL     1       1.474   7.285  22.033  0.00  0.00    +0.000 HD
ENDROOT
BRANCH   6   8
ATOM      8  C   UNL     1       2.375   5.937  19.895  0.00  0.00    +0.000 C 
ATOM      9  O   UNL     1       1.956   5.074  20.662  0.00  0.00    +0.000 OA
ATOM     10  N   UNL     1       3.229   5.649  18.870  0.00  0.00    +0.000 N 
ATOM     11  H   UNL     1       3.435   6.344  18.166  0.00  0.00    +0.000 HD
BRANCH  10  12
ATOM     12  C   UNL     1       3.725   4.307  18.597  0.00  0.00    +0.000 C 
ATOM     13  C   UNL     1       2.919   3.638  17.485  0.00  0.00    +0.000 C 
BRANCH  12  14
ATOM     14  C   UNL     1       5.180   4.406  18.223  0.00  0.00    +0.000 A 
ATOM     15  N   UNL     1       5.597   4.616  16.931  0.00  0.00    +0.000 NA
ATOM     16  C   UNL     1       6.904   4.632  17.035  0.00  0.00    +0.000 A 
ATOM     17  N   UNL     1       7.260   4.444  18.332  0.00  0.00    +0.000 N 
ATOM     18  N   UNL     1       6.181   4.298  19.118  0.00  0.00    +0.000 NA
ATOM     19  H   UNL     1       8.185   4.404  18.742  0.00  0.00    +0.000 HD
ENDBRANCH  12  14
ENDBRANCH  10  12
ENDBRANCH   6   8
BRANCH   3  20
ATOM     20  C   UNL     1       0.988  10.865  19.166  0.00  0.00    +0.000 C 
BRANCH  20  21
ATOM     21  C   UNL     1      -0.467  10.855  18.783  0.00  0.00    +0.000 A 
ATOM     22  C   UNL     1      -0.958  10.042  17.758  0.00  0.00    +0.000 A 
ATOM     23  C   UNL     1      -2.300  10.122  17.386  0.00  0.00    +0.000 A 
ATOM     24  C   UNL     1      -3.140  11.017  18.051  0.00  0.00    +0.000 A 
ATOM     25  N   UNL     1      -2.689  11.779  19.090  0.00  0.00    +0.000 NA
ATOM     26  C   UNL     1      -1.381  11.682  19.423  0.00  0.00    +0.000 A 
BRANCH  24  27
ATOM     27  C   UNL     1      -4.579  11.193  17.588  0.00  0.00    +0.000 C 
ATOM     28  F   UNL     1      -4.755  10.941  16.255  0.00  0.00    +0.000 F 
ATOM     29  F   UNL     1      -5.460  10.369  18.228  0.00  0.00    +0.000 F 
ATOM     30  F   UNL     1      -5.048  12.462  17.777  0.00  0.00    +0.000 F 
ENDBRANCH  24  27
ENDBRANCH  20  21
ENDBRANCH   3  20
TORSDOF 6
ENDMDL
MODEL 2
REMARK VINA RESULT:      -8.1      0.404      1.027
REMARK  Name = 
REMARK  8 active torsions:
REMARK  status: ('A' for Active; 'I' for Inactive)
REMARK    1  A    between atoms: C_1  and  C_2
REMARK    2  A    between atoms: C_3  and  C_4
REMARK    3  A    between atoms: C_4  and  C_5
REMARK    4  A    between atoms: C_8  and  C_9
REMARK    5  A    between atoms: C_17  and  C_18
REMARK    6  A    between atoms: N_20  and  C_21
REMARK    7  A    between atoms: C_21  and  C_22
REMARK    8  A    between atoms: C_21  and  C_23
REMARK                            x       y       z     vdW  Elec       q    Type
REMARK                         _______ _______ _______ _____ _____    ______ ____
ROOT
ATOM      1  C   UNL     1       2.596   8.239  17.616  0.00  0.00    +0.000 C 
ATOM      2  C   UNL     1       2.022   8.246  18.993  0.00  0.00    +0.000 A 
ATOM      3  C   UNL     1       1.370   9.360  19.645  0.00  0.00    +0.000 A 
ATOM      4  C   UNL     1       1.099   8.949  20.938  0.00  0.00    +0.000 A 
ATOM      5  N   UNL     1       1.531   7.668  21.088  0.00  0.00    +0.000 N 
ATOM      6  C   UNL     1       2.041   7.185  19.903  0.00  0.00    +0.000 A 
ATOM      7  H   UNL     1       1.478   7.114  21.936  0.00  0.00    +0.000 HD
ENDROOT
BRANCH   6   8
ATOM      8  C   UNL     1       2.508   5.813  19.829  0.00  0.00    +0.000 C 
ATOM      9  O   UNL     1       2.146   4.956  20.629  0.00  0.00    +0.000 OA
ATOM     10  N   UNL     1       3.320   5.524  18.770  0.00  0.00    +0.000 N 
ATOM     11  H   UNL     1       3.477   6.210  18.045  0.00  0.00    +0.000 HD
BRANCH  10  12
ATOM     12  C   UNL     1       3.833   4.188  18.498  0.00  0.00    +0.000 C 
ATOM     13  C   UNL     1       2.968   3.467  17.465  0.00  0.00    +0.000 C 
BRANCH  12  14
ATOM     14  C   UNL     1       5.254   4.314  18.017  0.00  0.00    +0.000 A 
ATOM     15  N   UNL     1       6.283   4.692  18.845  0.00  0.00    +0.000 NA
ATOM     16  C   UNL     1       7.326   4.683  18.053  0.00  0.00    +0.000 A 
ATOM     17  N   UNL     1       6.946   4.312  16.803  0.00  0.00    +0.000 N 
ATOM     18  N   UNL     1       5.627   4.067  16.746  0.00  0.00    +0.000 NA
ATOM     19  H   UNL     1       7.509   4.208  15.967  0.00  0.00    +0.000 HD
ENDBRANCH  12  14
ENDBRANCH  10  12
ENDBRANCH   6   8
BRANCH   3  20
ATOM     20  C   UNL     1       1.078  10.727  19.098  0.00  0.00    +0.000 C 
BRANCH  20  21
ATOM     21  C   UNL     1      -0.381  10.729  18.729  0.00  0.00    +0.000 A 
ATOM     22  C   UNL     1      -0.887   9.923  17.705  0.00  0.00    +0.000 A 
ATOM     23  C   UNL     1      -2.232  10.015  17.346  0.00  0.00    +0.000 A 
ATOM     24  C   UNL     1      -3.059  10.913  18.022  0.00  0.00    +0.000 A 
ATOM     25  N   UNL     1      -2.593  11.669  19.059  0.00  0.00    +0.000 NA
ATOM     26  C   UNL     1      -1.283  11.561  19.379  0.00  0.00    +0.000 A 
BRANCH  24  27
ATOM     27  C   UNL     1      -4.502  11.101  17.574  0.00  0.00    +0.000 C 
ATOM     28  F   UNL     1      -4.962  12.378  17.748  0.00  0.00    +0.000 F 
ATOM     29  F   UNL     1      -4.699  10.827  16.251  0.00  0.00    +0.000 F 
ATOM     30  F   UNL     1      -5.379  10.309  18.256  0.00  0.00    +0.000 F 
ENDBRANCH  24  27
ENDBRANCH  20  21
ENDBRANCH   3  20
TORSDOF 6
ENDMDL
MODEL 3
REMARK VINA RESULT:      -8.1      0.866      1.275
REMARK  Name = 
REMARK  8 active torsions:
REMARK  status: ('A' for Active; 'I' for Inactive)
REMARK    1  A    between atoms: C_1  and  C_2
REMARK    2  A    between atoms: C_3  and  C_4
REMARK    3  A    between atoms: C_4  and  C_5
REMARK    4  A    between atoms: C_8  and  C_9
REMARK    5  A    between atoms: C_17  and  C_18
REMARK    6  A    between atoms: N_20  and  C_21
REMARK    7  A    between atoms: C_21  and  C_22
REMARK    8  A    between atoms: C_21  and  C_23
REMARK                            x       y       z     vdW  Elec       q    Type
REMARK                         _______ _______ _______ _____ _____    ______ ____
ROOT
ATOM      1  C   UNL     1       0.930   8.317  21.190  0.00  0.00    +0.000 C 
ATOM      2  C   UNL     1       1.494   8.576  19.834  0.00  0.00    +0.000 A 
ATOM      3  C   UNL     1       1.386   9.804  19.079  0.00  0.00    +0.000 A 
ATOM      4  C   UNL     1       1.959   9.554  17.844  0.00  0.00    +0.000 A 
ATOM      5  N   UNL     1       2.410   8.270  17.826  0.00  0.00    +0.000 N 
ATOM      6  C   UNL     1       2.202   7.664  19.045  0.00  0.00    +0.000 A 
ATOM      7  H   UNL     1       2.860   7.806  17.044  0.00  0.00    +0.000 HD
ENDROOT
BRANCH   6   8
ATOM      8  C   UNL     1       2.661   6.304  19.258  0.00  0.00    +0.000 C 
ATOM      9  O   UNL     1       2.338   5.653  20.247  0.00  0.00    +0.000 OA
ATOM     10  N   UNL     1       3.417   5.774  18.252  0.00  0.00    +0.000 N 
ATOM     11  H   UNL     1       3.539   6.278  17.385  0.00  0.00    +0.000 HD
BRANCH  10  12
ATOM     12  C   UNL     1       3.912   4.403  18.262  0.00  0.00    +0.000 C 
ATOM     13  C   UNL     1       3.161   3.540  17.250  0.00  0.00    +0.000 C 
BRANCH  12  14
ATOM     14  C   UNL     1       5.386   4.429  17.959  0.00  0.00    +0.000 A 
ATOM     15  N   UNL     1       5.875   4.533  16.679  0.00  0.00    +0.000 NA
ATOM     16  C   UNL     1       7.174   4.515  16.850  0.00  0.00    +0.000 A 
ATOM     17  N   UNL     1       7.458   4.409  18.174  0.00  0.00    +0.000 N 
ATOM     18  N   UNL     1       6.336   4.354  18.911  0.00  0.00    +0.000 NA
ATOM     19  H   UNL     1       8.360   4.370  18.635  0.00  0.00    +0.000 HD
ENDBRANCH  12  14
ENDBRANCH  10  12
ENDBRANCH   6   8
BRANCH   3  20
ATOM     20  C   UNL     1       0.738  11.098  19.480  0.00  0.00    +0.000 C 
BRANCH  20  21
ATOM     21  C   UNL     1      -0.675  11.037  18.968  0.00  0.00    +0.000 A 
ATOM     22  C   UNL     1      -1.056  10.163  17.946  0.00  0.00    +0.000 A 
ATOM     23  C   UNL     1      -2.360  10.195  17.451  0.00  0.00    +0.000 A 
ATOM     24  C   UNL     1      -3.272  11.104  17.990  0.00  0.00    +0.000 A 
ATOM     25  N   UNL     1      -2.932  11.927  19.024  0.00  0.00    +0.000 NA
ATOM     26  C   UNL     1      -1.658  11.876  19.478  0.00  0.00    +0.000 A 
BRANCH  24  27
ATOM     27  C   UNL     1      -4.666  11.225  17.390  0.00  0.00    +0.000 C 
ATOM     28  F   UNL     1      -4.723  10.863  16.072  0.00  0.00    +0.000 F 
ATOM     29  F   UNL     1      -5.596  10.446  18.016  0.00  0.00    +0.000 F 
ATOM     30  F   UNL     1      -5.155  12.499  17.432  0.00  0.00    +0.000 F 
ENDBRANCH  24  27
ENDBRANCH  20  21
ENDBRANCH   3  20
TORSDOF 6
ENDMDL
MODEL 4
REMARK VINA RESULT:      -8.1      1.845      2.142
REMARK  Name = 
REMARK  8 active torsions:
REMARK  status: ('A' for Active; 'I' for Inactive)
REMARK    1  A    between atoms: C_1  and  C_2
REMARK    2  A    between atoms: C_3  and  C_4
REMARK    3  A    between atoms: C_4  and  C_5
REMARK    4  A    between atoms: C_8  and  C_9
REMARK    5  A    between atoms: C_17  and  C_18
REMARK    6  A    between atoms: N_20  and  C_21
REMARK    7  A    between atoms: C_21  and  C_22
REMARK    8  A    between atoms: C_21  and  C_23
REMARK                            x       y       z     vdW  Elec       q    Type
REMARK                         _______ _______ _______ _____ _____    ______ ____
ROOT
ATOM      1  C   UNL     1       2.950   8.128  17.595  0.00  0.00    +0.000 C 
ATOM      2  C   UNL     1       2.166   8.202  18.863  0.00  0.00    +0.000 A 
ATOM      3  C   UNL     1       1.325   9.298  19.289  0.00  0.00    +0.000 A 
ATOM      4  C   UNL     1       0.889   8.981  20.564  0.00  0.00    +0.000 A 
ATOM      5  N   UNL     1       1.401   7.769  20.910  0.00  0.00    +0.000 N 
ATOM      6  C   UNL     1       2.132   7.235  19.872  0.00  0.00    +0.000 A 
ATOM      7  H   UNL     1       1.262   7.293  21.795  0.00  0.00    +0.000 HD
ENDROOT
BRANCH   6   8
ATOM      8  C   UNL     1       2.722   5.917  20.014  0.00  0.00    +0.000 C 
ATOM      9  O   UNL     1       3.885   5.685  19.695  0.00  0.00    +0.000 OA
ATOM     10  N   UNL     1       1.922   4.973  20.590  0.00  0.00    +0.000 N 
ATOM     11  H   UNL     1       1.027   5.232  20.980  0.00  0.00    +0.000 HD
BRANCH  10  12
ATOM     12  C   UNL     1       2.365   3.614  20.870  0.00  0.00    +0.000 C 
ATOM     13  C   UNL     1       1.287   2.826  21.611  0.00  0.00    +0.000 C 
BRANCH  12  14
ATOM     14  C   UNL     1       2.716   2.950  19.565  0.00  0.00    +0.000 A 
ATOM     15  N   UNL     1       1.834   2.877  18.514  0.00  0.00    +0.000 NA
ATOM     16  C   UNL     1       2.513   2.233  17.596  0.00  0.00    +0.000 A 
ATOM     17  N   UNL     1       3.751   1.935  18.069  0.00  0.00    +0.000 N 
ATOM     18  N   UNL     1       3.913   2.381  19.326  0.00  0.00    +0.000 NA
ATOM     19  H   UNL     1       4.511   1.446  17.611  0.00  0.00    +0.000 HD
ENDBRANCH  12  14
ENDBRANCH  10  12
ENDBRANCH   6   8
BRANCH   3  20
ATOM     20  C   UNL     1       1.006  10.574  18.563  0.00  0.00    +0.000 C 
BRANCH  20  21
ATOM     21  C   UNL     1      -0.492  10.622  18.438  0.00  0.00    +0.000 A 
ATOM     22  C   UNL     1      -1.193   9.765  17.584  0.00  0.00    +0.000 A 
ATOM     23  C   UNL     1      -2.574   9.898  17.443  0.00  0.00    +0.000 A 
ATOM     24  C   UNL     1      -3.242  10.889  18.164  0.00  0.00    +0.000 A 
ATOM     25  N   UNL     1      -2.581  11.699  19.042  0.00  0.00    +0.000 NA
ATOM     26  C   UNL     1      -1.240  11.549  19.153  0.00  0.00    +0.000 A 
BRANCH  24  27
ATOM     27  C   UNL     1      -4.731  11.116  17.943  0.00  0.00    +0.000 C 
ATOM     28  F   UNL     1      -5.105  11.017  16.630  0.00  0.00    +0.000 F 
ATOM     29  F   UNL     1      -5.521  10.224  18.609  0.00  0.00    +0.000 F 
ATOM     30  F   UNL     1      -5.146  12.355  18.339  0.00  0.00    +0.000 F 
ENDBRANCH  24  27
ENDBRANCH  20  21
ENDBRANCH   3  20
TORSDOF 6
ENDMDL
MODEL 5
REMARK VINA RESULT:      -7.7      1.078      1.368
REMARK  Name = 
REMARK  8 active torsions:
REMARK  status: ('A' for Active; 'I' for Inactive)
REMARK    1  A    between atoms: C_1  and  C_2
REMARK    2  A    between atoms: C_3  and  C_4
REMARK    3  A    between atoms: C_4  and  C_5
REMARK    4  A    between atoms: C_8  and  C_9
REMARK    5  A    between atoms: C_17  and  C_18
REMARK    6  A    between atoms: N_20  and  C_21
REMARK    7  A    between atoms: C_21  and  C_22
REMARK    8  A    between atoms: C_21  and  C_23
REMARK                            x       y       z     vdW  Elec       q    Type
REMARK                         _______ _______ _______ _____ _____    ______ ____
ROOT
ATOM      1  C   UNL     1       2.256   8.925  17.747  0.00  0.00    +0.000 C 
ATOM      2  C   UNL     1       1.763   8.751  19.145  0.00  0.00    +0.000 A 
ATOM      3  C   UNL     1       1.100   9.751  19.951  0.00  0.00    +0.000 A 
ATOM      4  C   UNL     1       0.924   9.187  21.202  0.00  0.00    +0.000 A 
ATOM      5  N   UNL     1       1.424   7.922  21.184  0.00  0.00    +0.000 N 
ATOM      6  C   UNL     1       1.886   7.599  19.927  0.00  0.00    +0.000 A 
ATOM      7  H   UNL     1       1.446   7.277  21.967  0.00  0.00    +0.000 HD
ENDROOT
BRANCH   6   8
ATOM      8  C   UNL     1       2.412   6.271  19.675  0.00  0.00    +0.000 C 
ATOM      9  O   UNL     1       2.337   5.370  20.506  0.00  0.00    +0.000 OA
ATOM     10  N   UNL     1       2.929   6.070  18.427  0.00  0.00    +0.000 N 
ATOM     11  H   UNL     1       2.838   6.781  17.717  0.00  0.00    +0.000 HD
BRANCH  10  12
ATOM     12  C   UNL     1       3.443   4.784  17.974  0.00  0.00    +0.000 C 
ATOM     13  C   UNL     1       2.313   3.885  17.475  0.00  0.00    +0.000 C 
BRANCH  12  14
ATOM     14  C   UNL     1       4.453   5.034  16.886  0.00  0.00    +0.000 A 
ATOM     15  N   UNL     1       5.055   4.015  16.188  0.00  0.00    +0.000 NA
ATOM     16  C   UNL     1       5.849   4.646  15.358  0.00  0.00    +0.000 A 
ATOM     17  N   UNL     1       5.730   5.986  15.543  0.00  0.00    +0.000 N 
ATOM     18  N   UNL     1       4.843   6.268  16.512  0.00  0.00    +0.000 NA
ATOM     19  H   UNL     1       6.204   6.743  15.064  0.00  0.00    +0.000 HD
ENDBRANCH  12  14
ENDBRANCH  10  12
ENDBRANCH   6   8
BRANCH   3  20
ATOM     20  C   UNL     1       0.712  11.153  19.577  0.00  0.00    +0.000 C 
BRANCH  20  21
ATOM     21  C   UNL     1      -0.700  11.075  19.063  0.00  0.00    +0.000 A 
ATOM     22  C   UNL     1      -1.066  10.210  18.027  0.00  0.00    +0.000 A 
ATOM     23  C   UNL     1      -2.370  10.228  17.532  0.00  0.00    +0.000 A 
ATOM     24  C   UNL     1      -3.298  11.112  18.084  0.00  0.00    +0.000 A 
ATOM     25  N   UNL     1      -2.972  11.925  19.131  0.00  0.00    +0.000 NA
ATOM     26  C   UNL     1      -1.697  11.889  19.586  0.00  0.00    +0.000 A 
BRANCH  24  27
ATOM     27  C   UNL     1      -4.694  11.218  17.486  0.00  0.00    +0.000 C 
ATOM     28  F   UNL     1      -5.217  12.481  17.552  0.00  0.00    +0.000 F 
ATOM     29  F   UNL     1      -4.745  10.878  16.165  0.00  0.00    +0.000 F 
ATOM     30  F   UNL     1      -5.605  10.420  18.115  0.00  0.00    +0.000 F 
ENDBRANCH  24  27
ENDBRANCH  20  21
ENDBRANCH   3  20
TORSDOF 6
ENDMDL
MODEL 6
REMARK VINA RESULT:      -7.7      0.809      1.359
REMARK  Name = 
REMARK  8 active torsions:
REMARK  status: ('A' for Active; 'I' for Inactive)
REMARK    1  A    between atoms: C_1  and  C_2
REMARK    2  A    between atoms: C_3  and  C_4
REMARK    3  A    between atoms: C_4  and  C_5
REMARK    4  A    between atoms: C_8  and  C_9
REMARK    5  A    between atoms: C_17  and  C_18
REMARK    6  A    between atoms: N_20  and  C_21
REMARK    7  A    between atoms: C_21  and  C_22
REMARK    8  A    between atoms: C_21  and  C_23
REMARK                            x       y       z     vdW  Elec       q    Type
REMARK                         _______ _______ _______ _____ _____    ______ ____
ROOT
ATOM      1  C   UNL     1       2.455   8.499  17.684  0.00  0.00    +0.000 C 
ATOM      2  C   UNL     1       1.892   8.576  19.063  0.00  0.00    +0.000 A 
ATOM      3  C   UNL     1       1.269   9.729  19.672  0.00  0.00    +0.000 A 
ATOM      4  C   UNL     1       0.999   9.379  20.983  0.00  0.00    +0.000 A 
ATOM      5  N   UNL     1       1.405   8.096  21.183  0.00  0.00    +0.000 N 
ATOM      6  C   UNL     1       1.896   7.553  20.016  0.00  0.00    +0.000 A 
ATOM      7  H   UNL     1       1.347   7.579  22.054  0.00  0.00    +0.000 HD
ENDROOT
BRANCH   6   8
ATOM      8  C   UNL     1       2.333   6.170  19.996  0.00  0.00    +0.000 C 
ATOM      9  O   UNL     1       1.613   5.252  20.377  0.00  0.00    +0.000 OA
ATOM     10  N   UNL     1       3.570   5.951  19.459  0.00  0.00    +0.000 N 
ATOM     11  H   UNL     1       4.074   6.706  19.015  0.00  0.00    +0.000 HD
BRANCH  10  12
ATOM     12  C   UNL     1       4.147   4.623  19.298  0.00  0.00    +0.000 C 
ATOM     13  C   UNL     1       3.400   3.826  18.230  0.00  0.00    +0.000 C 
BRANCH  12  14
ATOM     14  C   UNL     1       5.600   4.779  18.936  0.00  0.00    +0.000 A 
ATOM     15  N   UNL     1       6.093   4.442  17.699  0.00  0.00    +0.000 NA
ATOM     16  C   UNL     1       7.371   4.718  17.799  0.00  0.00    +0.000 A 
ATOM     17  N   UNL     1       7.637   5.203  19.039  0.00  0.00    +0.000 N 
ATOM     18  N   UNL     1       6.525   5.257  19.791  0.00  0.00    +0.000 NA
ATOM     19  H   UNL     1       8.520   5.508  19.432  0.00  0.00    +0.000 HD
ENDBRANCH  12  14
ENDBRANCH  10  12
ENDBRANCH   6   8
BRANCH   3  20
ATOM     20  C   UNL     1       1.001  11.079  19.071  0.00  0.00    +0.000 C 
BRANCH  20  21
ATOM     21  C   UNL     1      -0.471  11.117  18.763  0.00  0.00    +0.000 A 
ATOM     22  C   UNL     1      -1.335  12.023  19.386  0.00  0.00    +0.000 A 
ATOM     23  C   UNL     1      -2.704  11.971  19.126  0.00  0.00    +0.000 A 
ATOM     24  C   UNL     1      -3.195  11.011  18.239  0.00  0.00    +0.000 A 
ATOM     25  N   UNL     1      -2.359  10.155  17.582  0.00  0.00    +0.000 NA
ATOM     26  C   UNL     1      -1.037  10.227  17.859  0.00  0.00    +0.000 A 
BRANCH  24  27
ATOM     27  C   UNL     1      -4.696  10.873  18.025  0.00  0.00    +0.000 C 
ATOM     28  F   UNL     1      -5.430  11.794  18.721  0.00  0.00    +0.000 F 
ATOM     29  F   UNL     1      -5.075  11.022  16.722  0.00  0.00    +0.000 F 
ATOM     30  F   UNL     1      -5.180   9.659  18.420  0.00  0.00    +0.000 F 
ENDBRANCH  24  27
ENDBRANCH  20  21
ENDBRANCH   3  20
TORSDOF 6
ENDMDL
MODEL 7
REMARK VINA RESULT:      -7.6      5.126      9.104
REMARK  Name = 
REMARK  8 active torsions:
REMARK  status: ('A' for Active; 'I' for Inactive)
REMARK    1  A    between atoms: C_1  and  C_2
REMARK    2  A    between atoms: C_3  and  C_4
REMARK    3  A    between atoms: C_4  and  C_5
REMARK    4  A    between atoms: C_8  and  C_9
REMARK    5  A    between atoms: C_17  and  C_18
REMARK    6  A    between atoms: N_20  and  C_21
REMARK    7  A    between atoms: C_21  and  C_22
REMARK    8  A    between atoms: C_21  and  C_23
REMARK                            x       y       z     vdW  Elec       q    Type
REMARK                         _______ _______ _______ _____ _____    ______ ____
ROOT
ATOM      1  C   UNL     1       4.639   7.160  17.718  0.00  0.00    +0.000 C 
ATOM      2  C   UNL     1       4.619   5.912  18.536  0.00  0.00    +0.000 A 
ATOM      3  C   UNL     1       5.651   4.902  18.586  0.00  0.00    +0.000 A 
ATOM      4  C   UNL     1       5.161   3.883  19.384  0.00  0.00    +0.000 A 
ATOM      5  N   UNL     1       3.920   4.231  19.820  0.00  0.00    +0.000 N 
ATOM      6  C   UNL     1       3.583   5.490  19.375  0.00  0.00    +0.000 A 
ATOM      7  H   UNL     1       3.315   3.669  20.409  0.00  0.00    +0.000 HD
ENDROOT
BRANCH   6   8
ATOM      8  C   UNL     1       2.317   6.077  19.774  0.00  0.00    +0.000 C 
ATOM      9  O   UNL     1       1.293   5.409  19.882  0.00  0.00    +0.000 OA
ATOM     10  N   UNL     1       2.357   7.405  20.088  0.00  0.00    +0.000 N 
ATOM     11  H   UNL     1       3.241   7.892  20.137  0.00  0.00    +0.000 HD
BRANCH  10  12
ATOM     12  C   UNL     1       1.199   8.147  20.569  0.00  0.00    +0.000 C 
ATOM     13  C   UNL     1       1.452   8.716  21.964  0.00  0.00    +0.000 C 
BRANCH  12  14
ATOM     14  C   UNL     1       0.898   9.246  19.585  0.00  0.00    +0.000 A 
ATOM     15  N   UNL     1      -0.138  10.131  19.761  0.00  0.00    +0.000 NA
ATOM     16  C   UNL     1      -0.058  10.902  18.704  0.00  0.00    +0.000 A 
ATOM     17  N   UNL     1       0.981  10.503  17.927  0.00  0.00    +0.000 N 
ATOM     18  N   UNL     1       1.615   9.447  18.463  0.00  0.00    +0.000 NA
ATOM     19  H   UNL     1       1.308  10.888  17.048  0.00  0.00    +0.000 HD
ENDBRANCH  12  14
ENDBRANCH  10  12
ENDBRANCH   6   8
BRANCH   3  20
ATOM     20  C   UNL     1       6.979   4.882  17.884  0.00  0.00    +0.000 C 
BRANCH  20  21
ATOM     21  C   UNL     1       6.684   4.598  16.436  0.00  0.00    +0.000 A 
ATOM     22  C   UNL     1       5.756   3.629  16.044  0.00  0.00    +0.000 A 
ATOM     23  C   UNL     1       5.572   3.347  14.691  0.00  0.00    +0.000 A 
ATOM     24  C   UNL     1       6.319   4.044  13.740  0.00  0.00    +0.000 A 
ATOM     25  N   UNL     1       7.190   5.031  14.102  0.00  0.00    +0.000 NA
ATOM     26  C   UNL     1       7.350   5.277  15.424  0.00  0.00    +0.000 A 
BRANCH  24  27
ATOM     27  C   UNL     1       6.207   3.676  12.267  0.00  0.00    +0.000 C 
ATOM     28  F   UNL     1       7.039   4.403  11.461  0.00  0.00    +0.000 F 
ATOM     29  F   UNL     1       6.509   2.370  12.010  0.00  0.00    +0.000 F 
ATOM     30  F   UNL     1       4.955   3.877  11.762  0.00  0.00    +0.000 F 
ENDBRANCH  24  27
ENDBRANCH  20  21
ENDBRANCH   3  20
TORSDOF 6
ENDMDL
MODEL 8
REMARK VINA RESULT:      -7.6      0.808      1.079
REMARK  Name = 
REMARK  8 active torsions:
REMARK  status: ('A' for Active; 'I' for Inactive)
REMARK    1  A    between atoms: C_1  and  C_2
REMARK    2  A    between atoms: C_3  and  C_4
REMARK    3  A    between atoms: C_4  and  C_5
REMARK    4  A    between atoms: C_8  and  C_9
REMARK    5  A    between atoms: C_17  and  C_18
REMARK    6  A    between atoms: N_20  and  C_21
REMARK    7  A    between atoms: C_21  and  C_22
REMARK    8  A    between atoms: C_21  and  C_23
REMARK                            x       y       z     vdW  Elec       q    Type
REMARK                         _______ _______ _______ _____ _____    ______ ____
ROOT
ATOM      1  C   UNL     1       2.446   8.905  17.561  0.00  0.00    +0.000 C 
ATOM      2  C   UNL     1       1.932   8.567  18.920  0.00  0.00    +0.000 A 
ATOM      3  C   UNL     1       1.245   9.462  19.824  0.00  0.00    +0.000 A 
ATOM      4  C   UNL     1       1.053   8.756  20.999  0.00  0.00    +0.000 A 
ATOM      5  N   UNL     1       1.564   7.505  20.843  0.00  0.00    +0.000 N 
ATOM      6  C   UNL     1       2.050   7.333  19.566  0.00  0.00    +0.000 A 
ATOM      7  H   UNL     1       1.578   6.774  21.546  0.00  0.00    +0.000 HD
ENDROOT
BRANCH   6   8
ATOM      8  C   UNL     1       2.592   6.046  19.171  0.00  0.00    +0.000 C 
ATOM      9  O   UNL     1       2.318   5.524  18.094  0.00  0.00    +0.000 OA
ATOM     10  N   UNL     1       3.481   5.489  20.045  0.00  0.00    +0.000 N 
ATOM     11  H   UNL     1       3.803   6.010  20.848  0.00  0.00    +0.000 HD
BRANCH  10  12
ATOM     12  C   UNL     1       4.174   4.233  19.787  0.00  0.00    +0.000 C 
ATOM     13  C   UNL     1       3.296   3.276  18.984  0.00  0.00    +0.000 C 
BRANCH  12  14
ATOM     14  C   UNL     1       5.452   4.539  19.051  0.00  0.00    +0.000 A 
ATOM     15  N   UNL     1       5.582   4.361  17.695  0.00  0.00    +0.000 NA
ATOM     16  C   UNL     1       6.819   4.729  17.461  0.00  0.00    +0.000 A 
ATOM     17  N   UNL     1       7.407   5.115  18.623  0.00  0.00    +0.000 N 
ATOM     18  N   UNL     1       6.559   5.007  19.659  0.00  0.00    +0.000 NA
ATOM     19  H   UNL     1       8.349   5.451  18.783  0.00  0.00    +0.000 HD
ENDBRANCH  12  14
ENDBRANCH  10  12
ENDBRANCH   6   8
BRANCH   3  20
ATOM     20  C   UNL     1       0.852  10.895  19.608  0.00  0.00    +0.000 C 
BRANCH  20  21
ATOM     21  C   UNL     1      -0.553  10.868  19.068  0.00  0.00    +0.000 A 
ATOM     22  C   UNL     1      -0.915  10.063  17.985  0.00  0.00    +0.000 A 
ATOM     23  C   UNL     1      -2.210  10.128  17.470  0.00  0.00    +0.000 A 
ATOM     24  C   UNL     1      -3.132  11.000  18.051  0.00  0.00    +0.000 A 
ATOM     25  N   UNL     1      -2.810  11.754  19.142  0.00  0.00    +0.000 NA
ATOM     26  C   UNL     1      -1.545  11.672  19.615  0.00  0.00    +0.000 A 
BRANCH  24  27
ATOM     27  C   UNL     1      -4.516  11.161  17.436  0.00  0.00    +0.000 C 
ATOM     28  F   UNL     1      -4.986  12.444  17.487  0.00  0.00    +0.000 F 
ATOM     29  F   UNL     1      -4.568  10.811  16.118  0.00  0.00    +0.000 F 
ATOM     30  F   UNL     1      -5.467  10.407  18.062  0.00  0.00    +0.000 F 
ENDBRANCH  24  27
ENDBRANCH  20  21
ENDBRANCH   3  20
TORSDOF 6
ENDMDL
MODEL 9
REMARK VINA RESULT:      -7.5      4.470      8.846
REMARK  Name = 
REMARK  8 active torsions:
REMARK  status: ('A' for Active; 'I' for Inactive)
REMARK    1  A    between atoms: C_1  and  C_2
REMARK    2  A    between atoms: C_3  and  C_4
REMARK    3  A    between atoms: C_4  and  C_5
REMARK    4  A    between atoms: C_8  and  C_9
REMARK    5  A    between atoms: C_17  and  C_18
REMARK    6  A    between atoms: N_20  and  C_21
REMARK    7  A    between atoms: C_21  and  C_22
REMARK    8  A    between atoms: C_21  and  C_23
REMARK                            x       y       z     vdW  Elec       q    Type
REMARK                         _______ _______ _______ _____ _____    ______ ____
ROOT
ATOM      1  C   UNL     1       1.775   9.482  17.762  0.00  0.00    +0.000 C 
ATOM      2  C   UNL     1       0.938   9.462  18.997  0.00  0.00    +0.000 A 
ATOM      3  C   UNL     1       1.218   8.727  20.210  0.00  0.00    +0.000 A 
ATOM      4  C   UNL     1       0.126   8.916  21.040  0.00  0.00    +0.000 A 
ATOM      5  N   UNL     1      -0.768   9.723  20.405  0.00  0.00    +0.000 N 
ATOM      6  C   UNL     1      -0.277  10.127  19.184  0.00  0.00    +0.000 A 
ATOM      7  H   UNL     1      -1.668  10.018  20.768  0.00  0.00    +0.000 HD
ENDROOT
BRANCH   6   8
ATOM      8  C   UNL     1      -1.052  11.041  18.366  0.00  0.00    +0.000 C 
ATOM      9  O   UNL     1      -0.784  12.236  18.289  0.00  0.00    +0.000 OA
ATOM     10  N   UNL     1      -2.053  10.470  17.633  0.00  0.00    +0.000 N 
ATOM     11  H   UNL     1      -2.151   9.465  17.599  0.00  0.00    +0.000 HD
BRANCH  10  12
ATOM     12  C   UNL     1      -2.893  11.219  16.708  0.00  0.00    +0.000 C 
ATOM     13  C   UNL     1      -2.880  10.585  15.318  0.00  0.00    +0.000 C 
BRANCH  12  14
ATOM     14  C   UNL     1      -4.290  11.265  17.266  0.00  0.00    +0.000 A 
ATOM     15  N   UNL     1      -5.215  12.199  16.866  0.00  0.00    +0.000 NA
ATOM     16  C   UNL     1      -6.273  11.901  17.580  0.00  0.00    +0.000 A 
ATOM     17  N   UNL     1      -6.001  10.832  18.373  0.00  0.00    +0.000 N 
ATOM     18  N   UNL     1      -4.741  10.400  18.195  0.00  0.00    +0.000 NA
ATOM     19  H   UNL     1      -6.602  10.359  19.038  0.00  0.00    +0.000 HD
ENDBRANCH  12  14
ENDBRANCH  10  12
ENDBRANCH   6   8
BRANCH   3  20
ATOM     20  C   UNL     1       2.405   7.867  20.534  0.00  0.00    +0.000 C 
BRANCH  20  21
ATOM     21  C   UNL     1       2.069   6.484  20.044  0.00  0.00    +0.000 A 
ATOM     22  C   UNL     1       1.422   5.547  20.856  0.00  0.00    +0.000 A 
ATOM     23  C   UNL     1       1.199   4.253  20.385  0.00  0.00    +0.000 A 
ATOM     24  C   UNL     1       1.625   3.912  19.101  0.00  0.00    +0.000 A 
ATOM     25  N   UNL     1       2.209   4.829  18.276  0.00  0.00    +0.000 NA
ATOM     26  C   UNL     1       2.416   6.074  18.764  0.00  0.00    +0.000 A 
BRANCH  24  27
ATOM     27  C   UNL     1       1.484   2.477  18.611  0.00  0.00    +0.000 C 
ATOM     28  F   UNL     1       2.095   2.252  17.408  0.00  0.00    +0.000 F 
ATOM     29  F   UNL     1       2.024   1.557  19.464  0.00  0.00    +0.000 F 
ATOM     30  F   UNL     1       0.185   2.101  18.428  0.00  0.00    +0.000 F 
ENDBRANCH  24  27
ENDBRANCH  20  21
ENDBRANCH   3  20
TORSDOF 6
ENDMDL
