MODEL 1
REMARK VINA RESULT:      -8.5      0.000      0.000
REMARK  Name = 
REMARK  7 active torsions:
REMARK  status: ('A' for Active; 'I' for Inactive)
REMARK    1  A    between atoms: C_1  and  N_2
REMARK    2  A    between atoms: C_5  and  C_6
REMARK    3  A    between atoms: N_9  and  C_10
REMARK    4  A    between atoms: C_13  and  O_14
REMARK    5  A    between atoms: O_14  and  C_15
REMARK    6  A    between atoms: C_16  and  C_17
REMARK    7  A    between atoms: N_21  and  C_22
REMARK                            x       y       z     vdW  Elec       q    Type
REMARK                         _______ _______ _______ _____ _____    ______ ____
ROOT
ATOM      1  C   UNL     1       1.964   5.859  20.248  0.00  0.00    +0.000 A 
ATOM      2  C   UNL     1       1.366   4.615  20.044  0.00  0.00    +0.000 A 
ATOM      3  C   UNL     1       1.973   3.654  19.230  0.00  0.00    +0.000 A 
ATOM      4  C   UNL     1       3.197   3.908  18.591  0.00  0.00    +0.000 A 
ATOM      5  C   UNL     1       3.814   5.155  18.766  0.00  0.00    +0.000 A 
ATOM      6  C   UNL     1       3.176   6.113  19.582  0.00  0.00    +0.000 A 
ENDROOT
BRANCH   1  15
ATOM      7  C   UNL     1       1.583  12.024  18.559  0.00  0.00    +0.000 C 
ATOM      8  N   UNL     1       1.283  10.614  18.629  0.00  0.00    +0.000 N 
ATOM      9  C   UNL     1       0.971  10.034  19.843  0.00  0.00    +0.000 A 
ATOM     10  C   UNL     1       0.243  10.651  20.831  0.00  0.00    +0.000 A 
ATOM     11  C   UNL     1      -0.015   9.908  21.963  0.00  0.00    +0.000 A 
ATOM     12  C   UNL     1      -0.805  10.498  23.092  0.00  0.00    +0.000 C 
ATOM     13  N   UNL     1       0.384   8.626  22.097  0.00  0.00    +0.000 NA
ATOM     14  C   UNL     1       1.049   8.084  21.067  0.00  0.00    +0.000 A 
ATOM     15  N   UNL     1       1.415   6.744  21.186  0.00  0.00    +0.000 N 
ATOM     16  N   UNL     1       1.378   8.771  19.966  0.00  0.00    +0.000 NA
ATOM     17  H   UNL     1       1.952  10.001  18.171  0.00  0.00    +0.000 HD
ATOM     18  H   UNL     1       1.201   6.394  22.108  0.00  0.00    +0.000 HD
ENDBRANCH   1  15
BRANCH   5  19
ATOM     19  C   UNL     1       5.127   5.538  18.215  0.00  0.00    +0.000 C 
ATOM     20  C   UNL     1       6.212   5.502  19.004  0.00  0.00    +0.000 C 
ATOM     21  C   UNL     1       7.534   6.011  18.532  0.00  0.00    +0.000 C 
ATOM     22  C   UNL     1       7.542   6.587  17.102  0.00  0.00    +0.000 C 
ATOM     23  N   UNL     1       6.497   6.158  16.169  0.00  0.00    +0.000 NA
ATOM     24  C   UNL     1       6.898   5.049  15.320  0.00  0.00    +0.000 C 
ATOM     25  C   UNL     1       5.166   5.982  16.773  0.00  0.00    +0.000 C 
ENDBRANCH   5  19
BRANCH   4  26
ATOM     26  O   UNL     1       3.705   2.814  17.942  0.00  0.00    +0.000 OA
ATOM     27  C   UNL     1       3.443   1.540  18.516  0.00  0.00    +0.000 C 
ENDBRANCH   4  26
TORSDOF 3
ENDMDL
MODEL 2
REMARK VINA RESULT:      -8.3      0.904      1.491
REMARK  Name = 
REMARK  7 active torsions:
REMARK  status: ('A' for Active; 'I' for Inactive)
REMARK    1  A    between atoms: C_1  and  N_2
REMARK    2  A    between atoms: C_5  and  C_6
REMARK    3  A    between atoms: N_9  and  C_10
REMARK    4  A    between atoms: C_13  and  O_14
REMARK    5  A    between atoms: O_14  and  C_15
REMARK    6  A    between atoms: C_16  and  C_17
REMARK    7  A    between atoms: N_21  and  C_22
REMARK                            x       y       z     vdW  Elec       q    Type
REMARK                         _______ _______ _______ _____ _____    ______ ____
ROOT
ATOM      1  C   UNL     1       1.796   5.542  20.107  0.00  0.00    +0.000 A 
ATOM      2  C   UNL     1       1.041   4.373  20.011  0.00  0.00    +0.000 A 
ATOM      3  C   UNL     1       1.484   3.296  19.237  0.00  0.00    +0.000 A 
ATOM      4  C   UNL     1       2.696   3.354  18.533  0.00  0.00    +0.000 A 
ATOM      5  C   UNL     1       3.470   4.523  18.599  0.00  0.00    +0.000 A 
ATOM      6  C   UNL     1       2.995   5.600  19.375  0.00  0.00    +0.000 A 
ENDROOT
BRANCH   1  15
ATOM      7  C   UNL     1       2.042  11.589  18.013  0.00  0.00    +0.000 C 
ATOM      8  N   UNL     1       1.584  10.232  18.195  0.00  0.00    +0.000 N 
ATOM      9  C   UNL     1       1.274   9.772  19.460  0.00  0.00    +0.000 A 
ATOM     10  C   UNL     1       0.680  10.533  20.436  0.00  0.00    +0.000 A 
ATOM     11  C   UNL     1       0.401   9.899  21.629  0.00  0.00    +0.000 A 
ATOM     12  C   UNL     1      -0.250  10.651  22.751  0.00  0.00    +0.000 C 
ATOM     13  N   UNL     1       0.655   8.589  21.832  0.00  0.00    +0.000 NA
ATOM     14  C   UNL     1       1.194   7.908  20.812  0.00  0.00    +0.000 A 
ATOM     15  N   UNL     1       1.407   6.544  21.006  0.00  0.00    +0.000 N 
ATOM     16  N   UNL     1       1.538   8.479  19.651  0.00  0.00    +0.000 NA
ATOM     17  H   UNL     1       2.151   9.515  17.750  0.00  0.00    +0.000 HD
ATOM     18  H   UNL     1       1.206   6.281  21.959  0.00  0.00    +0.000 HD
ENDBRANCH   1  15
BRANCH   5  19
ATOM     19  C   UNL     1       4.791   4.703  17.970  0.00  0.00    +0.000 C 
ATOM     20  C   UNL     1       4.867   5.066  16.681  0.00  0.00    +0.000 C 
ATOM     21  C   UNL     1       6.178   5.125  15.966  0.00  0.00    +0.000 C 
ATOM     22  C   UNL     1       7.403   4.723  16.809  0.00  0.00    +0.000 C 
ATOM     23  N   UNL     1       7.310   4.817  18.269  0.00  0.00    +0.000 NA
ATOM     24  C   UNL     1       7.826   6.068  18.802  0.00  0.00    +0.000 C 
ATOM     25  C   UNL     1       6.004   4.435  18.829  0.00  0.00    +0.000 C 
ENDBRANCH   5  19
BRANCH   4  26
ATOM     26  O   UNL     1       3.033   2.168  17.938  0.00  0.00    +0.000 OA
ATOM     27  C   UNL     1       3.768   1.235  18.720  0.00  0.00    +0.000 C 
ENDBRANCH   4  26
TORSDOF 3
ENDMDL
MODEL 3
REMARK VINA RESULT:      -8.0      2.641      4.397
REMARK  Name = 
REMARK  7 active torsions:
REMARK  status: ('A' for Active; 'I' for Inactive)
REMARK    1  A    between atoms: C_1  and  N_2
REMARK    2  A    between atoms: C_5  and  C_6
REMARK    3  A    between atoms: N_9  and  C_10
REMARK    4  A    between atoms: C_13  and  O_14
REMARK    5  A    between atoms: O_14  and  C_15
REMARK    6  A    between atoms: C_16  and  C_17
REMARK    7  A    between atoms: N_21  and  C_22
REMARK                            x       y       z     vdW  Elec       q    Type
REMARK                         _______ _______ _______ _____ _____    ______ ____
ROOT
ATOM      1  C   UNL     1       1.837   8.723  19.220  0.00  0.00    +0.000 A 
ATOM      2  C   UNL     1       2.501   8.943  18.012  0.00  0.00    +0.000 A 
ATOM      3  C   UNL     1       3.198   7.909  17.381  0.00  0.00    +0.000 A 
ATOM      4  C   UNL     1       3.255   6.622  17.937  0.00  0.00    +0.000 A 
ATOM      5  C   UNL     1       2.609   6.375  19.157  0.00  0.00    +0.000 A 
ATOM      6  C   UNL     1       1.923   7.437  19.782  0.00  0.00    +0.000 A 
ENDROOT
BRANCH   1  15
ATOM      7  C   UNL     1      -2.886  10.918  15.494  0.00  0.00    +0.000 C 
ATOM      8  N   UNL     1      -2.142  10.047  16.371  0.00  0.00    +0.000 N 
ATOM      9  C   UNL     1      -1.754  10.491  17.620  0.00  0.00    +0.000 A 
ATOM     10  C   UNL     1      -2.509  11.317  18.416  0.00  0.00    +0.000 A 
ATOM     11  C   UNL     1      -1.988  11.627  19.655  0.00  0.00    +0.000 A 
ATOM     12  C   UNL     1      -2.744  12.519  20.593  0.00  0.00    +0.000 C 
ATOM     13  N   UNL     1      -0.815  11.124  20.096  0.00  0.00    +0.000 NA
ATOM     14  C   UNL     1      -0.163  10.289  19.274  0.00  0.00    +0.000 A 
ATOM     15  N   UNL     1       1.021   9.730  19.752  0.00  0.00    +0.000 N 
ATOM     16  N   UNL     1      -0.591   9.994  18.040  0.00  0.00    +0.000 NA
ATOM     17  H   UNL     1      -1.334   9.592  15.955  0.00  0.00    +0.000 HD
ATOM     18  H   UNL     1       1.272  10.129  20.645  0.00  0.00    +0.000 HD
ENDBRANCH   1  15
BRANCH   5  19
ATOM     19  C   UNL     1       2.526   5.062  19.824  0.00  0.00    +0.000 C 
ATOM     20  C   UNL     1       1.376   4.685  20.402  0.00  0.00    +0.000 C 
ATOM     21  C   UNL     1       1.286   3.429  21.206  0.00  0.00    +0.000 C 
ATOM     22  C   UNL     1       2.600   2.634  21.330  0.00  0.00    +0.000 C 
ATOM     23  N   UNL     1       3.636   2.831  20.312  0.00  0.00    +0.000 NA
ATOM     24  C   UNL     1       3.586   1.854  19.237  0.00  0.00    +0.000 C 
ATOM     25  C   UNL     1       3.778   4.218  19.838  0.00  0.00    +0.000 C 
ENDBRANCH   5  19
BRANCH   4  26
ATOM     26  O   UNL     1       3.868   5.708  17.122  0.00  0.00    +0.000 OA
ATOM     27  C   UNL     1       5.045   6.129  16.445  0.00  0.00    +0.000 C 
ENDBRANCH   4  26
TORSDOF 3
ENDMDL
MODEL 4
REMARK VINA RESULT:      -7.7      1.588      2.075
REMARK  Name = 
REMARK  7 active torsions:
REMARK  status: ('A' for Active; 'I' for Inactive)
REMARK    1  A    between atoms: C_1  and  N_2
REMARK    2  A    between atoms: C_5  and  C_6
REMARK    3  A    between atoms: N_9  and  C_10
REMARK    4  A    between atoms: C_13  and  O_14
REMARK    5  A    between atoms: O_14  and  C_15
REMARK    6  A    between atoms: C_16  and  C_17
REMARK    7  A    between atoms: N_21  and  C_22
REMARK                            x       y       z     vdW  Elec       q    Type
REMARK                         _______ _______ _______ _____ _____    ______ ____
ROOT
ATOM      1  C   UNL     1       1.841   7.094  20.479  0.00  0.00    +0.000 A 
ATOM      2  C   UNL     1       1.022   6.000  20.761  0.00  0.00    +0.000 A 
ATOM      3  C   UNL     1       1.325   4.731  20.260  0.00  0.00    +0.000 A 
ATOM      4  C   UNL     1       2.457   4.515  19.460  0.00  0.00    +0.000 A 
ATOM      5  C   UNL     1       3.291   5.598  19.148  0.00  0.00    +0.000 A 
ATOM      6  C   UNL     1       2.957   6.871  19.654  0.00  0.00    +0.000 A 
ENDROOT
BRANCH   1  15
ATOM      7  C   UNL     1      -1.913  11.281  17.415  0.00  0.00    +0.000 C 
ATOM      8  N   UNL     1      -1.509  10.129  18.186  0.00  0.00    +0.000 N 
ATOM      9  C   UNL     1      -0.822  10.298  19.372  0.00  0.00    +0.000 A 
ATOM     10  C   UNL     1      -1.052  11.318  20.261  0.00  0.00    +0.000 A 
ATOM     11  C   UNL     1      -0.303  11.309  21.419  0.00  0.00    +0.000 A 
ATOM     12  C   UNL     1      -0.489  12.382  22.450  0.00  0.00    +0.000 C 
ATOM     13  N   UNL     1       0.588  10.335  21.700  0.00  0.00    +0.000 NA
ATOM     14  C   UNL     1       0.719   9.351  20.799  0.00  0.00    +0.000 A 
ATOM     15  N   UNL     1       1.602   8.319  21.115  0.00  0.00    +0.000 N 
ATOM     16  N   UNL     1       0.061   9.334  19.633  0.00  0.00    +0.000 NA
ATOM     17  H   UNL     1      -1.028   9.401  17.665  0.00  0.00    +0.000 HD
ATOM     18  H   UNL     1       2.104   8.524  21.966  0.00  0.00    +0.000 HD
ENDBRANCH   1  15
BRANCH   5  19
ATOM     19  C   UNL     1       4.546   5.510  18.378  0.00  0.00    +0.000 C 
ATOM     20  C   UNL     1       4.599   6.015  17.136  0.00  0.00    +0.000 C 
ATOM     21  C   UNL     1       5.801   5.826  16.270  0.00  0.00    +0.000 C 
ATOM     22  C   UNL     1       6.941   5.003  16.901  0.00  0.00    +0.000 C 
ATOM     23  N   UNL     1       7.015   4.915  18.362  0.00  0.00    +0.000 NA
ATOM     24  C   UNL     1       7.904   5.899  18.957  0.00  0.00    +0.000 C 
ATOM     25  C   UNL     1       5.712   4.815  19.041  0.00  0.00    +0.000 C 
ENDBRANCH   5  19
BRANCH   4  26
ATOM     26  O   UNL     1       2.668   3.193  19.168  0.00  0.00    +0.000 OA
ATOM     27  C   UNL     1       1.646   2.276  19.535  0.00  0.00    +0.000 C 
ENDBRANCH   4  26
TORSDOF 3
ENDMDL
MODEL 5
REMARK VINA RESULT:      -7.7      1.345      1.384
REMARK  Name = 
REMARK  7 active torsions:
REMARK  status: ('A' for Active; 'I' for Inactive)
REMARK    1  A    between atoms: C_1  and  N_2
REMARK    2  A    between atoms: C_5  and  C_6
REMARK    3  A    between atoms: N_9  and  C_10
REMARK    4  A    between atoms: C_13  and  O_14
REMARK    5  A    between atoms: O_14  and  C_15
REMARK    6  A    between atoms: C_16  and  C_17
REMARK    7  A    between atoms: N_21  and  C_22
REMARK                            x       y       z     vdW  Elec       q    Type
REMARK                         _______ _______ _______ _____ _____    ______ ____
ROOT
ATOM      1  C   UNL     1       1.887   6.945  20.476  0.00  0.00    +0.000 A 
ATOM      2  C   UNL     1       1.169   5.760  20.643  0.00  0.00    +0.000 A 
ATOM      3  C   UNL     1       1.590   4.577  20.029  0.00  0.00    +0.000 A 
ATOM      4  C   UNL     1       2.741   4.540  19.228  0.00  0.00    +0.000 A 
ATOM      5  C   UNL     1       3.475   5.719  19.031  0.00  0.00    +0.000 A 
ATOM      6  C   UNL     1       3.023   6.903  19.649  0.00  0.00    +0.000 A 
ENDROOT
BRANCH   1  15
ATOM      7  C   UNL     1      -1.599  11.416  17.500  0.00  0.00    +0.000 C 
ATOM      8  N   UNL     1      -1.256  10.184  18.170  0.00  0.00    +0.000 N 
ATOM      9  C   UNL     1      -0.723  10.216  19.444  0.00  0.00    +0.000 A 
ATOM     10  C   UNL     1      -1.091  11.115  20.414  0.00  0.00    +0.000 A 
ATOM     11  C   UNL     1      -0.488  10.975  21.647  0.00  0.00    +0.000 A 
ATOM     12  C   UNL     1      -0.831  11.908  22.768  0.00  0.00    +0.000 C 
ATOM     13  N   UNL     1       0.393   9.988  21.916  0.00  0.00    +0.000 NA
ATOM     14  C   UNL     1       0.663   9.126  20.926  0.00  0.00    +0.000 A 
ATOM     15  N   UNL     1       1.534   8.077  21.222  0.00  0.00    +0.000 N 
ATOM     16  N   UNL     1       0.153   9.242  19.694  0.00  0.00    +0.000 NA
ATOM     17  H   UNL     1      -0.692   9.534  17.629  0.00  0.00    +0.000 HD
ATOM     18  H   UNL     1       1.922   8.184  22.147  0.00  0.00    +0.000 HD
ENDBRANCH   1  15
BRANCH   5  19
ATOM     19  C   UNL     1       4.736   5.817  18.274  0.00  0.00    +0.000 C 
ATOM     20  C   UNL     1       5.879   5.390  18.832  0.00  0.00    +0.000 C 
ATOM     21  C   UNL     1       7.197   5.597  18.161  0.00  0.00    +0.000 C 
ATOM     22  C   UNL     1       7.137   6.343  16.814  0.00  0.00    +0.000 C 
ATOM     23  N   UNL     1       5.877   6.336  16.065  0.00  0.00    +0.000 NA
ATOM     24  C   UNL     1       5.808   5.289  15.059  0.00  0.00    +0.000 C 
ATOM     25  C   UNL     1       4.666   6.432  16.896  0.00  0.00    +0.000 C 
ENDBRANCH   5  19
BRANCH   4  26
ATOM     26  O   UNL     1       3.073   3.276  18.816  0.00  0.00    +0.000 OA
ATOM     27  C   UNL     1       3.778   2.458  19.740  0.00  0.00    +0.000 C 
ENDBRANCH   4  26
TORSDOF 3
ENDMDL
MODEL 6
REMARK VINA RESULT:      -7.6      2.116      4.633
REMARK  Name = 
REMARK  7 active torsions:
REMARK  status: ('A' for Active; 'I' for Inactive)
REMARK    1  A    between atoms: C_1  and  N_2
REMARK    2  A    between atoms: C_5  and  C_6
REMARK    3  A    between atoms: N_9  and  C_10
REMARK    4  A    between atoms: C_13  and  O_14
REMARK    5  A    between atoms: O_14  and  C_15
REMARK    6  A    between atoms: C_16  and  C_17
REMARK    7  A    between atoms: N_21  and  C_22
REMARK                            x       y       z     vdW  Elec       q    Type
REMARK                         _______ _______ _______ _____ _____    ______ ____
ROOT
ATOM      1  C   UNL     1       2.602   8.182  17.861  0.00  0.00    +0.000 A 
ATOM      2  C   UNL     1       3.832   8.128  17.204  0.00  0.00    +0.000 A 
ATOM      3  C   UNL     1       4.541   6.926  17.110  0.00  0.00    +0.000 A 
ATOM      4  C   UNL     1       4.044   5.741  17.672  0.00  0.00    +0.000 A 
ATOM      5  C   UNL     1       2.817   5.768  18.351  0.00  0.00    +0.000 A 
ATOM      6  C   UNL     1       2.127   6.995  18.444  0.00  0.00    +0.000 A 
ENDROOT
BRANCH   1  15
ATOM      7  C   UNL     1      -0.525   9.865  23.189  0.00  0.00    +0.000 C 
ATOM      8  N   UNL     1       0.558   9.659  22.258  0.00  0.00    +0.000 N 
ATOM      9  C   UNL     1       0.524  10.259  21.014  0.00  0.00    +0.000 A 
ATOM     10  C   UNL     1       0.017  11.513  20.774  0.00  0.00    +0.000 A 
ATOM     11  C   UNL     1       0.104  11.975  19.478  0.00  0.00    +0.000 A 
ATOM     12  C   UNL     1      -0.420  13.335  19.123  0.00  0.00    +0.000 C 
ATOM     13  N   UNL     1       0.686  11.264  18.490  0.00  0.00    +0.000 NA
ATOM     14  C   UNL     1       1.195  10.069  18.819  0.00  0.00    +0.000 A 
ATOM     15  N   UNL     1       1.843   9.358  17.808  0.00  0.00    +0.000 N 
ATOM     16  N   UNL     1       1.094   9.542  20.046  0.00  0.00    +0.000 NA
ATOM     17  H   UNL     1       0.832   8.691  22.112  0.00  0.00    +0.000 HD
ATOM     18  H   UNL     1       1.742   9.825  16.920  0.00  0.00    +0.000 HD
ENDBRANCH   1  15
BRANCH   5  19
ATOM     19  C   UNL     1       2.141   4.593  18.931  0.00  0.00    +0.000 C 
ATOM     20  C   UNL     1       1.749   3.591  18.128  0.00  0.00    +0.000 C 
ATOM     21  C   UNL     1       0.941   2.449  18.649  0.00  0.00    +0.000 C 
ATOM     22  C   UNL     1       0.584   2.526  20.146  0.00  0.00    +0.000 C 
ATOM     23  N   UNL     1       1.422   3.347  21.024  0.00  0.00    +0.000 NA
ATOM     24  C   UNL     1       2.467   2.593  21.698  0.00  0.00    +0.000 C 
ATOM     25  C   UNL     1       1.901   4.603  20.422  0.00  0.00    +0.000 C 
ENDBRANCH   5  19
BRANCH   4  26
ATOM     26  O   UNL     1       4.803   4.641  17.373  0.00  0.00    +0.000 OA
ATOM     27  C   UNL     1       5.153   4.446  16.009  0.00  0.00    +0.000 C 
ENDBRANCH   4  26
TORSDOF 3
ENDMDL
MODEL 7
REMARK VINA RESULT:      -7.5      2.364      7.960
REMARK  Name = 
REMARK  7 active torsions:
REMARK  status: ('A' for Active; 'I' for Inactive)
REMARK    1  A    between atoms: C_1  and  N_2
REMARK    2  A    between atoms: C_5  and  C_6
REMARK    3  A    between atoms: N_9  and  C_10
REMARK    4  A    between atoms: C_13  and  O_14
REMARK    5  A    between atoms: O_14  and  C_15
REMARK    6  A    between atoms: C_16  and  C_17
REMARK    7  A    between atoms: N_21  and  C_22
REMARK                            x       y       z     vdW  Elec       q    Type
REMARK                         _______ _______ _______ _____ _____    ______ ____
ROOT
ATOM      1  C   UNL     1       4.935   5.140  16.997  0.00  0.00    +0.000 A 
ATOM      2  C   UNL     1       4.376   3.862  17.011  0.00  0.00    +0.000 A 
ATOM      3  C   UNL     1       3.133   3.632  17.608  0.00  0.00    +0.000 A 
ATOM      4  C   UNL     1       2.410   4.671  18.211  0.00  0.00    +0.000 A 
ATOM      5  C   UNL     1       2.953   5.964  18.224  0.00  0.00    +0.000 A 
ATOM      6  C   UNL     1       4.215   6.170  17.628  0.00  0.00    +0.000 A 
ENDROOT
BRANCH   1  15
ATOM      7  C   UNL     1       5.507   2.098  11.391  0.00  0.00    +0.000 C 
ATOM      8  N   UNL     1       5.067   3.054  12.379  0.00  0.00    +0.000 N 
ATOM      9  C   UNL     1       5.988   3.861  13.018  0.00  0.00    +0.000 A 
ATOM     10  C   UNL     1       7.105   4.387  12.415  0.00  0.00    +0.000 A 
ATOM     11  C   UNL     1       7.895   5.210  13.191  0.00  0.00    +0.000 A 
ATOM     12  C   UNL     1       9.132   5.832  12.617  0.00  0.00    +0.000 C 
ATOM     13  N   UNL     1       7.583   5.525  14.466  0.00  0.00    +0.000 NA
ATOM     14  C   UNL     1       6.452   5.006  14.962  0.00  0.00    +0.000 A 
ATOM     15  N   UNL     1       6.105   5.374  16.262  0.00  0.00    +0.000 N 
ATOM     16  N   UNL     1       5.673   4.158  14.278  0.00  0.00    +0.000 NA
ATOM     17  H   UNL     1       4.446   2.689  13.096  0.00  0.00    +0.000 HD
ATOM     18  H   UNL     1       6.837   5.922  16.687  0.00  0.00    +0.000 HD
ENDBRANCH   1  15
BRANCH   5  19
ATOM     19  C   UNL     1       2.281   7.163  18.759  0.00  0.00    +0.000 C 
ATOM     20  C   UNL     1       2.154   7.315  20.085  0.00  0.00    +0.000 C 
ATOM     21  C   UNL     1       1.361   8.440  20.667  0.00  0.00    +0.000 C 
ATOM     22  C   UNL     1       0.699   9.376  19.637  0.00  0.00    +0.000 C 
ATOM     23  N   UNL     1       1.263   9.441  18.286  0.00  0.00    +0.000 NA
ATOM     24  C   UNL     1       2.210  10.529  18.105  0.00  0.00    +0.000 C 
ATOM     25  C   UNL     1       1.741   8.154  17.755  0.00  0.00    +0.000 C 
ENDBRANCH   5  19
BRANCH   4  26
ATOM     26  O   UNL     1       1.161   4.291  18.627  0.00  0.00    +0.000 OA
ATOM     27  C   UNL     1       1.055   3.730  19.929  0.00  0.00    +0.000 C 
ENDBRANCH   4  26
TORSDOF 3
ENDMDL
MODEL 8
REMARK VINA RESULT:      -7.5      2.331      8.051
REMARK  Name = 
REMARK  7 active torsions:
REMARK  status: ('A' for Active; 'I' for Inactive)
REMARK    1  A    between atoms: C_1  and  N_2
REMARK    2  A    between atoms: C_5  and  C_6
REMARK    3  A    between atoms: N_9  and  C_10
REMARK    4  A    between atoms: C_13  and  O_14
REMARK    5  A    between atoms: O_14  and  C_15
REMARK    6  A    between atoms: C_16  and  C_17
REMARK    7  A    between atoms: N_21  and  C_22
REMARK                            x       y       z     vdW  Elec       q    Type
REMARK                         _______ _______ _______ _____ _____    ______ ____
ROOT
ATOM      1  C   UNL     1       4.930   5.225  17.078  0.00  0.00    +0.000 A 
ATOM      2  C   UNL     1       4.393   3.941  17.172  0.00  0.00    +0.000 A 
ATOM      3  C   UNL     1       3.152   3.727  17.779  0.00  0.00    +0.000 A 
ATOM      4  C   UNL     1       2.409   4.789  18.314  0.00  0.00    +0.000 A 
ATOM      5  C   UNL     1       2.930   6.090  18.248  0.00  0.00    +0.000 A 
ATOM      6  C   UNL     1       4.190   6.279  17.642  0.00  0.00    +0.000 A 
ENDROOT
BRANCH   1  15
ATOM      7  C   UNL     1       5.383   2.172  11.468  0.00  0.00    +0.000 C 
ATOM      8  N   UNL     1       4.973   3.137  12.460  0.00  0.00    +0.000 N 
ATOM      9  C   UNL     1       5.918   3.923  13.090  0.00  0.00    +0.000 A 
ATOM     10  C   UNL     1       7.040   4.424  12.478  0.00  0.00    +0.000 A 
ATOM     11  C   UNL     1       7.855   5.229  13.246  0.00  0.00    +0.000 A 
ATOM     12  C   UNL     1       9.101   5.824  12.660  0.00  0.00    +0.000 C 
ATOM     13  N   UNL     1       7.562   5.551  14.523  0.00  0.00    +0.000 NA
ATOM     14  C   UNL     1       6.424   5.057  15.030  0.00  0.00    +0.000 A 
ATOM     15  N   UNL     1       6.097   5.433  16.333  0.00  0.00    +0.000 N 
ATOM     16  N   UNL     1       5.621   4.227  14.354  0.00  0.00    +0.000 NA
ATOM     17  H   UNL     1       4.350   2.785  13.183  0.00  0.00    +0.000 HD
ATOM     18  H   UNL     1       6.846   5.965  16.751  0.00  0.00    +0.000 HD
ENDBRANCH   1  15
BRANCH   5  19
ATOM     19  C   UNL     1       2.235   7.308  18.705  0.00  0.00    +0.000 C 
ATOM     20  C   UNL     1       1.787   8.193  17.801  0.00  0.00    +0.000 C 
ATOM     21  C   UNL     1       1.203   9.502  18.220  0.00  0.00    +0.000 C 
ATOM     22  C   UNL     1       1.179   9.754  19.740  0.00  0.00    +0.000 C 
ATOM     23  N   UNL     1       1.220   8.599  20.641  0.00  0.00    +0.000 NA
ATOM     24  C   UNL     1      -0.095   8.155  21.074  0.00  0.00    +0.000 C 
ATOM     25  C   UNL     1       2.093   7.500  20.196  0.00  0.00    +0.000 C 
ENDBRANCH   5  19
BRANCH   4  26
ATOM     26  O   UNL     1       1.166   4.414  18.751  0.00  0.00    +0.000 OA
ATOM     27  C   UNL     1       1.084   3.819  20.039  0.00  0.00    +0.000 C 
ENDBRANCH   4  26
TORSDOF 3
ENDMDL
MODEL 9
REMARK VINA RESULT:      -7.5      2.110      4.319
REMARK  Name = 
REMARK  7 active torsions:
REMARK  status: ('A' for Active; 'I' for Inactive)
REMARK    1  A    between atoms: C_1  and  N_2
REMARK    2  A    between atoms: C_5  and  C_6
REMARK    3  A    between atoms: N_9  and  C_10
REMARK    4  A    between atoms: C_13  and  O_14
REMARK    5  A    between atoms: O_14  and  C_15
REMARK    6  A    between atoms: C_16  and  C_17
REMARK    7  A    between atoms: N_21  and  C_22
REMARK                            x       y       z     vdW  Elec       q    Type
REMARK                         _______ _______ _______ _____ _____    ______ ____
ROOT
ATOM      1  C   UNL     1       2.513   7.999  17.790  0.00  0.00    +0.000 A 
ATOM      2  C   UNL     1       3.767   8.224  17.222  0.00  0.00    +0.000 A 
ATOM      3  C   UNL     1       4.682   7.178  17.069  0.00  0.00    +0.000 A 
ATOM      4  C   UNL     1       4.373   5.874  17.481  0.00  0.00    +0.000 A 
ATOM      5  C   UNL     1       3.125   5.620  18.070  0.00  0.00    +0.000 A 
ATOM      6  C   UNL     1       2.224   6.693  18.225  0.00  0.00    +0.000 A 
ENDROOT
BRANCH   1  15
ATOM      7  C   UNL     1      -0.117   9.518  23.428  0.00  0.00    +0.000 C 
ATOM      8  N   UNL     1       0.851   9.428  22.361  0.00  0.00    +0.000 N 
ATOM      9  C   UNL     1       0.547   9.923  21.108  0.00  0.00    +0.000 A 
ATOM     10  C   UNL     1      -0.197  11.056  20.885  0.00  0.00    +0.000 A 
ATOM     11  C   UNL     1      -0.367  11.433  19.569  0.00  0.00    +0.000 A 
ATOM     12  C   UNL     1      -1.161  12.658  19.229  0.00  0.00    +0.000 C 
ATOM     13  N   UNL     1       0.193  10.759  18.542  0.00  0.00    +0.000 NA
ATOM     14  C   UNL     1       0.941   9.691  18.851  0.00  0.00    +0.000 A 
ATOM     15  N   UNL     1       1.561   9.026  17.792  0.00  0.00    +0.000 N 
ATOM     16  N   UNL     1       1.098   9.244  20.103  0.00  0.00    +0.000 NA
ATOM     17  H   UNL     1       1.267   8.510  22.224  0.00  0.00    +0.000 HD
ATOM     18  H   UNL     1       1.262   9.406  16.906  0.00  0.00    +0.000 HD
ENDBRANCH   1  15
BRANCH   5  19
ATOM     19  C   UNL     1       2.637   4.292  18.487  0.00  0.00    +0.000 C 
ATOM     20  C   UNL     1       1.397   3.907  18.152  0.00  0.00    +0.000 C 
ATOM     21  C   UNL     1       0.812   2.633  18.668  0.00  0.00    +0.000 C 
ATOM     22  C   UNL     1       1.725   1.829  19.615  0.00  0.00    +0.000 C 
ATOM     23  N   UNL     1       3.172   2.045  19.542  0.00  0.00    +0.000 NA
ATOM     24  C   UNL     1       3.858   1.093  18.684  0.00  0.00    +0.000 C 
ATOM     25  C   UNL     1       3.576   3.442  19.309  0.00  0.00    +0.000 C 
ENDBRANCH   5  19
BRANCH   4  26
ATOM     26  O   UNL     1       5.331   4.957  17.137  0.00  0.00    +0.000 OA
ATOM     27  C   UNL     1       5.416   4.591  15.766  0.00  0.00    +0.000 C 
ENDBRANCH   4  26
TORSDOF 3
ENDMDL
