MODEL 1
REMARK VINA RESULT:      -7.4      0.000      0.000
REMARK  Name = 
REMARK  7 active torsions:
REMARK  status: ('A' for Active; 'I' for Inactive)
REMARK    1  A    between atoms: C_1  and  C_2
REMARK    2  A    between atoms: C_5  and  C_6
REMARK    3  A    between atoms: C_6  and  S_7
REMARK    4  A    between atoms: S_7  and  N_10
REMARK    5  A    between atoms: N_10  and  C_11
REMARK    6  A    between atoms: N_10  and  C_12
REMARK    7  A    between atoms: C_12  and  C_13
REMARK                            x       y       z     vdW  Elec       q    Type
REMARK                         _______ _______ _______ _____ _____    ______ ____
ROOT
ATOM      1  S   UNL     1       5.093   6.093  16.750  0.00  0.00    +0.000 S 
ATOM      2  O   UNL     1       4.958   6.855  15.523  0.00  0.00    +0.000 OA
ATOM      3  O   UNL     1       4.766   6.690  18.025  0.00  0.00    +0.000 OA
ENDROOT
BRANCH   1   4
ATOM      4  N   UNL     1       6.765   5.654  16.852  0.00  0.00    +0.000 NA
ATOM      5  C   UNL     1       7.366   5.630  18.207  0.00  0.00    +0.000 C 
BRANCH   4   6
ATOM      6  C   UNL     1       6.970   4.360  16.103  0.00  0.00    +0.000 C 
BRANCH   6   7
ATOM      7  C   UNL     1       7.135   4.544  14.637  0.00  0.00    +0.000 A 
ATOM      8  N   UNL     1       7.814   5.502  14.038  0.00  0.00    +0.000 NA
ATOM      9  N   UNL     1       7.711   5.312  12.683  0.00  0.00    +0.000 NA
ATOM     10  C   UNL     1       6.972   4.249  12.485  0.00  0.00    +0.000 A 
ATOM     11  N   UNL     1       6.595   3.724  13.683  0.00  0.00    +0.000 N 
ATOM     12  H   UNL     1       6.015   2.913  13.845  0.00  0.00    +0.000 HD
ENDBRANCH   6   7
ENDBRANCH   4   6
ENDBRANCH   1   4
BRANCH   1  13
ATOM     13  C   UNL     1       4.200   4.530  16.550  0.00  0.00    +0.000 C 
BRANCH  13  18
ATOM     14  C   UNL     1       1.359   2.755  21.335  0.00  0.00    +0.000 C 
ATOM     15  C   UNL     1       2.076   3.248  20.115  0.00  0.00    +0.000 A 
ATOM     16  C   UNL     1       1.413   3.988  19.133  0.00  0.00    +0.000 A 
ATOM     17  C   UNL     1       2.098   4.419  17.991  0.00  0.00    +0.000 A 
ATOM     18  C   UNL     1       3.467   4.147  17.815  0.00  0.00    +0.000 A 
ATOM     19  C   UNL     1       4.122   3.403  18.804  0.00  0.00    +0.000 A 
ATOM     20  C   UNL     1       3.430   2.965  19.932  0.00  0.00    +0.000 A 
ATOM     21  F   UNL     1       4.087   2.237  20.846  0.00  0.00    +0.000 F 
ENDBRANCH  13  18
ENDBRANCH   1  13
TORSDOF 5
ENDMDL
MODEL 2
REMARK VINA RESULT:      -7.3      1.216      1.578
REMARK  Name = 
REMARK  7 active torsions:
REMARK  status: ('A' for Active; 'I' for Inactive)
REMARK    1  A    between atoms: C_1  and  C_2
REMARK    2  A    between atoms: C_5  and  C_6
REMARK    3  A    between atoms: C_6  and  S_7
REMARK    4  A    between atoms: S_7  and  N_10
REMARK    5  A    between atoms: N_10  and  C_11
REMARK    6  A    between atoms: N_10  and  C_12
REMARK    7  A    between atoms: C_12  and  C_13
REMARK                            x       y       z     vdW  Elec       q    Type
REMARK                         _______ _______ _______ _____ _____    ______ ____
ROOT
ATOM      1  S   UNL     1       5.137   5.693  17.396  0.00  0.00    +0.000 S 
ATOM      2  O   UNL     1       4.851   6.910  16.661  0.00  0.00    +0.000 OA
ATOM      3  O   UNL     1       5.315   5.726  18.830  0.00  0.00    +0.000 OA
ENDROOT
BRANCH   1   4
ATOM      4  N   UNL     1       6.628   5.090  16.752  0.00  0.00    +0.000 NA
ATOM      5  C   UNL     1       7.639   4.629  17.732  0.00  0.00    +0.000 C 
BRANCH   4   6
ATOM      6  C   UNL     1       6.314   4.049  15.706  0.00  0.00    +0.000 C 
BRANCH   6   7
ATOM      7  C   UNL     1       6.822   4.397  14.353  0.00  0.00    +0.000 A 
ATOM      8  N   UNL     1       7.620   5.401  14.049  0.00  0.00    +0.000 NA
ATOM      9  N   UNL     1       7.844   5.371  12.695  0.00  0.00    +0.000 NA
ATOM     10  C   UNL     1       7.178   4.356  12.204  0.00  0.00    +0.000 A 
ATOM     11  N   UNL     1       6.528   3.705  13.209  0.00  0.00    +0.000 N 
ATOM     12  H   UNL     1       5.930   2.895  13.131  0.00  0.00    +0.000 HD
ENDBRANCH   6   7
ENDBRANCH   4   6
ENDBRANCH   1   4
BRANCH   1  13
ATOM     13  C   UNL     1       3.890   4.456  16.954  0.00  0.00    +0.000 C 
BRANCH  13  18
ATOM     14  C   UNL     1       1.418   2.490  21.867  0.00  0.00    +0.000 C 
ATOM     15  C   UNL     1       2.047   2.958  20.590  0.00  0.00    +0.000 A 
ATOM     16  C   UNL     1       3.121   2.274  20.016  0.00  0.00    +0.000 A 
ATOM     17  C   UNL     1       3.706   2.743  18.834  0.00  0.00    +0.000 A 
ATOM     18  C   UNL     1       3.216   3.888  18.182  0.00  0.00    +0.000 A 
ATOM     19  C   UNL     1       2.141   4.568  18.766  0.00  0.00    +0.000 A 
ATOM     20  C   UNL     1       1.572   4.104  19.951  0.00  0.00    +0.000 A 
ATOM     21  F   UNL     1       0.558   4.794  20.491  0.00  0.00    +0.000 F 
ENDBRANCH  13  18
ENDBRANCH   1  13
TORSDOF 5
ENDMDL
MODEL 3
REMARK VINA RESULT:      -7.2      1.654      2.024
REMARK  Name = 
REMARK  7 active torsions:
REMARK  status: ('A' for Active; 'I' for Inactive)
REMARK    1  A    between atoms: C_1  and  C_2
REMARK    2  A    between atoms: C_5  and  C_6
REMARK    3  A    between atoms: C_6  and  S_7
REMARK    4  A    between atoms: S_7  and  N_10
REMARK    5  A    between atoms: N_10  and  C_11
REMARK    6  A    between atoms: N_10  and  C_12
REMARK    7  A    between atoms: C_12  and  C_13
REMARK                            x       y       z     vdW  Elec       q    Type
REMARK                         _______ _______ _______ _____ _____    ______ ____
ROOT
ATOM      1  S   UNL     1       7.015   5.537  17.516  0.00  0.00    +0.000 S 
ATOM      2  O   UNL     1       7.426   6.885  17.168  0.00  0.00    +0.000 OA
ATOM      3  O   UNL     1       7.952   4.440  17.435  0.00  0.00    +0.000 OA
ENDROOT
BRANCH   1   4
ATOM      4  N   UNL     1       5.730   5.138  16.426  0.00  0.00    +0.000 NA
ATOM      5  C   UNL     1       5.168   6.249  15.623  0.00  0.00    +0.000 C 
BRANCH   4   6
ATOM      6  C   UNL     1       6.164   3.969  15.575  0.00  0.00    +0.000 C 
BRANCH   6   7
ATOM      7  C   UNL     1       6.760   4.371  14.275  0.00  0.00    +0.000 A 
ATOM      8  N   UNL     1       7.634   5.338  14.077  0.00  0.00    +0.000 NA
ATOM      9  N   UNL     1       7.922   5.383  12.736  0.00  0.00    +0.000 NA
ATOM     10  C   UNL     1       7.218   4.449  12.147  0.00  0.00    +0.000 A 
ATOM     11  N   UNL     1       6.480   3.778  13.073  0.00  0.00    +0.000 N 
ATOM     12  H   UNL     1       5.836   3.016  12.913  0.00  0.00    +0.000 HD
ENDBRANCH   6   7
ENDBRANCH   4   6
ENDBRANCH   1   4
BRANCH   1  13
ATOM     13  C   UNL     1       6.252   5.582  19.158  0.00  0.00    +0.000 C 
BRANCH  13  18
ATOM     14  C   UNL     1       1.059   2.926  18.846  0.00  0.00    +0.000 C 
ATOM     15  C   UNL     1       2.378   3.628  18.957  0.00  0.00    +0.000 A 
ATOM     16  C   UNL     1       2.459   5.022  18.975  0.00  0.00    +0.000 A 
ATOM     17  C   UNL     1       3.704   5.656  19.058  0.00  0.00    +0.000 A 
ATOM     18  C   UNL     1       4.895   4.914  19.155  0.00  0.00    +0.000 A 
ATOM     19  C   UNL     1       4.804   3.517  19.134  0.00  0.00    +0.000 A 
ATOM     20  C   UNL     1       3.561   2.893  19.037  0.00  0.00    +0.000 A 
ATOM     21  F   UNL     1       3.517   1.554  18.999  0.00  0.00    +0.000 F 
ENDBRANCH  13  18
ENDBRANCH   1  13
TORSDOF 5
ENDMDL
MODEL 4
REMARK VINA RESULT:      -7.1      1.923      2.384
REMARK  Name = 
REMARK  7 active torsions:
REMARK  status: ('A' for Active; 'I' for Inactive)
REMARK    1  A    between atoms: C_1  and  C_2
REMARK    2  A    between atoms: C_5  and  C_6
REMARK    3  A    between atoms: C_6  and  S_7
REMARK    4  A    between atoms: S_7  and  N_10
REMARK    5  A    between atoms: N_10  and  C_11
REMARK    6  A    between atoms: N_10  and  C_12
REMARK    7  A    between atoms: C_12  and  C_13
REMARK                            x       y       z     vdW  Elec       q    Type
REMARK                         _______ _______ _______ _____ _____    ______ ____
ROOT
ATOM      1  S   UNL     1       7.100   5.418  17.598  0.00  0.00    +0.000 S 
ATOM      2  O   UNL     1       7.498   6.778  17.286  0.00  0.00    +0.000 OA
ATOM      3  O   UNL     1       8.028   4.324  17.428  0.00  0.00    +0.000 OA
ENDROOT
BRANCH   1   4
ATOM      4  N   UNL     1       5.762   5.066  16.557  0.00  0.00    +0.000 NA
ATOM      5  C   UNL     1       5.186   6.204  15.804  0.00  0.00    +0.000 C 
BRANCH   4   6
ATOM      6  C   UNL     1       6.138   3.909  15.663  0.00  0.00    +0.000 C 
BRANCH   6   7
ATOM      7  C   UNL     1       6.719   4.330  14.362  0.00  0.00    +0.000 A 
ATOM      8  N   UNL     1       7.581   5.308  14.167  0.00  0.00    +0.000 NA
ATOM      9  N   UNL     1       7.859   5.368  12.824  0.00  0.00    +0.000 NA
ATOM     10  C   UNL     1       7.159   4.433  12.231  0.00  0.00    +0.000 A 
ATOM     11  N   UNL     1       6.435   3.746  13.157  0.00  0.00    +0.000 N 
ATOM     12  H   UNL     1       5.798   2.979  12.994  0.00  0.00    +0.000 HD
ENDBRANCH   6   7
ENDBRANCH   4   6
ENDBRANCH   1   4
BRANCH   1  13
ATOM     13  C   UNL     1       6.418   5.398  19.276  0.00  0.00    +0.000 C 
BRANCH  13  18
ATOM     14  C   UNL     1       1.060   3.109  19.683  0.00  0.00    +0.000 C 
ATOM     15  C   UNL     1       2.439   3.679  19.543  0.00  0.00    +0.000 A 
ATOM     16  C   UNL     1       3.540   2.859  19.287  0.00  0.00    +0.000 A 
ATOM     17  C   UNL     1       4.822   3.411  19.182  0.00  0.00    +0.000 A 
ATOM     18  C   UNL     1       5.032   4.796  19.301  0.00  0.00    +0.000 A 
ATOM     19  C   UNL     1       3.922   5.610  19.560  0.00  0.00    +0.000 A 
ATOM     20  C   UNL     1       2.650   5.051  19.677  0.00  0.00    +0.000 A 
ATOM     21  F   UNL     1       1.615   5.860  19.946  0.00  0.00    +0.000 F 
ENDBRANCH  13  18
ENDBRANCH   1  13
TORSDOF 5
ENDMDL
MODEL 5
REMARK VINA RESULT:      -7.1      1.348      1.512
REMARK  Name = 
REMARK  7 active torsions:
REMARK  status: ('A' for Active; 'I' for Inactive)
REMARK    1  A    between atoms: C_1  and  C_2
REMARK    2  A    between atoms: C_5  and  C_6
REMARK    3  A    between atoms: C_6  and  S_7
REMARK    4  A    between atoms: S_7  and  N_10
REMARK    5  A    between atoms: N_10  and  C_11
REMARK    6  A    between atoms: N_10  and  C_12
REMARK    7  A    between atoms: C_12  and  C_13
REMARK                            x       y       z     vdW  Elec       q    Type
REMARK                         _______ _______ _______ _____ _____    ______ ____
ROOT
ATOM      1  S   UNL     1       6.024   6.392  17.157  0.00  0.00    +0.000 S 
ATOM      2  O   UNL     1       4.833   6.293  16.334  0.00  0.00    +0.000 OA
ATOM      3  O   UNL     1       6.810   7.604  17.169  0.00  0.00    +0.000 OA
ENDROOT
BRANCH   1   4
ATOM      4  N   UNL     1       7.090   5.147  16.596  0.00  0.00    +0.000 NA
ATOM      5  C   UNL     1       7.904   4.455  17.623  0.00  0.00    +0.000 C 
BRANCH   4   6
ATOM      6  C   UNL     1       6.303   4.189  15.736  0.00  0.00    +0.000 C 
BRANCH   6   7
ATOM      7  C   UNL     1       6.658   4.258  14.294  0.00  0.00    +0.000 A 
ATOM      8  N   UNL     1       7.388   5.187  13.710  0.00  0.00    +0.000 NA
ATOM      9  N   UNL     1       7.473   4.883  12.375  0.00  0.00    +0.000 NA
ATOM     10  C   UNL     1       6.793   3.782  12.173  0.00  0.00    +0.000 A 
ATOM     11  N   UNL     1       6.271   3.344  13.352  0.00  0.00    +0.000 N 
ATOM     12  H   UNL     1       5.694   2.529  13.504  0.00  0.00    +0.000 HD
ENDBRANCH   6   7
ENDBRANCH   4   6
ENDBRANCH   1   4
BRANCH   1  13
ATOM     13  C   UNL     1       5.586   5.920  18.850  0.00  0.00    +0.000 C 
BRANCH  13  18
ATOM     14  C   UNL     1       0.884   2.461  18.650  0.00  0.00    +0.000 C 
ATOM     15  C   UNL     1       2.076   3.364  18.735  0.00  0.00    +0.000 A 
ATOM     16  C   UNL     1       1.931   4.750  18.835  0.00  0.00    +0.000 A 
ATOM     17  C   UNL     1       3.060   5.576  18.891  0.00  0.00    +0.000 A 
ATOM     18  C   UNL     1       4.359   5.038  18.877  0.00  0.00    +0.000 A 
ATOM     19  C   UNL     1       4.494   3.648  18.774  0.00  0.00    +0.000 A 
ATOM     20  C   UNL     1       3.365   2.833  18.705  0.00  0.00    +0.000 A 
ATOM     21  F   UNL     1       3.536   1.509  18.586  0.00  0.00    +0.000 F 
ENDBRANCH  13  18
ENDBRANCH   1  13
TORSDOF 5
ENDMDL
MODEL 6
REMARK VINA RESULT:      -7.0      1.589      1.905
REMARK  Name = 
REMARK  7 active torsions:
REMARK  status: ('A' for Active; 'I' for Inactive)
REMARK    1  A    between atoms: C_1  and  C_2
REMARK    2  A    between atoms: C_5  and  C_6
REMARK    3  A    between atoms: C_6  and  S_7
REMARK    4  A    between atoms: S_7  and  N_10
REMARK    5  A    between atoms: N_10  and  C_11
REMARK    6  A    between atoms: N_10  and  C_12
REMARK    7  A    between atoms: C_12  and  C_13
REMARK                            x       y       z     vdW  Elec       q    Type
REMARK                         _______ _______ _______ _____ _____    ______ ____
ROOT
ATOM      1  S   UNL     1       4.986   5.845  17.022  0.00  0.00    +0.000 S 
ATOM      2  O   UNL     1       4.492   4.629  16.404  0.00  0.00    +0.000 OA
ATOM      3  O   UNL     1       4.226   7.071  16.941  0.00  0.00    +0.000 OA
ENDROOT
BRANCH   1   4
ATOM      4  N   UNL     1       6.504   6.182  16.258  0.00  0.00    +0.000 NA
ATOM      5  C   UNL     1       7.435   7.071  16.990  0.00  0.00    +0.000 C 
BRANCH   4   6
ATOM      6  C   UNL     1       7.143   4.874  15.858  0.00  0.00    +0.000 C 
BRANCH   6   7
ATOM      7  C   UNL     1       7.030   4.581  14.405  0.00  0.00    +0.000 A 
ATOM      8  N   UNL     1       7.622   5.233  13.424  0.00  0.00    +0.000 NA
ATOM      9  N   UNL     1       7.253   4.646  12.240  0.00  0.00    +0.000 NA
ATOM     10  C   UNL     1       6.444   3.656  12.522  0.00  0.00    +0.000 A 
ATOM     11  N   UNL     1       6.282   3.567  13.871  0.00  0.00    +0.000 N 
ATOM     12  H   UNL     1       5.709   2.908  14.380  0.00  0.00    +0.000 HD
ENDBRANCH   6   7
ENDBRANCH   4   6
ENDBRANCH   1   4
BRANCH   1  13
ATOM     13  C   UNL     1       5.392   5.480  18.750  0.00  0.00    +0.000 C 
BRANCH  13  18
ATOM     14  C   UNL     1       1.220   2.562  21.611  0.00  0.00    +0.000 C 
ATOM     15  C   UNL     1       2.288   3.283  20.848  0.00  0.00    +0.000 A 
ATOM     16  C   UNL     1       3.450   2.629  20.432  0.00  0.00    +0.000 A 
ATOM     17  C   UNL     1       4.445   3.329  19.739  0.00  0.00    +0.000 A 
ATOM     18  C   UNL     1       4.292   4.690  19.420  0.00  0.00    +0.000 A 
ATOM     19  C   UNL     1       3.125   5.337  19.844  0.00  0.00    +0.000 A 
ATOM     20  C   UNL     1       2.144   4.637  20.546  0.00  0.00    +0.000 A 
ATOM     21  F   UNL     1       1.051   5.297  20.953  0.00  0.00    +0.000 F 
ENDBRANCH  13  18
ENDBRANCH   1  13
TORSDOF 5
ENDMDL
MODEL 7
REMARK VINA RESULT:      -7.0      1.857      2.322
REMARK  Name = 
REMARK  7 active torsions:
REMARK  status: ('A' for Active; 'I' for Inactive)
REMARK    1  A    between atoms: C_1  and  C_2
REMARK    2  A    between atoms: C_5  and  C_6
REMARK    3  A    between atoms: C_6  and  S_7
REMARK    4  A    between atoms: S_7  and  N_10
REMARK    5  A    between atoms: N_10  and  C_11
REMARK    6  A    between atoms: N_10  and  C_12
REMARK    7  A    between atoms: C_12  and  C_13
REMARK                            x       y       z     vdW  Elec       q    Type
REMARK                         _______ _______ _______ _____ _____    ______ ____
ROOT
ATOM      1  S   UNL     1       6.170   5.174  19.052  0.00  0.00    +0.000 S 
ATOM      2  O   UNL     1       7.114   5.585  20.073  0.00  0.00    +0.000 OA
ATOM      3  O   UNL     1       5.931   3.772  18.793  0.00  0.00    +0.000 OA
ENDROOT
BRANCH   1   4
ATOM      4  N   UNL     1       6.767   5.830  17.564  0.00  0.00    +0.000 NA
ATOM      5  C   UNL     1       7.523   7.102  17.652  0.00  0.00    +0.000 C 
BRANCH   4   6
ATOM      6  C   UNL     1       7.527   4.752  16.832  0.00  0.00    +0.000 C 
BRANCH   6   7
ATOM      7  C   UNL     1       7.072   4.553  15.431  0.00  0.00    +0.000 A 
ATOM      8  N   UNL     1       6.118   3.739  15.023  0.00  0.00    +0.000 NA
ATOM      9  N   UNL     1       6.016   3.854  13.660  0.00  0.00    +0.000 NA
ATOM     10  C   UNL     1       6.908   4.728  13.266  0.00  0.00    +0.000 A 
ATOM     11  N   UNL     1       7.590   5.205  14.344  0.00  0.00    +0.000 N 
ATOM     12  H   UNL     1       8.341   5.880  14.348  0.00  0.00    +0.000 HD
ENDBRANCH   6   7
ENDBRANCH   4   6
ENDBRANCH   1   4
BRANCH   1  13
ATOM     13  C   UNL     1       4.600   6.025  19.353  0.00  0.00    +0.000 C 
BRANCH  13  18
ATOM     14  C   UNL     1       0.255   2.156  18.837  0.00  0.00    +0.000 C 
ATOM     15  C   UNL     1       1.348   3.175  18.949  0.00  0.00    +0.000 A 
ATOM     16  C   UNL     1       1.871   3.806  17.818  0.00  0.00    +0.000 A 
ATOM     17  C   UNL     1       2.907   4.739  17.945  0.00  0.00    +0.000 A 
ATOM     18  C   UNL     1       3.425   5.086  19.206  0.00  0.00    +0.000 A 
ATOM     19  C   UNL     1       2.896   4.447  20.333  0.00  0.00    +0.000 A 
ATOM     20  C   UNL     1       1.874   3.508  20.198  0.00  0.00    +0.000 A 
ATOM     21  F   UNL     1       1.408   2.902  21.299  0.00  0.00    +0.000 F 
ENDBRANCH  13  18
ENDBRANCH   1  13
TORSDOF 5
ENDMDL
MODEL 8
REMARK VINA RESULT:      -7.0      1.674      2.093
REMARK  Name = 
REMARK  7 active torsions:
REMARK  status: ('A' for Active; 'I' for Inactive)
REMARK    1  A    between atoms: C_1  and  C_2
REMARK    2  A    between atoms: C_5  and  C_6
REMARK    3  A    between atoms: C_6  and  S_7
REMARK    4  A    between atoms: S_7  and  N_10
REMARK    5  A    between atoms: N_10  and  C_11
REMARK    6  A    between atoms: N_10  and  C_12
REMARK    7  A    between atoms: C_12  and  C_13
REMARK                            x       y       z     vdW  Elec       q    Type
REMARK                         _______ _______ _______ _____ _____    ______ ____
ROOT
ATOM      1  S   UNL     1       6.114   6.477  16.986  0.00  0.00    +0.000 S 
ATOM      2  O   UNL     1       5.028   6.386  16.028  0.00  0.00    +0.000 OA
ATOM      3  O   UNL     1       6.954   7.651  17.037  0.00  0.00    +0.000 OA
ENDROOT
BRANCH   1   4
ATOM      4  N   UNL     1       7.175   5.156  16.625  0.00  0.00    +0.000 NA
ATOM      5  C   UNL     1       7.823   4.487  17.777  0.00  0.00    +0.000 C 
BRANCH   4   6
ATOM      6  C   UNL     1       6.450   4.187  15.723  0.00  0.00    +0.000 C 
BRANCH   6   7
ATOM      7  C   UNL     1       6.812   4.328  14.289  0.00  0.00    +0.000 A 
ATOM      8  N   UNL     1       7.592   5.253  13.763  0.00  0.00    +0.000 NA
ATOM      9  N   UNL     1       7.665   5.029  12.412  0.00  0.00    +0.000 NA
ATOM     10  C   UNL     1       6.928   3.980  12.142  0.00  0.00    +0.000 A 
ATOM     11  N   UNL     1       6.381   3.497  13.290  0.00  0.00    +0.000 N 
ATOM     12  H   UNL     1       5.761   2.705  13.392  0.00  0.00    +0.000 HD
ENDBRANCH   6   7
ENDBRANCH   4   6
ENDBRANCH   1   4
BRANCH   1  13
ATOM     13  C   UNL     1       5.449   6.118  18.633  0.00  0.00    +0.000 C 
BRANCH  13  18
ATOM     14  C   UNL     1       1.060   2.265  18.605  0.00  0.00    +0.000 C 
ATOM     15  C   UNL     1       2.210   3.225  18.598  0.00  0.00    +0.000 A 
ATOM     16  C   UNL     1       3.406   2.930  19.256  0.00  0.00    +0.000 A 
ATOM     17  C   UNL     1       4.460   3.851  19.255  0.00  0.00    +0.000 A 
ATOM     18  C   UNL     1       4.355   5.077  18.573  0.00  0.00    +0.000 A 
ATOM     19  C   UNL     1       3.152   5.365  17.918  0.00  0.00    +0.000 A 
ATOM     20  C   UNL     1       2.102   4.448  17.936  0.00  0.00    +0.000 A 
ATOM     21  F   UNL     1       0.958   4.769  17.315  0.00  0.00    +0.000 F 
ENDBRANCH  13  18
ENDBRANCH   1  13
TORSDOF 5
ENDMDL
MODEL 9
REMARK VINA RESULT:      -6.9      1.326      1.849
REMARK  Name = 
REMARK  7 active torsions:
REMARK  status: ('A' for Active; 'I' for Inactive)
REMARK    1  A    between atoms: C_1  and  C_2
REMARK    2  A    between atoms: C_5  and  C_6
REMARK    3  A    between atoms: C_6  and  S_7
REMARK    4  A    between atoms: S_7  and  N_10
REMARK    5  A    between atoms: N_10  and  C_11
REMARK    6  A    between atoms: N_10  and  C_12
REMARK    7  A    between atoms: C_12  and  C_13
REMARK                            x       y       z     vdW  Elec       q    Type
REMARK                         _______ _______ _______ _____ _____    ______ ____
ROOT
ATOM      1  S   UNL     1       5.002   6.185  17.633  0.00  0.00    +0.000 S 
ATOM      2  O   UNL     1       4.136   7.287  17.259  0.00  0.00    +0.000 OA
ATOM      3  O   UNL     1       5.510   6.075  18.981  0.00  0.00    +0.000 OA
ENDROOT
BRANCH   1   4
ATOM      4  N   UNL     1       6.397   6.313  16.614  0.00  0.00    +0.000 NA
ATOM      5  C   UNL     1       7.506   7.162  17.107  0.00  0.00    +0.000 C 
BRANCH   4   6
ATOM      6  C   UNL     1       6.850   4.922  16.240  0.00  0.00    +0.000 C 
BRANCH   6   7
ATOM      7  C   UNL     1       6.925   4.698  14.773  0.00  0.00    +0.000 A 
ATOM      8  N   UNL     1       6.247   3.805  14.080  0.00  0.00    +0.000 NA
ATOM      9  N   UNL     1       6.610   3.925  12.762  0.00  0.00    +0.000 NA
ATOM     10  C   UNL     1       7.502   4.881  12.681  0.00  0.00    +0.000 A 
ATOM     11  N   UNL     1       7.725   5.405  13.917  0.00  0.00    +0.000 N 
ATOM     12  H   UNL     1       8.366   6.146  14.165  0.00  0.00    +0.000 HD
ENDBRANCH   6   7
ENDBRANCH   4   6
ENDBRANCH   1   4
BRANCH   1  13
ATOM     13  C   UNL     1       4.195   4.638  17.146  0.00  0.00    +0.000 C 
BRANCH  13  18
ATOM     14  C   UNL     1       1.487   2.424  21.823  0.00  0.00    +0.000 C 
ATOM     15  C   UNL     1       2.184   2.955  20.608  0.00  0.00    +0.000 A 
ATOM     16  C   UNL     1       3.413   2.438  20.191  0.00  0.00    +0.000 A 
ATOM     17  C   UNL     1       4.055   2.965  19.065  0.00  0.00    +0.000 A 
ATOM     18  C   UNL     1       3.475   4.000  18.312  0.00  0.00    +0.000 A 
ATOM     19  C   UNL     1       2.244   4.514  18.739  0.00  0.00    +0.000 A 
ATOM     20  C   UNL     1       1.616   3.994  19.870  0.00  0.00    +0.000 A 
ATOM     21  F   UNL     1       0.449   4.526  20.259  0.00  0.00    +0.000 F 
ENDBRANCH  13  18
ENDBRANCH   1  13
TORSDOF 5
ENDMDL
