MODEL 1
REMARK VINA RESULT:      -6.1      0.000      0.000
REMARK  Name = 
REMARK  7 active torsions:
REMARK  status: ('A' for Active; 'I' for Inactive)
REMARK    1  A    between atoms: C_1  and  O_2
REMARK    2  A    between atoms: O_2  and  C_3
REMARK    3  A    between atoms: C_3  and  C_5
REMARK    4  A    between atoms: C_5  and  C_6
REMARK    5  A    between atoms: C_10  and  C_11
REMARK    6  A    between atoms: C_11  and  O_13
REMARK    7  A    between atoms: C_21  and  C_22
REMARK                            x       y       z     vdW  Elec       q    Type
REMARK                         _______ _______ _______ _____ _____    ______ ____
ROOT
ATOM      1  C   UNL     1      -3.698  13.285  21.363  0.00  0.00    +0.000 C 
ATOM      2  C   UNL     1      -5.107  12.750  20.999  0.00  0.00    +0.000 C 
ATOM      3  C   UNL     1      -3.513  14.688  20.744  0.00  0.00    +0.000 C 
ATOM      4  C   UNL     1      -2.080  15.225  20.841  0.00  0.00    +0.000 C 
ATOM      5  C   UNL     1      -0.967  14.231  20.478  0.00  0.00    +0.000 C 
ATOM      6  C   UNL     1      -1.112  12.808  21.126  0.00  0.00    +0.000 C 
ATOM      7  C   UNL     1      -0.128  11.696  20.578  0.00  0.00    +0.000 C 
ATOM      8  C   UNL     1       0.065  10.406  21.494  0.00  0.00    +0.000 C 
ATOM      9  C   UNL     1       0.884   9.399  20.736  0.00  0.00    +0.000 A 
ATOM     10  O   UNL     1       1.260   8.239  21.324  0.00  0.00    +0.000 OA
ATOM     11  C   UNL     1       1.872   7.506  20.352  0.00  0.00    +0.000 A 
ATOM     12  C   UNL     1       1.888   8.187  19.150  0.00  0.00    +0.000 A 
ATOM     13  C   UNL     1       1.214   9.405  19.392  0.00  0.00    +0.000 A 
ATOM     14  C   UNL     1       0.753  10.507  18.477  0.00  0.00    +0.000 C 
ATOM     15  C   UNL     1       1.882  11.510  18.219  0.00  0.00    +0.000 C 
ATOM     16  C   UNL     1      -0.511  11.095  19.186  0.00  0.00    +0.000 C 
ATOM     17  C   UNL     1      -1.486  11.917  18.391  0.00  0.00    +0.000 C 
ATOM     18  C   UNL     1      -2.758  12.097  19.253  0.00  0.00    +0.000 C 
ATOM     19  C   UNL     1      -2.572  12.333  20.814  0.00  0.00    +0.000 C 
ENDROOT
BRANCH   1  20
ATOM     20  C   UNL     1      -3.724  13.406  22.904  0.00  0.00    +0.000 C 
ATOM     21  O   UNL     1      -3.561  14.450  23.517  0.00  0.00    +0.000 OA
BRANCH  20  23
ATOM     22  C   UNL     1      -4.617  12.278  24.767  0.00  0.00    +0.000 C 
ATOM     23  O   UNL     1      -3.989  12.199  23.485  0.00  0.00    +0.000 OA
ENDBRANCH  20  23
ENDBRANCH   1  20
BRANCH   6  24
ATOM     24  C   UNL     1      -0.737  12.884  22.615  0.00  0.00    +0.000 C 
ATOM     25  O   UNL     1      -0.195  13.849  23.128  0.00  0.00    +0.000 OA
BRANCH  24  26
ATOM     26  O   UNL     1      -1.181  11.871  23.401  0.00  0.00    +0.000 OA
ATOM     27  H   UNL     1      -0.855  10.975  23.202  0.00  0.00    +0.000 HD
ENDBRANCH  24  26
ENDBRANCH   6  24
TORSDOF 4
ENDMDL
MODEL 2
REMARK VINA RESULT:      -6.0      4.196      9.515
REMARK  Name = 
REMARK  7 active torsions:
REMARK  status: ('A' for Active; 'I' for Inactive)
REMARK    1  A    between atoms: C_1  and  O_2
REMARK    2  A    between atoms: O_2  and  C_3
REMARK    3  A    between atoms: C_3  and  C_5
REMARK    4  A    between atoms: C_5  and  C_6
REMARK    5  A    between atoms: C_10  and  C_11
REMARK    6  A    between atoms: C_11  and  O_13
REMARK    7  A    between atoms: C_21  and  C_22
REMARK                            x       y       z     vdW  Elec       q    Type
REMARK                         _______ _______ _______ _____ _____    ______ ____
ROOT
ATOM      1  C   UNL     1       4.460   3.850  18.531  0.00  0.00    +0.000 C 
ATOM      2  C   UNL     1       6.001   3.998  18.606  0.00  0.00    +0.000 C 
ATOM      3  C   UNL     1       4.060   3.432  17.099  0.00  0.00    +0.000 C 
ATOM      4  C   UNL     1       2.550   3.475  16.838  0.00  0.00    +0.000 C 
ATOM      5  C   UNL     1       1.818   4.724  17.352  0.00  0.00    +0.000 C 
ATOM      6  C   UNL     1       2.179   5.147  18.820  0.00  0.00    +0.000 C 
ATOM      7  C   UNL     1       1.636   6.560  19.285  0.00  0.00    +0.000 C 
ATOM      8  C   UNL     1       1.590   6.819  20.857  0.00  0.00    +0.000 C 
ATOM      9  C   UNL     1       1.220   8.256  21.094  0.00  0.00    +0.000 A 
ATOM     10  O   UNL     1       1.034   8.717  22.354  0.00  0.00    +0.000 OA
ATOM     11  C   UNL     1       0.835  10.060  22.237  0.00  0.00    +0.000 A 
ATOM     12  C   UNL     1       0.894  10.458  20.915  0.00  0.00    +0.000 A 
ATOM     13  C   UNL     1       1.179   9.289  20.175  0.00  0.00    +0.000 A 
ATOM     14  C   UNL     1       1.526   9.065  18.728  0.00  0.00    +0.000 C 
ATOM     15  C   UNL     1       0.259   8.957  17.874  0.00  0.00    +0.000 C 
ATOM     16  C   UNL     1       2.432   7.791  18.741  0.00  0.00    +0.000 C 
ATOM     17  C   UNL     1       3.311   7.500  17.557  0.00  0.00    +0.000 C 
ATOM     18  C   UNL     1       4.296   6.380  17.969  0.00  0.00    +0.000 C 
ATOM     19  C   UNL     1       3.743   5.204  18.885  0.00  0.00    +0.000 C 
ENDROOT
BRANCH   1  20
ATOM     20  C   UNL     1       4.141   2.694  19.506  0.00  0.00    +0.000 C 
ATOM     21  O   UNL     1       3.286   1.843  19.315  0.00  0.00    +0.000 OA
BRANCH  20  23
ATOM     22  C   UNL     1       5.231   1.456  21.187  0.00  0.00    +0.000 C 
ATOM     23  O   UNL     1       4.968   2.730  20.594  0.00  0.00    +0.000 OA
ENDBRANCH  20  23
ENDBRANCH   1  20
BRANCH   6  24
ATOM     24  C   UNL     1       1.502   4.184  19.810  0.00  0.00    +0.000 C 
ATOM     25  O   UNL     1       0.539   3.491  19.529  0.00  0.00    +0.000 OA
BRANCH  24  26
ATOM     26  O   UNL     1       2.126   4.010  21.002  0.00  0.00    +0.000 OA
ATOM     27  H   UNL     1       1.697   3.423  21.650  0.00  0.00    +0.000 HD
ENDBRANCH  24  26
ENDBRANCH   6  24
TORSDOF 4
ENDMDL
MODEL 3
REMARK VINA RESULT:      -5.6      2.419      4.142
REMARK  Name = 
REMARK  7 active torsions:
REMARK  status: ('A' for Active; 'I' for Inactive)
REMARK    1  A    between atoms: C_1  and  O_2
REMARK    2  A    between atoms: O_2  and  C_3
REMARK    3  A    between atoms: C_3  and  C_5
REMARK    4  A    between atoms: C_5  and  C_6
REMARK    5  A    between atoms: C_10  and  C_11
REMARK    6  A    between atoms: C_11  and  O_13
REMARK    7  A    between atoms: C_21  and  C_22
REMARK                            x       y       z     vdW  Elec       q    Type
REMARK                         _______ _______ _______ _____ _____    ______ ____
ROOT
ATOM      1  C   UNL     1      -2.406  15.666  22.151  0.00  0.00    +0.000 C 
ATOM      2  C   UNL     1      -2.161  17.111  21.643  0.00  0.00    +0.000 C 
ATOM      3  C   UNL     1      -1.339  15.312  23.209  0.00  0.00    +0.000 C 
ATOM      4  C   UNL     1      -1.336  13.836  23.618  0.00  0.00    +0.000 C 
ATOM      5  C   UNL     1      -1.436  12.822  22.469  0.00  0.00    +0.000 C 
ATOM      6  C   UNL     1      -2.540  13.139  21.400  0.00  0.00    +0.000 C 
ATOM      7  C   UNL     1      -2.501  12.260  20.083  0.00  0.00    +0.000 C 
ATOM      8  C   UNL     1      -3.831  12.237  19.206  0.00  0.00    +0.000 C 
ATOM      9  C   UNL     1      -3.546  11.504  17.925  0.00  0.00    +0.000 A 
ATOM     10  O   UNL     1      -4.538  11.273  17.032  0.00  0.00    +0.000 OA
ATOM     11  C   UNL     1      -3.942  10.709  15.945  0.00  0.00    +0.000 A 
ATOM     12  C   UNL     1      -2.579  10.580  16.136  0.00  0.00    +0.000 A 
ATOM     13  C   UNL     1      -2.318  11.129  17.411  0.00  0.00    +0.000 A 
ATOM     14  C   UNL     1      -1.037  11.439  18.138  0.00  0.00    +0.000 C 
ATOM     15  C   UNL     1      -0.515  10.202  18.875  0.00  0.00    +0.000 C 
ATOM     16  C   UNL     1      -1.395  12.657  19.050  0.00  0.00    +0.000 C 
ATOM     17  C   UNL     1      -0.291  13.512  19.606  0.00  0.00    +0.000 C 
ATOM     18  C   UNL     1      -0.938  14.786  20.197  0.00  0.00    +0.000 C 
ATOM     19  C   UNL     1      -2.318  14.630  20.971  0.00  0.00    +0.000 C 
ENDROOT
BRANCH   1  20
ATOM     20  C   UNL     1      -3.794  15.733  22.829  0.00  0.00    +0.000 C 
ATOM     21  O   UNL     1      -3.995  15.517  24.014  0.00  0.00    +0.000 OA
BRANCH  20  23
ATOM     22  C   UNL     1      -5.862  16.809  22.503  0.00  0.00    +0.000 C 
ATOM     23  O   UNL     1      -4.759  16.099  21.934  0.00  0.00    +0.000 OA
ENDBRANCH  20  23
ENDBRANCH   1  20
BRANCH   6  24
ATOM     24  C   UNL     1      -3.925  12.810  21.982  0.00  0.00    +0.000 C 
ATOM     25  O   UNL     1      -4.093  12.187  23.017  0.00  0.00    +0.000 OA
BRANCH  24  26
ATOM     26  O   UNL     1      -4.989  13.385  21.368  0.00  0.00    +0.000 OA
ATOM     27  H   UNL     1      -5.846  13.347  21.828  0.00  0.00    +0.000 HD
ENDBRANCH  24  26
ENDBRANCH   6  24
TORSDOF 4
ENDMDL
MODEL 4
REMARK VINA RESULT:      -5.5      9.245     12.477
REMARK  Name = 
REMARK  7 active torsions:
REMARK  status: ('A' for Active; 'I' for Inactive)
REMARK    1  A    between atoms: C_1  and  O_2
REMARK    2  A    between atoms: O_2  and  C_3
REMARK    3  A    between atoms: C_3  and  C_5
REMARK    4  A    between atoms: C_5  and  C_6
REMARK    5  A    between atoms: C_10  and  C_11
REMARK    6  A    between atoms: C_11  and  O_13
REMARK    7  A    between atoms: C_21  and  C_22
REMARK                            x       y       z     vdW  Elec       q    Type
REMARK                         _______ _______ _______ _____ _____    ______ ____
ROOT
ATOM      1  C   UNL     1      10.190  11.909  19.784  0.00  0.00    +0.000 C 
ATOM      2  C   UNL     1       9.642  10.719  20.613  0.00  0.00    +0.000 C 
ATOM      3  C   UNL     1      11.714  12.024  20.010  0.00  0.00    +0.000 C 
ATOM      4  C   UNL     1      12.333  13.298  19.425  0.00  0.00    +0.000 C 
ATOM      5  C   UNL     1      11.562  14.600  19.691  0.00  0.00    +0.000 C 
ATOM      6  C   UNL     1      10.017  14.519  19.432  0.00  0.00    +0.000 C 
ATOM      7  C   UNL     1       9.166  15.758  19.932  0.00  0.00    +0.000 C 
ATOM      8  C   UNL     1       7.711  15.919  19.303  0.00  0.00    +0.000 C 
ATOM      9  C   UNL     1       7.000  17.032  20.021  0.00  0.00    +0.000 A 
ATOM     10  O   UNL     1       5.768  17.427  19.623  0.00  0.00    +0.000 OA
ATOM     11  C   UNL     1       5.356  18.351  20.536  0.00  0.00    +0.000 A 
ATOM     12  C   UNL     1       6.315  18.547  21.512  0.00  0.00    +0.000 A 
ATOM     13  C   UNL     1       7.370  17.663  21.195  0.00  0.00    +0.000 A 
ATOM     14  C   UNL     1       8.620  17.271  21.935  0.00  0.00    +0.000 C 
ATOM     15  C   UNL     1       9.750  18.268  21.662  0.00  0.00    +0.000 C 
ATOM     16  C   UNL     1       8.900  15.804  21.472  0.00  0.00    +0.000 C 
ATOM     17  C   UNL     1       9.805  14.931  22.295  0.00  0.00    +0.000 C 
ATOM     18  C   UNL     1       9.652  13.481  21.780  0.00  0.00    +0.000 C 
ATOM     19  C   UNL     1       9.508  13.260  20.212  0.00  0.00    +0.000 C 
ENDROOT
BRANCH   1  20
ATOM     20  C   UNL     1       9.922  11.505  18.316  0.00  0.00    +0.000 C 
ATOM     21  O   UNL     1      10.766  11.507  17.433  0.00  0.00    +0.000 OA
BRANCH  20  23
ATOM     22  C   UNL     1       8.458   9.737  17.793  0.00  0.00    +0.000 C 
ATOM     23  O   UNL     1       8.624  11.112  18.146  0.00  0.00    +0.000 OA
ENDBRANCH  20  23
ENDBRANCH   1  20
BRANCH   6  24
ATOM     24  C   UNL     1       9.752  14.520  17.917  0.00  0.00    +0.000 C 
ATOM     25  O   UNL     1      10.545  14.940  17.092  0.00  0.00    +0.000 OA
BRANCH  24  26
ATOM     26  O   UNL     1       8.632  13.876  17.501  0.00  0.00    +0.000 OA
ATOM     27  H   UNL     1       8.183  14.225  16.711  0.00  0.00    +0.000 HD
ENDBRANCH  24  26
ENDBRANCH   6  24
TORSDOF 4
ENDMDL
MODEL 5
REMARK VINA RESULT:      -5.5      2.590      6.317
REMARK  Name = 
REMARK  7 active torsions:
REMARK  status: ('A' for Active; 'I' for Inactive)
REMARK    1  A    between atoms: C_1  and  O_2
REMARK    2  A    between atoms: O_2  and  C_3
REMARK    3  A    between atoms: C_3  and  C_5
REMARK    4  A    between atoms: C_5  and  C_6
REMARK    5  A    between atoms: C_10  and  C_11
REMARK    6  A    between atoms: C_11  and  O_13
REMARK    7  A    between atoms: C_21  and  C_22
REMARK                            x       y       z     vdW  Elec       q    Type
REMARK                         _______ _______ _______ _____ _____    ______ ____
ROOT
ATOM      1  C   UNL     1       0.647  11.165  20.628  0.00  0.00    +0.000 C 
ATOM      2  C   UNL     1       1.030   9.875  21.398  0.00  0.00    +0.000 C 
ATOM      3  C   UNL     1       1.458  12.352  21.194  0.00  0.00    +0.000 C 
ATOM      4  C   UNL     1       1.004  13.719  20.671  0.00  0.00    +0.000 C 
ATOM      5  C   UNL     1      -0.513  13.955  20.645  0.00  0.00    +0.000 C 
ATOM      6  C   UNL     1      -1.356  12.779  20.038  0.00  0.00    +0.000 C 
ATOM      7  C   UNL     1      -2.925  12.885  20.225  0.00  0.00    +0.000 C 
ATOM      8  C   UNL     1      -3.817  11.981  19.263  0.00  0.00    +0.000 C 
ATOM      9  C   UNL     1      -5.251  12.082  19.703  0.00  0.00    +0.000 A 
ATOM     10  O   UNL     1      -6.229  11.467  18.998  0.00  0.00    +0.000 OA
ATOM     11  C   UNL     1      -7.376  11.645  19.712  0.00  0.00    +0.000 A 
ATOM     12  C   UNL     1      -7.136  12.365  20.867  0.00  0.00    +0.000 A 
ATOM     13  C   UNL     1      -5.746  12.620  20.877  0.00  0.00    +0.000 A 
ATOM     14  C   UNL     1      -4.831  13.207  21.918  0.00  0.00    +0.000 C 
ATOM     15  C   UNL     1      -4.825  14.736  21.838  0.00  0.00    +0.000 C 
ATOM     16  C   UNL     1      -3.452  12.520  21.652  0.00  0.00    +0.000 C 
ATOM     17  C   UNL     1      -2.405  12.525  22.731  0.00  0.00    +0.000 C 
ATOM     18  C   UNL     1      -1.296  11.532  22.312  0.00  0.00    +0.000 C 
ATOM     19  C   UNL     1      -0.886  11.479  20.776  0.00  0.00    +0.000 C 
ENDROOT
BRANCH   1  20
ATOM     20  C   UNL     1       1.097  10.887  19.175  0.00  0.00    +0.000 C 
ATOM     21  O   UNL     1       1.808  11.632  18.518  0.00  0.00    +0.000 OA
BRANCH  20  23
ATOM     22  C   UNL     1       1.486   8.996  17.829  0.00  0.00    +0.000 C 
ATOM     23  O   UNL     1       0.623   9.683  18.739  0.00  0.00    +0.000 OA
ENDBRANCH  20  23
ENDBRANCH   1  20
BRANCH   6  24
ATOM     24  C   UNL     1      -1.200  12.773  18.508  0.00  0.00    +0.000 C 
ATOM     25  O   UNL     1      -1.572  11.857  17.794  0.00  0.00    +0.000 OA
BRANCH  24  26
ATOM     26  O   UNL     1      -0.760  13.925  17.944  0.00  0.00    +0.000 OA
ATOM     27  H   UNL     1       0.149  13.933  17.593  0.00  0.00    +0.000 HD
ENDBRANCH  24  26
ENDBRANCH   6  24
TORSDOF 4
ENDMDL
MODEL 6
REMARK VINA RESULT:      -5.5      1.814      2.545
REMARK  Name = 
REMARK  7 active torsions:
REMARK  status: ('A' for Active; 'I' for Inactive)
REMARK    1  A    between atoms: C_1  and  O_2
REMARK    2  A    between atoms: O_2  and  C_3
REMARK    3  A    between atoms: C_3  and  C_5
REMARK    4  A    between atoms: C_5  and  C_6
REMARK    5  A    between atoms: C_10  and  C_11
REMARK    6  A    between atoms: C_11  and  O_13
REMARK    7  A    between atoms: C_21  and  C_22
REMARK                            x       y       z     vdW  Elec       q    Type
REMARK                         _______ _______ _______ _____ _____    ______ ____
ROOT
ATOM      1  C   UNL     1      -5.659  13.854  21.265  0.00  0.00    +0.000 C 
ATOM      2  C   UNL     1      -6.827  12.983  20.733  0.00  0.00    +0.000 C 
ATOM      3  C   UNL     1      -5.522  15.113  20.380  0.00  0.00    +0.000 C 
ATOM      4  C   UNL     1      -4.262  15.937  20.665  0.00  0.00    +0.000 C 
ATOM      5  C   UNL     1      -2.960  15.136  20.819  0.00  0.00    +0.000 C 
ATOM      6  C   UNL     1      -3.064  13.873  21.745  0.00  0.00    +0.000 C 
ATOM      7  C   UNL     1      -1.818  12.896  21.723  0.00  0.00    +0.000 C 
ATOM      8  C   UNL     1      -1.691  11.882  22.946  0.00  0.00    +0.000 C 
ATOM      9  C   UNL     1      -0.562  10.930  22.663  0.00  0.00    +0.000 A 
ATOM     10  O   UNL     1      -0.192  10.013  23.587  0.00  0.00    +0.000 OA
ATOM     11  C   UNL     1       0.757   9.239  22.989  0.00  0.00    +0.000 A 
ATOM     12  C   UNL     1       0.994   9.655  21.693  0.00  0.00    +0.000 A 
ATOM     13  C   UNL     1       0.110  10.735  21.470  0.00  0.00    +0.000 A 
ATOM     14  C   UNL     1      -0.245  11.514  20.233  0.00  0.00    +0.000 C 
ATOM     15  C   UNL     1       0.753  12.653  20.000  0.00  0.00    +0.000 C 
ATOM     16  C   UNL     1      -1.724  11.964  20.471  0.00  0.00    +0.000 C 
ATOM     17  C   UNL     1      -2.561  12.396  19.299  0.00  0.00    +0.000 C 
ATOM     18  C   UNL     1      -4.028  12.483  19.779  0.00  0.00    +0.000 C 
ATOM     19  C   UNL     1      -4.302  13.060  21.235  0.00  0.00    +0.000 C 
ENDROOT
BRANCH   1  20
ATOM     20  C   UNL     1      -6.113  14.274  22.682  0.00  0.00    +0.000 C 
ATOM     21  O   UNL     1      -6.143  15.427  23.085  0.00  0.00    +0.000 OA
BRANCH  20  23
ATOM     22  C   UNL     1      -7.614  13.428  24.286  0.00  0.00    +0.000 C 
ATOM     23  O   UNL     1      -6.510  13.188  23.410  0.00  0.00    +0.000 OA
ENDBRANCH  20  23
ENDBRANCH   1  20
BRANCH   6  24
ATOM     24  C   UNL     1      -3.115  14.320  23.215  0.00  0.00    +0.000 C 
ATOM     25  O   UNL     1      -2.728  15.409  23.605  0.00  0.00    +0.000 OA
BRANCH  24  26
ATOM     26  O   UNL     1      -3.768  13.496  24.073  0.00  0.00    +0.000 OA
ATOM     27  H   UNL     1      -3.480  12.566  24.107  0.00  0.00    +0.000 HD
ENDBRANCH  24  26
ENDBRANCH   6  24
TORSDOF 4
ENDMDL
MODEL 7
REMARK VINA RESULT:      -5.5      3.395      5.698
REMARK  Name = 
REMARK  7 active torsions:
REMARK  status: ('A' for Active; 'I' for Inactive)
REMARK    1  A    between atoms: C_1  and  O_2
REMARK    2  A    between atoms: O_2  and  C_3
REMARK    3  A    between atoms: C_3  and  C_5
REMARK    4  A    between atoms: C_5  and  C_6
REMARK    5  A    between atoms: C_10  and  C_11
REMARK    6  A    between atoms: C_11  and  O_13
REMARK    7  A    between atoms: C_21  and  C_22
REMARK                            x       y       z     vdW  Elec       q    Type
REMARK                         _______ _______ _______ _____ _____    ______ ____
ROOT
ATOM      1  C   UNL     1       2.588  15.672  18.728  0.00  0.00    +0.000 C 
ATOM      2  C   UNL     1       3.370  15.973  17.423  0.00  0.00    +0.000 C 
ATOM      3  C   UNL     1       3.592  15.438  19.878  0.00  0.00    +0.000 C 
ATOM      4  C   UNL     1       2.949  14.908  21.164  0.00  0.00    +0.000 C 
ATOM      5  C   UNL     1       1.930  13.773  20.985  0.00  0.00    +0.000 C 
ATOM      6  C   UNL     1       0.874  14.005  19.847  0.00  0.00    +0.000 C 
ATOM      7  C   UNL     1      -0.025  12.756  19.474  0.00  0.00    +0.000 C 
ATOM      8  C   UNL     1      -1.369  13.063  18.674  0.00  0.00    +0.000 C 
ATOM      9  C   UNL     1      -1.989  11.758  18.261  0.00  0.00    +0.000 A 
ATOM     10  O   UNL     1      -3.188  11.738  17.633  0.00  0.00    +0.000 OA
ATOM     11  C   UNL     1      -3.411  10.438  17.289  0.00  0.00    +0.000 A 
ATOM     12  C   UNL     1      -2.363   9.631  17.692  0.00  0.00    +0.000 A 
ATOM     13  C   UNL     1      -1.423  10.496  18.294  0.00  0.00    +0.000 A 
ATOM     14  C   UNL     1      -0.017  10.281  18.785  0.00  0.00    +0.000 C 
ATOM     15  C   UNL     1      -0.017   9.742  20.219  0.00  0.00    +0.000 C 
ATOM     16  C   UNL     1       0.676  11.669  18.594  0.00  0.00    +0.000 C 
ATOM     17  C   UNL     1       2.177  11.748  18.574  0.00  0.00    +0.000 C 
ATOM     18  C   UNL     1       2.565  13.158  18.073  0.00  0.00    +0.000 C 
ATOM     19  C   UNL     1       1.690  14.390  18.567  0.00  0.00    +0.000 C 
ENDROOT
BRANCH   1  20
ATOM     20  C   UNL     1       1.792  16.968  19.002  0.00  0.00    +0.000 C 
ATOM     21  O   UNL     1       1.941  17.676  19.987  0.00  0.00    +0.000 OA
BRANCH  20  23
ATOM     22  C   UNL     1       0.710  18.627  17.729  0.00  0.00    +0.000 C 
ATOM     23  O   UNL     1       0.927  17.236  17.979  0.00  0.00    +0.000 OA
ENDBRANCH  20  23
ENDBRANCH   1  20
BRANCH   6  24
ATOM     24  C   UNL     1      -0.164  15.038  20.315  0.00  0.00    +0.000 C 
ATOM     25  O   UNL     1      -0.271  15.414  21.470  0.00  0.00    +0.000 OA
BRANCH  24  26
ATOM     26  O   UNL     1      -0.882  15.654  19.342  0.00  0.00    +0.000 OA
ATOM     27  H   UNL     1      -1.017  15.168  18.510  0.00  0.00    +0.000 HD
ENDBRANCH  24  26
ENDBRANCH   6  24
TORSDOF 4
ENDMDL
MODEL 8
REMARK VINA RESULT:      -5.4      4.706      6.927
REMARK  Name = 
REMARK  7 active torsions:
REMARK  status: ('A' for Active; 'I' for Inactive)
REMARK    1  A    between atoms: C_1  and  O_2
REMARK    2  A    between atoms: O_2  and  C_3
REMARK    3  A    between atoms: C_3  and  C_5
REMARK    4  A    between atoms: C_5  and  C_6
REMARK    5  A    between atoms: C_10  and  C_11
REMARK    6  A    between atoms: C_11  and  O_13
REMARK    7  A    between atoms: C_21  and  C_22
REMARK                            x       y       z     vdW  Elec       q    Type
REMARK                         _______ _______ _______ _____ _____    ______ ____
ROOT
ATOM      1  C   UNL     1       4.374  16.279  20.690  0.00  0.00    +0.000 C 
ATOM      2  C   UNL     1       5.181  16.054  21.995  0.00  0.00    +0.000 C 
ATOM      3  C   UNL     1       3.461  17.512  20.865  0.00  0.00    +0.000 C 
ATOM      4  C   UNL     1       2.449  17.701  19.730  0.00  0.00    +0.000 C 
ATOM      5  C   UNL     1       1.707  16.434  19.277  0.00  0.00    +0.000 C 
ATOM      6  C   UNL     1       2.620  15.177  19.054  0.00  0.00    +0.000 C 
ATOM      7  C   UNL     1       1.862  13.804  18.832  0.00  0.00    +0.000 C 
ATOM      8  C   UNL     1       2.708  12.626  18.171  0.00  0.00    +0.000 C 
ATOM      9  C   UNL     1       1.885  11.369  18.204  0.00  0.00    +0.000 A 
ATOM     10  O   UNL     1       2.345  10.233  17.629  0.00  0.00    +0.000 OA
ATOM     11  C   UNL     1       1.438   9.263  17.933  0.00  0.00    +0.000 A 
ATOM     12  C   UNL     1       0.405   9.771  18.699  0.00  0.00    +0.000 A 
ATOM     13  C   UNL     1       0.715  11.134  18.903  0.00  0.00    +0.000 A 
ATOM     14  C   UNL     1       0.094  12.194  19.772  0.00  0.00    +0.000 C 
ATOM     15  C   UNL     1      -1.087  12.861  19.059  0.00  0.00    +0.000 C 
ATOM     16  C   UNL     1       1.282  13.147  20.128  0.00  0.00    +0.000 C 
ATOM     17  C   UNL     1       1.156  14.075  21.303  0.00  0.00    +0.000 C 
ATOM     18  C   UNL     1       2.560  14.654  21.594  0.00  0.00    +0.000 C 
ATOM     19  C   UNL     1       3.482  15.028  20.354  0.00  0.00    +0.000 C 
ENDROOT
BRANCH   1  20
ATOM     20  C   UNL     1       5.451  16.589  19.626  0.00  0.00    +0.000 C 
ATOM     21  O   UNL     1       5.557  17.656  19.040  0.00  0.00    +0.000 OA
BRANCH  20  23
ATOM     22  C   UNL     1       7.610  15.868  19.025  0.00  0.00    +0.000 C 
ATOM     23  O   UNL     1       6.290  15.525  19.454  0.00  0.00    +0.000 OA
ENDBRANCH  20  23
ENDBRANCH   1  20
BRANCH   6  24
ATOM     24  C   UNL     1       3.407  15.341  17.744  0.00  0.00    +0.000 C 
ATOM     25  O   UNL     1       3.185  16.220  16.927  0.00  0.00    +0.000 OA
BRANCH  24  26
ATOM     26  O   UNL     1       4.494  14.544  17.590  0.00  0.00    +0.000 OA
ATOM     27  H   UNL     1       5.160  14.817  16.934  0.00  0.00    +0.000 HD
ENDBRANCH  24  26
ENDBRANCH   6  24
TORSDOF 4
ENDMDL
MODEL 9
REMARK VINA RESULT:      -5.4      2.442      4.463
REMARK  Name = 
REMARK  7 active torsions:
REMARK  status: ('A' for Active; 'I' for Inactive)
REMARK    1  A    between atoms: C_1  and  O_2
REMARK    2  A    between atoms: O_2  and  C_3
REMARK    3  A    between atoms: C_3  and  C_5
REMARK    4  A    between atoms: C_5  and  C_6
REMARK    5  A    between atoms: C_10  and  C_11
REMARK    6  A    between atoms: C_11  and  O_13
REMARK    7  A    between atoms: C_21  and  C_22
REMARK                            x       y       z     vdW  Elec       q    Type
REMARK                         _______ _______ _______ _____ _____    ______ ____
ROOT
ATOM      1  C   UNL     1      -4.879  15.690  22.271  0.00  0.00    +0.000 C 
ATOM      2  C   UNL     1      -4.382  17.158  22.281  0.00  0.00    +0.000 C 
ATOM      3  C   UNL     1      -5.491  15.353  23.649  0.00  0.00    +0.000 C 
ATOM      4  C   UNL     1      -5.811  13.866  23.838  0.00  0.00    +0.000 C 
ATOM      5  C   UNL     1      -4.722  12.884  23.382  0.00  0.00    +0.000 C 
ATOM      6  C   UNL     1      -4.111  13.183  21.967  0.00  0.00    +0.000 C 
ATOM      7  C   UNL     1      -2.824  12.346  21.579  0.00  0.00    +0.000 C 
ATOM      8  C   UNL     1      -2.455  12.290  20.030  0.00  0.00    +0.000 C 
ATOM      9  C   UNL     1      -1.123  11.609  19.879  0.00  0.00    +0.000 A 
ATOM     10  O   UNL     1      -0.616  11.361  18.649  0.00  0.00    +0.000 OA
ATOM     11  C   UNL     1       0.633  10.857  18.852  0.00  0.00    +0.000 A 
ATOM     12  C   UNL     1       0.927  10.783  20.201  0.00  0.00    +0.000 A 
ATOM     13  C   UNL     1      -0.205  11.305  20.868  0.00  0.00    +0.000 A 
ATOM     14  C   UNL     1      -0.461  11.649  22.309  0.00  0.00    +0.000 C 
ATOM     15  C   UNL     1      -0.921  10.416  23.092  0.00  0.00    +0.000 C 
ATOM     16  C   UNL     1      -1.493  12.823  22.249  0.00  0.00    +0.000 C 
ATOM     17  C   UNL     1      -1.674  13.709  23.449  0.00  0.00    +0.000 C 
ATOM     18  C   UNL     1      -2.505  14.935  23.005  0.00  0.00    +0.000 C 
ATOM     19  C   UNL     1      -3.697  14.694  21.981  0.00  0.00    +0.000 C 
ENDROOT
BRANCH   1  20
ATOM     20  C   UNL     1      -5.994  15.674  21.201  0.00  0.00    +0.000 C 
ATOM     21  O   UNL     1      -7.145  15.318  21.406  0.00  0.00    +0.000 OA
BRANCH  20  23
ATOM     22  C   UNL     1      -6.536  16.690  19.147  0.00  0.00    +0.000 C 
ATOM     23  O   UNL     1      -5.530  16.145  20.005  0.00  0.00    +0.000 OA
ENDBRANCH  20  23
ENDBRANCH   1  20
BRANCH   6  24
ATOM     24  C   UNL     1      -5.117  12.775  20.879  0.00  0.00    +0.000 C 
ATOM     25  O   UNL     1      -6.014  11.966  21.055  0.00  0.00    +0.000 OA
BRANCH  24  26
ATOM     26  O   UNL     1      -5.071  13.480  19.720  0.00  0.00    +0.000 OA
ATOM     27  H   UNL     1      -5.856  13.448  19.145  0.00  0.00    +0.000 HD
ENDBRANCH  24  26
ENDBRANCH   6  24
TORSDOF 4
ENDMDL
