MODEL 1
REMARK VINA RESULT:      -5.9      0.000      0.000
REMARK  Name = 
REMARK  2 active torsions:
REMARK  status: ('A' for Active; 'I' for Inactive)
REMARK    1  A    between atoms: C_1  and  C_2
REMARK    2  A    between atoms: C_5  and  C_6
REMARK                            x       y       z     vdW  Elec       q    Type
REMARK                         _______ _______ _______ _____ _____    ______ ____
ROOT
ATOM      1  C   UNL     1       5.829   3.217  12.286  0.00  0.00    +0.000 C 
ATOM      2  C   UNL     1       6.420   3.982  13.403  0.00  0.00    +0.000 A 
ATOM      3  C   UNL     1       7.411   4.933  13.455  0.00  0.00    +0.000 A 
ATOM      4  N   UNL     1       7.587   5.384  14.738  0.00  0.00    +0.000 NA
ATOM      5  C   UNL     1       6.743   4.703  15.490  0.00  0.00    +0.000 A 
ATOM      6  N   UNL     1       6.005   3.846  14.703  0.00  0.00    +0.000 N 
ATOM      7  H   UNL     1       5.261   3.248  15.032  0.00  0.00    +0.000 HD
ENDROOT
BRANCH   5   8
ATOM      8  C   UNL     1       6.562   4.843  16.933  0.00  0.00    +0.000 A 
ATOM      9  C   UNL     1       7.523   5.527  17.682  0.00  0.00    +0.000 A 
ATOM     10  C   UNL     1       7.329   5.661  19.045  0.00  0.00    +0.000 A 
ATOM     11  N   UNL     1       6.263   5.161  19.705  0.00  0.00    +0.000 NA
ATOM     12  C   UNL     1       5.358   4.485  18.968  0.00  0.00    +0.000 A 
ATOM     13  C   UNL     1       5.458   4.304  17.597  0.00  0.00    +0.000 A 
ENDBRANCH   5   8
TORSDOF 1
ENDMDL
MODEL 2
REMARK VINA RESULT:      -5.9      0.111      1.360
REMARK  Name = 
REMARK  2 active torsions:
REMARK  status: ('A' for Active; 'I' for Inactive)
REMARK    1  A    between atoms: C_1  and  C_2
REMARK    2  A    between atoms: C_5  and  C_6
REMARK                            x       y       z     vdW  Elec       q    Type
REMARK                         _______ _______ _______ _____ _____    ______ ____
ROOT
ATOM      1  C   UNL     1       5.931   3.074  12.256  0.00  0.00    +0.000 C 
ATOM      2  C   UNL     1       6.475   3.898  13.355  0.00  0.00    +0.000 A 
ATOM      3  C   UNL     1       7.393   4.920  13.382  0.00  0.00    +0.000 A 
ATOM      4  N   UNL     1       7.550   5.401  14.656  0.00  0.00    +0.000 NA
ATOM      5  C   UNL     1       6.768   4.670  15.427  0.00  0.00    +0.000 A 
ATOM      6  N   UNL     1       6.087   3.750  14.661  0.00  0.00    +0.000 N 
ATOM      7  H   UNL     1       5.394   3.103  15.009  0.00  0.00    +0.000 HD
ENDROOT
BRANCH   5   8
ATOM      8  C   UNL     1       6.593   4.818  16.871  0.00  0.00    +0.000 A 
ATOM      9  C   UNL     1       5.468   4.263  17.487  0.00  0.00    +0.000 A 
ATOM     10  C   UNL     1       5.326   4.401  18.856  0.00  0.00    +0.000 A 
ATOM     11  N   UNL     1       6.211   5.053  19.640  0.00  0.00    +0.000 NA
ATOM     12  C   UNL     1       7.277   5.600  19.025  0.00  0.00    +0.000 A 
ATOM     13  C   UNL     1       7.514   5.509  17.661  0.00  0.00    +0.000 A 
ENDBRANCH   5   8
TORSDOF 1
ENDMDL
MODEL 3
REMARK VINA RESULT:      -5.8      2.630      5.203
REMARK  Name = 
REMARK  2 active torsions:
REMARK  status: ('A' for Active; 'I' for Inactive)
REMARK    1  A    between atoms: C_1  and  C_2
REMARK    2  A    between atoms: C_5  and  C_6
REMARK                            x       y       z     vdW  Elec       q    Type
REMARK                         _______ _______ _______ _____ _____    ______ ____
ROOT
ATOM      1  C   UNL     1       1.316   4.292  20.624  0.00  0.00    +0.000 C 
ATOM      2  C   UNL     1       2.039   4.124  19.347  0.00  0.00    +0.000 A 
ATOM      3  C   UNL     1       1.627   3.756  18.088  0.00  0.00    +0.000 A 
ATOM      4  N   UNL     1       2.676   3.776  17.206  0.00  0.00    +0.000 NA
ATOM      5  C   UNL     1       3.742   4.118  17.905  0.00  0.00    +0.000 A 
ATOM      6  N   UNL     1       3.385   4.350  19.215  0.00  0.00    +0.000 N 
ATOM      7  H   UNL     1       4.010   4.667  19.941  0.00  0.00    +0.000 HD
ENDROOT
BRANCH   5   8
ATOM      8  C   UNL     1       5.101   4.278  17.390  0.00  0.00    +0.000 A 
ATOM      9  C   UNL     1       5.337   4.132  16.021  0.00  0.00    +0.000 A 
ATOM     10  C   UNL     1       6.627   4.300  15.549  0.00  0.00    +0.000 A 
ATOM     11  N   UNL     1       7.683   4.590  16.339  0.00  0.00    +0.000 NA
ATOM     12  C   UNL     1       7.438   4.704  17.659  0.00  0.00    +0.000 A 
ATOM     13  C   UNL     1       6.181   4.563  18.227  0.00  0.00    +0.000 A 
ENDBRANCH   5   8
TORSDOF 1
ENDMDL
MODEL 4
REMARK VINA RESULT:      -5.7      2.747      5.192
REMARK  Name = 
REMARK  2 active torsions:
REMARK  status: ('A' for Active; 'I' for Inactive)
REMARK    1  A    between atoms: C_1  and  C_2
REMARK    2  A    between atoms: C_5  and  C_6
REMARK                            x       y       z     vdW  Elec       q    Type
REMARK                         _______ _______ _______ _____ _____    ______ ____
ROOT
ATOM      1  C   UNL     1       1.128   3.950  20.572  0.00  0.00    +0.000 C 
ATOM      2  C   UNL     1       1.913   3.711  19.344  0.00  0.00    +0.000 A 
ATOM      3  C   UNL     1       1.617   3.075  18.162  0.00  0.00    +0.000 A 
ATOM      4  N   UNL     1       2.676   3.140  17.294  0.00  0.00    +0.000 NA
ATOM      5  C   UNL     1       3.640   3.778  17.932  0.00  0.00    +0.000 A 
ATOM      6  N   UNL     1       3.201   4.151  19.183  0.00  0.00    +0.000 N 
ATOM      7  H   UNL     1       3.735   4.690  19.850  0.00  0.00    +0.000 HD
ENDROOT
BRANCH   5   8
ATOM      8  C   UNL     1       4.966   4.094  17.404  0.00  0.00    +0.000 A 
ATOM      9  C   UNL     1       5.977   4.492  18.283  0.00  0.00    +0.000 A 
ATOM     10  C   UNL     1       7.229   4.775  17.768  0.00  0.00    +0.000 A 
ATOM     11  N   UNL     1       7.535   4.700  16.455  0.00  0.00    +0.000 NA
ATOM     12  C   UNL     1       6.540   4.337  15.621  0.00  0.00    +0.000 A 
ATOM     13  C   UNL     1       5.256   4.024  16.041  0.00  0.00    +0.000 A 
ENDBRANCH   5   8
TORSDOF 1
ENDMDL
MODEL 5
REMARK VINA RESULT:      -5.7      3.290      4.740
REMARK  Name = 
REMARK  2 active torsions:
REMARK  status: ('A' for Active; 'I' for Inactive)
REMARK    1  A    between atoms: C_1  and  C_2
REMARK    2  A    between atoms: C_5  and  C_6
REMARK                            x       y       z     vdW  Elec       q    Type
REMARK                         _______ _______ _______ _____ _____    ______ ____
ROOT
ATOM      1  C   UNL     1       7.711   7.718  17.548  0.00  0.00    +0.000 C 
ATOM      2  C   UNL     1       6.977   6.548  18.071  0.00  0.00    +0.000 A 
ATOM      3  C   UNL     1       7.271   5.629  19.050  0.00  0.00    +0.000 A 
ATOM      4  N   UNL     1       6.246   4.731  19.200  0.00  0.00    +0.000 NA
ATOM      5  C   UNL     1       5.332   5.059  18.306  0.00  0.00    +0.000 A 
ATOM      6  N   UNL     1       5.743   6.172  17.608  0.00  0.00    +0.000 N 
ATOM      7  H   UNL     1       5.202   6.647  16.898  0.00  0.00    +0.000 HD
ENDROOT
BRANCH   5   8
ATOM      8  C   UNL     1       4.050   4.389  18.093  0.00  0.00    +0.000 A 
ATOM      9  C   UNL     1       2.882   5.152  18.018  0.00  0.00    +0.000 A 
ATOM     10  C   UNL     1       1.679   4.503  17.803  0.00  0.00    +0.000 A 
ATOM     11  N   UNL     1       1.562   3.165  17.669  0.00  0.00    +0.000 NA
ATOM     12  C   UNL     1       2.697   2.445  17.767  0.00  0.00    +0.000 A 
ATOM     13  C   UNL     1       3.950   3.002  17.972  0.00  0.00    +0.000 A 
ENDBRANCH   5   8
TORSDOF 1
ENDMDL
MODEL 6
REMARK VINA RESULT:      -5.6      2.794      4.805
REMARK  Name = 
REMARK  2 active torsions:
REMARK  status: ('A' for Active; 'I' for Inactive)
REMARK    1  A    between atoms: C_1  and  C_2
REMARK    2  A    between atoms: C_5  and  C_6
REMARK                            x       y       z     vdW  Elec       q    Type
REMARK                         _______ _______ _______ _____ _____    ______ ____
ROOT
ATOM      1  C   UNL     1       1.144   2.108  19.046  0.00  0.00    +0.000 C 
ATOM      2  C   UNL     1       1.964   3.165  18.420  0.00  0.00    +0.000 A 
ATOM      3  C   UNL     1       1.705   4.479  18.108  0.00  0.00    +0.000 A 
ATOM      4  N   UNL     1       2.810   5.076  17.558  0.00  0.00    +0.000 NA
ATOM      5  C   UNL     1       3.742   4.144  17.493  0.00  0.00    +0.000 A 
ATOM      6  N   UNL     1       3.261   2.967  18.023  0.00  0.00    +0.000 N 
ATOM      7  H   UNL     1       3.795   2.116  18.129  0.00  0.00    +0.000 HD
ENDROOT
BRANCH   5   8
ATOM      8  C   UNL     1       5.101   4.313  16.982  0.00  0.00    +0.000 A 
ATOM      9  C   UNL     1       6.147   4.544  17.879  0.00  0.00    +0.000 A 
ATOM     10  C   UNL     1       7.429   4.689  17.380  0.00  0.00    +0.000 A 
ATOM     11  N   UNL     1       7.734   4.629  16.066  0.00  0.00    +0.000 NA
ATOM     12  C   UNL     1       6.707   4.429  15.215  0.00  0.00    +0.000 A 
ATOM     13  C   UNL     1       5.391   4.263  15.618  0.00  0.00    +0.000 A 
ENDBRANCH   5   8
TORSDOF 1
ENDMDL
MODEL 7
REMARK VINA RESULT:      -5.6      2.318      4.796
REMARK  Name = 
REMARK  2 active torsions:
REMARK  status: ('A' for Active; 'I' for Inactive)
REMARK    1  A    between atoms: C_1  and  C_2
REMARK    2  A    between atoms: C_5  and  C_6
REMARK                            x       y       z     vdW  Elec       q    Type
REMARK                         _______ _______ _______ _____ _____    ______ ____
ROOT
ATOM      1  C   UNL     1       1.253   2.530  18.862  0.00  0.00    +0.000 C 
ATOM      2  C   UNL     1       2.676   2.921  18.914  0.00  0.00    +0.000 A 
ATOM      3  C   UNL     1       3.663   2.712  19.849  0.00  0.00    +0.000 A 
ATOM      4  N   UNL     1       4.853   3.247  19.429  0.00  0.00    +0.000 NA
ATOM      5  C   UNL     1       4.614   3.816  18.262  0.00  0.00    +0.000 A 
ATOM      6  N   UNL     1       3.295   3.624  17.913  0.00  0.00    +0.000 N 
ATOM      7  H   UNL     1       2.873   3.925  17.046  0.00  0.00    +0.000 HD
ENDROOT
BRANCH   5   8
ATOM      8  C   UNL     1       5.586   4.512  17.423  0.00  0.00    +0.000 A 
ATOM      9  C   UNL     1       6.254   5.631  17.929  0.00  0.00    +0.000 A 
ATOM     10  C   UNL     1       7.181   6.269  17.125  0.00  0.00    +0.000 A 
ATOM     11  N   UNL     1       7.477   5.882  15.867  0.00  0.00    +0.000 NA
ATOM     12  C   UNL     1       6.805   4.816  15.388  0.00  0.00    +0.000 A 
ATOM     13  C   UNL     1       5.866   4.103  16.118  0.00  0.00    +0.000 A 
ENDBRANCH   5   8
TORSDOF 1
ENDMDL
MODEL 8
REMARK VINA RESULT:      -5.6      3.199      5.663
REMARK  Name = 
REMARK  2 active torsions:
REMARK  status: ('A' for Active; 'I' for Inactive)
REMARK    1  A    between atoms: C_1  and  C_2
REMARK    2  A    between atoms: C_5  and  C_6
REMARK                            x       y       z     vdW  Elec       q    Type
REMARK                         _______ _______ _______ _____ _____    ______ ____
ROOT
ATOM      1  C   UNL     1       1.581   2.735  21.172  0.00  0.00    +0.000 C 
ATOM      2  C   UNL     1       1.916   3.015  19.760  0.00  0.00    +0.000 A 
ATOM      3  C   UNL     1       1.355   2.603  18.574  0.00  0.00    +0.000 A 
ATOM      4  N   UNL     1       2.007   3.164  17.507  0.00  0.00    +0.000 NA
ATOM      5  C   UNL     1       2.986   3.892  18.010  0.00  0.00    +0.000 A 
ATOM      6  N   UNL     1       2.951   3.832  19.386  0.00  0.00    +0.000 N 
ATOM      7  H   UNL     1       3.567   4.337  20.006  0.00  0.00    +0.000 HD
ENDROOT
BRANCH   5   8
ATOM      8  C   UNL     1       3.951   4.687  17.254  0.00  0.00    +0.000 A 
ATOM      9  C   UNL     1       4.042   6.062  17.489  0.00  0.00    +0.000 A 
ATOM     10  C   UNL     1       4.970   6.797  16.773  0.00  0.00    +0.000 A 
ATOM     11  N   UNL     1       5.795   6.265  15.845  0.00  0.00    +0.000 NA
ATOM     12  C   UNL     1       5.675   4.942  15.616  0.00  0.00    +0.000 A 
ATOM     13  C   UNL     1       4.784   4.119  16.288  0.00  0.00    +0.000 A 
ENDBRANCH   5   8
TORSDOF 1
ENDMDL
MODEL 9
REMARK VINA RESULT:      -5.6      2.341      4.986
REMARK  Name = 
REMARK  2 active torsions:
REMARK  status: ('A' for Active; 'I' for Inactive)
REMARK    1  A    between atoms: C_1  and  C_2
REMARK    2  A    between atoms: C_5  and  C_6
REMARK                            x       y       z     vdW  Elec       q    Type
REMARK                         _______ _______ _______ _____ _____    ______ ____
ROOT
ATOM      1  C   UNL     1       1.187   2.621  19.107  0.00  0.00    +0.000 C 
ATOM      2  C   UNL     1       2.635   2.910  19.131  0.00  0.00    +0.000 A 
ATOM      3  C   UNL     1       3.640   2.546  19.995  0.00  0.00    +0.000 A 
ATOM      4  N   UNL     1       4.848   3.039  19.573  0.00  0.00    +0.000 NA
ATOM      5  C   UNL     1       4.604   3.732  18.476  0.00  0.00    +0.000 A 
ATOM      6  N   UNL     1       3.262   3.663  18.172  0.00  0.00    +0.000 N 
ATOM      7  H   UNL     1       2.829   4.073  17.357  0.00  0.00    +0.000 HD
ENDROOT
BRANCH   5   8
ATOM      8  C   UNL     1       5.589   4.439  17.661  0.00  0.00    +0.000 A 
ATOM      9  C   UNL     1       5.812   4.030  16.344  0.00  0.00    +0.000 A 
ATOM     10  C   UNL     1       6.739   4.720  15.583  0.00  0.00    +0.000 A 
ATOM     11  N   UNL     1       7.456   5.768  16.042  0.00  0.00    +0.000 NA
ATOM     12  C   UNL     1       7.244   6.132  17.322  0.00  0.00    +0.000 A 
ATOM     13  C   UNL     1       6.331   5.512  18.161  0.00  0.00    +0.000 A 
ENDBRANCH   5   8
TORSDOF 1
ENDMDL
