MODEL 1
REMARK VINA RESULT:      -8.2      0.000      0.000
REMARK  Name = 
REMARK  4 active torsions:
REMARK  status: ('A' for Active; 'I' for Inactive)
REMARK    1  A    between atoms: C_1  and  C_2
REMARK    2  A    between atoms: N_5  and  C_6
REMARK    3  A    between atoms: N_9  and  C_10
REMARK    4  A    between atoms: C_18  and  C_19
REMARK                            x       y       z     vdW  Elec       q    Type
REMARK                         _______ _______ _______ _____ _____    ______ ____
ROOT
ATOM      1  C   UNL     1       1.574   3.429  21.687  0.00  0.00    +0.000 C 
ATOM      2  C   UNL     1       1.874   4.472  20.655  0.00  0.00    +0.000 A 
ATOM      3  N   UNL     1       2.634   4.122  19.598  0.00  0.00    +0.000 NA
ATOM      4  C   UNL     1       2.768   5.036  18.629  0.00  0.00    +0.000 A 
ATOM      5  N   UNL     1       3.563   4.820  17.509  0.00  0.00    +0.000 N 
ATOM      6  C   UNL     1       2.174   6.277  18.714  0.00  0.00    +0.000 A 
ATOM      7  C   UNL     1       1.547   6.608  19.894  0.00  0.00    +0.000 A 
ATOM      8  N   UNL     1       1.345   5.694  20.860  0.00  0.00    +0.000 NA
ATOM      9  H   UNL     1       3.003   4.857  16.660  0.00  0.00    +0.000 HD
ENDROOT
BRANCH   5  10
ATOM     10  C   UNL     1       4.573   3.763  17.474  0.00  0.00    +0.000 C 
ATOM     11  C   UNL     1       5.291   3.642  18.813  0.00  0.00    +0.000 C 
ATOM     12  C   UNL     1       6.120   4.885  19.089  0.00  0.00    +0.000 C 
ATOM     13  N   UNL     1       7.080   5.172  18.018  0.00  0.00    +0.000 N 
ATOM     14  C   UNL     1       8.055   6.223  18.301  0.00  0.00    +0.000 C 
ATOM     15  C   UNL     1       6.719   4.906  16.697  0.00  0.00    +0.000 A 
ATOM     16  C   UNL     1       7.499   5.339  15.611  0.00  0.00    +0.000 A 
ATOM     17  C   UNL     1       7.159   5.054  14.285  0.00  0.00    +0.000 A 
ATOM     18  C   UNL     1       6.039   4.282  14.006  0.00  0.00    +0.000 A 
ATOM     19  C   UNL     1       5.247   3.831  15.054  0.00  0.00    +0.000 A 
ATOM     20  C   UNL     1       5.566   4.147  16.390  0.00  0.00    +0.000 A 
ENDBRANCH   5  10
BRANCH   7  21
ATOM     21  C   UNL     1       1.197   8.010  20.223  0.00  0.00    +0.000 A 
ATOM     22  C   UNL     1       1.371   9.052  19.303  0.00  0.00    +0.000 A 
ATOM     23  C   UNL     1       0.948  10.363  19.581  0.00  0.00    +0.000 A 
ATOM     24  C   UNL     1       0.317  10.653  20.808  0.00  0.00    +0.000 A 
ATOM     25  N   UNL     1      -0.189  11.880  21.203  0.00  0.00    +0.000 NA
ATOM     26  C   UNL     1      -0.733  11.770  22.392  0.00  0.00    +0.000 A 
ATOM     27  S   UNL     1      -0.648  10.231  23.130  0.00  0.00    +0.000 S 
ATOM     28  C   UNL     1       0.154   9.622  21.730  0.00  0.00    +0.000 A 
ATOM     29  C   UNL     1       0.594   8.315  21.464  0.00  0.00    +0.000 A 
ENDBRANCH   7  21
TORSDOF 2
ENDMDL
MODEL 2
REMARK VINA RESULT:      -8.2      1.059      1.423
REMARK  Name = 
REMARK  4 active torsions:
REMARK  status: ('A' for Active; 'I' for Inactive)
REMARK    1  A    between atoms: C_1  and  C_2
REMARK    2  A    between atoms: N_5  and  C_6
REMARK    3  A    between atoms: N_9  and  C_10
REMARK    4  A    between atoms: C_18  and  C_19
REMARK                            x       y       z     vdW  Elec       q    Type
REMARK                         _______ _______ _______ _____ _____    ______ ____
ROOT
ATOM      1  C   UNL     1       1.455   3.260  21.609  0.00  0.00    +0.000 C 
ATOM      2  C   UNL     1       1.800   4.349  20.642  0.00  0.00    +0.000 A 
ATOM      3  N   UNL     1       2.559   4.036  19.572  0.00  0.00    +0.000 NA
ATOM      4  C   UNL     1       2.734   4.999  18.659  0.00  0.00    +0.000 A 
ATOM      5  N   UNL     1       3.533   4.821  17.535  0.00  0.00    +0.000 N 
ATOM      6  C   UNL     1       2.181   6.252  18.811  0.00  0.00    +0.000 A 
ATOM      7  C   UNL     1       1.553   6.536  20.003  0.00  0.00    +0.000 A 
ATOM      8  N   UNL     1       1.311   5.575  20.913  0.00  0.00    +0.000 NA
ATOM      9  H   UNL     1       2.983   4.925  16.685  0.00  0.00    +0.000 HD
ENDROOT
BRANCH   5  10
ATOM     10  C   UNL     1       4.507   3.734  17.448  0.00  0.00    +0.000 C 
ATOM     11  C   UNL     1       5.219   3.523  18.779  0.00  0.00    +0.000 C 
ATOM     12  C   UNL     1       6.088   4.722  19.116  0.00  0.00    +0.000 C 
ATOM     13  N   UNL     1       7.059   5.030  18.060  0.00  0.00    +0.000 N 
ATOM     14  C   UNL     1       8.068   6.033  18.394  0.00  0.00    +0.000 C 
ATOM     15  C   UNL     1       6.691   4.842  16.728  0.00  0.00    +0.000 A 
ATOM     16  C   UNL     1       7.486   5.303  15.664  0.00  0.00    +0.000 A 
ATOM     17  C   UNL     1       7.139   5.094  14.326  0.00  0.00    +0.000 A 
ATOM     18  C   UNL     1       5.994   4.375  14.009  0.00  0.00    +0.000 A 
ATOM     19  C   UNL     1       5.186   3.899  15.034  0.00  0.00    +0.000 A 
ATOM     20  C   UNL     1       5.514   4.138  16.384  0.00  0.00    +0.000 A 
ENDBRANCH   5  10
BRANCH   7  21
ATOM     21  C   UNL     1       1.247   7.928  20.410  0.00  0.00    +0.000 A 
ATOM     22  C   UNL     1       0.973   8.265  21.742  0.00  0.00    +0.000 A 
ATOM     23  C   UNL     1       0.780   9.598  22.142  0.00  0.00    +0.000 A 
ATOM     24  C   UNL     1       0.873  10.638  21.195  0.00  0.00    +0.000 A 
ATOM     25  N   UNL     1       0.751  11.994  21.446  0.00  0.00    +0.000 NA
ATOM     26  C   UNL     1       0.927  12.666  20.333  0.00  0.00    +0.000 A 
ATOM     27  S   UNL     1       1.208  11.744  18.922  0.00  0.00    +0.000 S 
ATOM     28  C   UNL     1       1.132  10.304  19.868  0.00  0.00    +0.000 A 
ATOM     29  C   UNL     1       1.306   8.972  19.460  0.00  0.00    +0.000 A 
ENDBRANCH   7  21
TORSDOF 2
ENDMDL
MODEL 3
REMARK VINA RESULT:      -8.1      2.869      4.875
REMARK  Name = 
REMARK  4 active torsions:
REMARK  status: ('A' for Active; 'I' for Inactive)
REMARK    1  A    between atoms: C_1  and  C_2
REMARK    2  A    between atoms: N_5  and  C_6
REMARK    3  A    between atoms: N_9  and  C_10
REMARK    4  A    between atoms: C_18  and  C_19
REMARK                            x       y       z     vdW  Elec       q    Type
REMARK                         _______ _______ _______ _____ _____    ______ ____
ROOT
ATOM      1  C   UNL     1      -0.155   8.521  22.717  0.00  0.00    +0.000 C 
ATOM      2  C   UNL     1       0.541   8.799  21.421  0.00  0.00    +0.000 A 
ATOM      3  N   UNL     1       1.286   7.817  20.874  0.00  0.00    +0.000 NA
ATOM      4  C   UNL     1       1.780   8.050  19.652  0.00  0.00    +0.000 A 
ATOM      5  N   UNL     1       2.603   7.140  18.998  0.00  0.00    +0.000 N 
ATOM      6  C   UNL     1       1.554   9.239  18.992  0.00  0.00    +0.000 A 
ATOM      7  C   UNL     1       0.916  10.245  19.683  0.00  0.00    +0.000 A 
ATOM      8  N   UNL     1       0.358  10.022  20.887  0.00  0.00    +0.000 NA
ATOM      9  H   UNL     1       2.175   6.833  18.127  0.00  0.00    +0.000 HD
ENDROOT
BRANCH   5  10
ATOM     10  C   UNL     1       3.272   6.054  19.713  0.00  0.00    +0.000 C 
ATOM     11  C   UNL     1       4.749   5.981  19.349  0.00  0.00    +0.000 C 
ATOM     12  C   UNL     1       4.922   5.576  17.895  0.00  0.00    +0.000 C 
ATOM     13  N   UNL     1       4.253   4.309  17.579  0.00  0.00    +0.000 N 
ATOM     14  C   UNL     1       4.545   3.745  16.263  0.00  0.00    +0.000 C 
ATOM     15  C   UNL     1       3.042   4.010  18.203  0.00  0.00    +0.000 A 
ATOM     16  C   UNL     1       2.249   2.920  17.804  0.00  0.00    +0.000 A 
ATOM     17  C   UNL     1       1.048   2.596  18.441  0.00  0.00    +0.000 A 
ATOM     18  C   UNL     1       0.620   3.336  19.535  0.00  0.00    +0.000 A 
ATOM     19  C   UNL     1       1.381   4.417  19.963  0.00  0.00    +0.000 A 
ATOM     20  C   UNL     1       2.574   4.769  19.300  0.00  0.00    +0.000 A 
ENDBRANCH   5  10
BRANCH   7  21
ATOM     21  C   UNL     1       0.940  11.650  19.212  0.00  0.00    +0.000 A 
ATOM     22  C   UNL     1      -0.235  12.396  19.053  0.00  0.00    +0.000 A 
ATOM     23  C   UNL     1      -0.204  13.756  18.701  0.00  0.00    +0.000 A 
ATOM     24  C   UNL     1       1.032  14.407  18.514  0.00  0.00    +0.000 A 
ATOM     25  N   UNL     1       1.220  15.745  18.210  0.00  0.00    +0.000 NA
ATOM     26  C   UNL     1       2.505  16.005  18.142  0.00  0.00    +0.000 A 
ATOM     27  S   UNL     1       3.563  14.687  18.391  0.00  0.00    +0.000 S 
ATOM     28  C   UNL     1       2.201  13.664  18.659  0.00  0.00    +0.000 A 
ATOM     29  C   UNL     1       2.175  12.300  18.991  0.00  0.00    +0.000 A 
ENDBRANCH   7  21
TORSDOF 2
ENDMDL
MODEL 4
REMARK VINA RESULT:      -8.0      2.269      4.210
REMARK  Name = 
REMARK  4 active torsions:
REMARK  status: ('A' for Active; 'I' for Inactive)
REMARK    1  A    between atoms: C_1  and  C_2
REMARK    2  A    between atoms: N_5  and  C_6
REMARK    3  A    between atoms: N_9  and  C_10
REMARK    4  A    between atoms: C_18  and  C_19
REMARK                            x       y       z     vdW  Elec       q    Type
REMARK                         _______ _______ _______ _____ _____    ______ ____
ROOT
ATOM      1  C   UNL     1       2.583  11.216  17.291  0.00  0.00    +0.000 C 
ATOM      2  C   UNL     1       2.047  10.261  18.312  0.00  0.00    +0.000 A 
ATOM      3  N   UNL     1       2.368   8.957  18.195  0.00  0.00    +0.000 NA
ATOM      4  C   UNL     1       1.988   8.154  19.197  0.00  0.00    +0.000 A 
ATOM      5  N   UNL     1       2.215   6.782  19.177  0.00  0.00    +0.000 N 
ATOM      6  C   UNL     1       1.290   8.632  20.285  0.00  0.00    +0.000 A 
ATOM      7  C   UNL     1       0.868   9.942  20.251  0.00  0.00    +0.000 A 
ATOM      8  N   UNL     1       1.282  10.786  19.289  0.00  0.00    +0.000 NA
ATOM      9  H   UNL     1       2.804   6.506  19.958  0.00  0.00    +0.000 HD
ENDROOT
BRANCH   5  10
ATOM     10  C   UNL     1       2.545   6.075  17.940  0.00  0.00    +0.000 C 
ATOM     11  C   UNL     1       1.810   4.743  17.853  0.00  0.00    +0.000 C 
ATOM     12  C   UNL     1       2.305   3.787  18.924  0.00  0.00    +0.000 C 
ATOM     13  N   UNL     1       3.755   3.576  18.865  0.00  0.00    +0.000 N 
ATOM     14  C   UNL     1       4.280   2.514  19.722  0.00  0.00    +0.000 C 
ATOM     15  C   UNL     1       4.580   4.642  18.506  0.00  0.00    +0.000 A 
ATOM     16  C   UNL     1       5.979   4.572  18.624  0.00  0.00    +0.000 A 
ATOM     17  C   UNL     1       6.815   5.625  18.242  0.00  0.00    +0.000 A 
ATOM     18  C   UNL     1       6.273   6.776  17.686  0.00  0.00    +0.000 A 
ATOM     19  C   UNL     1       4.894   6.879  17.549  0.00  0.00    +0.000 A 
ATOM     20  C   UNL     1       4.045   5.834  17.967  0.00  0.00    +0.000 A 
ENDBRANCH   5  10
BRANCH   7  21
ATOM     21  C   UNL     1      -0.173  10.450  21.176  0.00  0.00    +0.000 A 
ATOM     22  C   UNL     1      -0.292   9.974  22.488  0.00  0.00    +0.000 A 
ATOM     23  C   UNL     1      -1.215  10.525  23.394  0.00  0.00    +0.000 A 
ATOM     24  C   UNL     1      -2.041  11.594  22.992  0.00  0.00    +0.000 A 
ATOM     25  N   UNL     1      -2.961  12.264  23.781  0.00  0.00    +0.000 NA
ATOM     26  C   UNL     1      -3.525  13.222  23.083  0.00  0.00    +0.000 A 
ATOM     27  S   UNL     1      -3.036  13.367  21.453  0.00  0.00    +0.000 S 
ATOM     28  C   UNL     1      -1.934  12.060  21.685  0.00  0.00    +0.000 A 
ATOM     29  C   UNL     1      -1.028  11.499  20.770  0.00  0.00    +0.000 A 
ENDBRANCH   7  21
TORSDOF 2
ENDMDL
MODEL 5
REMARK VINA RESULT:      -7.7      6.934     12.146
REMARK  Name = 
REMARK  4 active torsions:
REMARK  status: ('A' for Active; 'I' for Inactive)
REMARK    1  A    between atoms: C_1  and  C_2
REMARK    2  A    between atoms: N_5  and  C_6
REMARK    3  A    between atoms: N_9  and  C_10
REMARK    4  A    between atoms: C_18  and  C_19
REMARK                            x       y       z     vdW  Elec       q    Type
REMARK                         _______ _______ _______ _____ _____    ______ ____
ROOT
ATOM      1  C   UNL     1       0.010   9.602  23.475  0.00  0.00    +0.000 C 
ATOM      2  C   UNL     1      -0.724  10.612  22.648  0.00  0.00    +0.000 A 
ATOM      3  N   UNL     1      -1.295  11.659  23.278  0.00  0.00    +0.000 NA
ATOM      4  C   UNL     1      -1.822  12.612  22.500  0.00  0.00    +0.000 A 
ATOM      5  N   UNL     1      -2.482  13.718  23.024  0.00  0.00    +0.000 N 
ATOM      6  C   UNL     1      -1.798  12.521  21.125  0.00  0.00    +0.000 A 
ATOM      7  C   UNL     1      -1.338  11.350  20.567  0.00  0.00    +0.000 A 
ATOM      8  N   UNL     1      -0.749  10.401  21.318  0.00  0.00    +0.000 NA
ATOM      9  H   UNL     1      -2.009  14.577  22.753  0.00  0.00    +0.000 HD
ENDROOT
BRANCH   5  10
ATOM     10  C   UNL     1      -2.959  13.747  24.406  0.00  0.00    +0.000 C 
ATOM     11  C   UNL     1      -4.220  12.908  24.572  0.00  0.00    +0.000 C 
ATOM     12  C   UNL     1      -5.378  13.527  23.808  0.00  0.00    +0.000 C 
ATOM     13  N   UNL     1      -5.633  14.918  24.200  0.00  0.00    +0.000 N 
ATOM     14  C   UNL     1      -6.855  15.516  23.668  0.00  0.00    +0.000 C 
ATOM     15  C   UNL     1      -4.552  15.737  24.528  0.00  0.00    +0.000 A 
ATOM     16  C   UNL     1      -4.699  17.123  24.715  0.00  0.00    +0.000 A 
ATOM     17  C   UNL     1      -3.627  17.946  25.071  0.00  0.00    +0.000 A 
ATOM     18  C   UNL     1      -2.372  17.396  25.293  0.00  0.00    +0.000 A 
ATOM     19  C   UNL     1      -2.190  16.029  25.125  0.00  0.00    +0.000 A 
ATOM     20  C   UNL     1      -3.260  15.200  24.730  0.00  0.00    +0.000 A 
ENDBRANCH   5  10
BRANCH   7  21
ATOM     21  C   UNL     1      -1.597  11.008  19.149  0.00  0.00    +0.000 A 
ATOM     22  C   UNL     1      -0.764  10.137  18.434  0.00  0.00    +0.000 A 
ATOM     23  C   UNL     1      -1.065   9.737  17.121  0.00  0.00    +0.000 A 
ATOM     24  C   UNL     1      -2.239  10.202  16.496  0.00  0.00    +0.000 A 
ATOM     25  N   UNL     1      -2.688   9.863  15.230  0.00  0.00    +0.000 NA
ATOM     26  C   UNL     1      -3.832  10.460  14.993  0.00  0.00    +0.000 A 
ATOM     27  S   UNL     1      -4.427  11.484  16.225  0.00  0.00    +0.000 S 
ATOM     28  C   UNL     1      -3.063  11.077  17.199  0.00  0.00    +0.000 A 
ATOM     29  C   UNL     1      -2.756  11.496  18.504  0.00  0.00    +0.000 A 
ENDBRANCH   7  21
TORSDOF 2
ENDMDL
MODEL 6
REMARK VINA RESULT:      -7.6      3.671     10.935
REMARK  Name = 
REMARK  4 active torsions:
REMARK  status: ('A' for Active; 'I' for Inactive)
REMARK    1  A    between atoms: C_1  and  C_2
REMARK    2  A    between atoms: N_5  and  C_6
REMARK    3  A    between atoms: N_9  and  C_10
REMARK    4  A    between atoms: C_18  and  C_19
REMARK                            x       y       z     vdW  Elec       q    Type
REMARK                         _______ _______ _______ _____ _____    ______ ____
ROOT
ATOM      1  C   UNL     1       1.452  14.043  18.354  0.00  0.00    +0.000 C 
ATOM      2  C   UNL     1       0.623  12.932  18.918  0.00  0.00    +0.000 A 
ATOM      3  N   UNL     1      -0.614  13.225  19.369  0.00  0.00    +0.000 NA
ATOM      4  C   UNL     1      -1.378  12.189  19.738  0.00  0.00    +0.000 A 
ATOM      5  N   UNL     1      -2.653  12.358  20.265  0.00  0.00    +0.000 N 
ATOM      6  C   UNL     1      -0.919  10.891  19.677  0.00  0.00    +0.000 A 
ATOM      7  C   UNL     1       0.404  10.693  19.355  0.00  0.00    +0.000 A 
ATOM      8  N   UNL     1       1.179  11.705  18.923  0.00  0.00    +0.000 NA
ATOM      9  H   UNL     1      -3.347  11.905  19.675  0.00  0.00    +0.000 HD
ENDROOT
BRANCH   5  10
ATOM     10  C   UNL     1      -3.107  13.648  20.784  0.00  0.00    +0.000 C 
ATOM     11  C   UNL     1      -2.325  14.049  22.028  0.00  0.00    +0.000 C 
ATOM     12  C   UNL     1      -2.628  13.103  23.178  0.00  0.00    +0.000 C 
ATOM     13  N   UNL     1      -4.061  13.023  23.478  0.00  0.00    +0.000 N 
ATOM     14  C   UNL     1      -4.417  12.302  24.699  0.00  0.00    +0.000 C 
ATOM     15  C   UNL     1      -4.978  13.093  22.429  0.00  0.00    +0.000 A 
ATOM     16  C   UNL     1      -6.345  12.821  22.616  0.00  0.00    +0.000 A 
ATOM     17  C   UNL     1      -7.274  12.915  21.576  0.00  0.00    +0.000 A 
ATOM     18  C   UNL     1      -6.866  13.328  20.314  0.00  0.00    +0.000 A 
ATOM     19  C   UNL     1      -5.524  13.611  20.094  0.00  0.00    +0.000 A 
ATOM     20  C   UNL     1      -4.577  13.482  21.130  0.00  0.00    +0.000 A 
ENDBRANCH   5  10
BRANCH   7  21
ATOM     21  C   UNL     1       1.082   9.399  19.606  0.00  0.00    +0.000 A 
ATOM     22  C   UNL     1       0.861   8.663  20.778  0.00  0.00    +0.000 A 
ATOM     23  C   UNL     1       1.428   7.392  20.970  0.00  0.00    +0.000 A 
ATOM     24  C   UNL     1       2.231   6.820  19.963  0.00  0.00    +0.000 A 
ATOM     25  N   UNL     1       2.818   5.566  19.991  0.00  0.00    +0.000 NA
ATOM     26  C   UNL     1       3.467   5.357  18.870  0.00  0.00    +0.000 A 
ATOM     27  S   UNL     1       3.458   6.635  17.735  0.00  0.00    +0.000 S 
ATOM     28  C   UNL     1       2.463   7.554  18.803  0.00  0.00    +0.000 A 
ATOM     29  C   UNL     1       1.916   8.834  18.615  0.00  0.00    +0.000 A 
ENDBRANCH   7  21
TORSDOF 2
ENDMDL
MODEL 7
REMARK VINA RESULT:      -7.5      2.657      4.699
REMARK  Name = 
REMARK  4 active torsions:
REMARK  status: ('A' for Active; 'I' for Inactive)
REMARK    1  A    between atoms: C_1  and  C_2
REMARK    2  A    between atoms: N_5  and  C_6
REMARK    3  A    between atoms: N_9  and  C_10
REMARK    4  A    between atoms: C_18  and  C_19
REMARK                            x       y       z     vdW  Elec       q    Type
REMARK                         _______ _______ _______ _____ _____    ______ ____
ROOT
ATOM      1  C   UNL     1      -0.120   8.478  22.898  0.00  0.00    +0.000 C 
ATOM      2  C   UNL     1       0.593   8.779  21.617  0.00  0.00    +0.000 A 
ATOM      3  N   UNL     1       1.311   7.793  21.040  0.00  0.00    +0.000 NA
ATOM      4  C   UNL     1       1.820   8.053  19.830  0.00  0.00    +0.000 A 
ATOM      5  N   UNL     1       2.618   7.141  19.148  0.00  0.00    +0.000 N 
ATOM      6  C   UNL     1       1.636   9.270  19.210  0.00  0.00    +0.000 A 
ATOM      7  C   UNL     1       1.026  10.271  19.932  0.00  0.00    +0.000 A 
ATOM      8  N   UNL     1       0.453  10.025  21.125  0.00  0.00    +0.000 NA
ATOM      9  H   UNL     1       2.187   6.878  18.265  0.00  0.00    +0.000 HD
ENDROOT
BRANCH   5  10
ATOM     10  C   UNL     1       3.248   6.010  19.829  0.00  0.00    +0.000 C 
ATOM     11  C   UNL     1       4.725   5.902  19.469  0.00  0.00    +0.000 C 
ATOM     12  C   UNL     1       4.892   5.542  18.003  0.00  0.00    +0.000 C 
ATOM     13  N   UNL     1       4.185   4.308  17.641  0.00  0.00    +0.000 N 
ATOM     14  C   UNL     1       4.466   3.781  16.307  0.00  0.00    +0.000 C 
ATOM     15  C   UNL     1       2.962   4.027  18.248  0.00  0.00    +0.000 A 
ATOM     16  C   UNL     1       2.137   2.977  17.808  0.00  0.00    +0.000 A 
ATOM     17  C   UNL     1       0.922   2.671  18.428  0.00  0.00    +0.000 A 
ATOM     18  C   UNL     1       0.512   3.386  19.545  0.00  0.00    +0.000 A 
ATOM     19  C   UNL     1       1.305   4.427  20.013  0.00  0.00    +0.000 A 
ATOM     20  C   UNL     1       2.512   4.763  19.368  0.00  0.00    +0.000 A 
ENDBRANCH   5  10
BRANCH   7  21
ATOM     21  C   UNL     1       1.097  11.691  19.511  0.00  0.00    +0.000 A 
ATOM     22  C   UNL     1       1.993  12.125  18.525  0.00  0.00    +0.000 A 
ATOM     23  C   UNL     1       1.991  13.450  18.058  0.00  0.00    +0.000 A 
ATOM     24  C   UNL     1       1.062  14.377  18.573  0.00  0.00    +0.000 A 
ATOM     25  N   UNL     1       0.913  15.697  18.182  0.00  0.00    +0.000 NA
ATOM     26  C   UNL     1      -0.071  16.248  18.854  0.00  0.00    +0.000 A 
ATOM     27  S   UNL     1      -0.850  15.260  20.010  0.00  0.00    +0.000 S 
ATOM     28  C   UNL     1       0.180  13.951  19.562  0.00  0.00    +0.000 A 
ATOM     29  C   UNL     1       0.191  12.633  20.047  0.00  0.00    +0.000 A 
ENDBRANCH   7  21
TORSDOF 2
ENDMDL
MODEL 8
REMARK VINA RESULT:      -7.3      2.998      8.750
REMARK  Name = 
REMARK  4 active torsions:
REMARK  status: ('A' for Active; 'I' for Inactive)
REMARK    1  A    between atoms: C_1  and  C_2
REMARK    2  A    between atoms: N_5  and  C_6
REMARK    3  A    between atoms: N_9  and  C_10
REMARK    4  A    between atoms: C_18  and  C_19
REMARK                            x       y       z     vdW  Elec       q    Type
REMARK                         _______ _______ _______ _____ _____    ______ ____
ROOT
ATOM      1  C   UNL     1       1.794   4.965  20.838  0.00  0.00    +0.000 C 
ATOM      2  C   UNL     1       2.186   6.035  19.866  0.00  0.00    +0.000 A 
ATOM      3  N   UNL     1       1.400   7.126  19.767  0.00  0.00    +0.000 NA
ATOM      4  C   UNL     1       1.850   8.121  18.993  0.00  0.00    +0.000 A 
ATOM      5  N   UNL     1       1.115   9.279  18.769  0.00  0.00    +0.000 N 
ATOM      6  C   UNL     1       3.048   8.029  18.318  0.00  0.00    +0.000 A 
ATOM      7  C   UNL     1       3.711   6.823  18.348  0.00  0.00    +0.000 A 
ATOM      8  N   UNL     1       3.316   5.827  19.162  0.00  0.00    +0.000 NA
ATOM      9  H   UNL     1       1.621  10.095  19.104  0.00  0.00    +0.000 HD
ENDROOT
BRANCH   5  10
ATOM     10  C   UNL     1      -0.319   9.347  19.052  0.00  0.00    +0.000 C 
ATOM     11  C   UNL     1      -1.020  10.323  18.116  0.00  0.00    +0.000 C 
ATOM     12  C   UNL     1      -0.561  11.746  18.384  0.00  0.00    +0.000 C 
ATOM     13  N   UNL     1      -0.756  12.147  19.781  0.00  0.00    +0.000 N 
ATOM     14  C   UNL     1      -0.536  13.562  20.074  0.00  0.00    +0.000 C 
ATOM     15  C   UNL     1      -0.575  11.200  20.789  0.00  0.00    +0.000 A 
ATOM     16  C   UNL     1      -0.545  11.556  22.149  0.00  0.00    +0.000 A 
ATOM     17  C   UNL     1      -0.392  10.610  23.166  0.00  0.00    +0.000 A 
ATOM     18  C   UNL     1      -0.305   9.261  22.853  0.00  0.00    +0.000 A 
ATOM     19  C   UNL     1      -0.336   8.870  21.520  0.00  0.00    +0.000 A 
ATOM     20  C   UNL     1      -0.454   9.824  20.489  0.00  0.00    +0.000 A 
ENDBRANCH   5  10
BRANCH   7  21
ATOM     21  C   UNL     1       4.795   6.505  17.389  0.00  0.00    +0.000 A 
ATOM     22  C   UNL     1       6.109   6.949  17.584  0.00  0.00    +0.000 A 
ATOM     23  C   UNL     1       7.155   6.565  16.727  0.00  0.00    +0.000 A 
ATOM     24  C   UNL     1       6.895   5.700  15.645  0.00  0.00    +0.000 A 
ATOM     25  N   UNL     1       7.824   5.203  14.746  0.00  0.00    +0.000 NA
ATOM     26  C   UNL     1       7.229   4.403  13.893  0.00  0.00    +0.000 A 
ATOM     27  S   UNL     1       5.540   4.219  14.072  0.00  0.00    +0.000 S 
ATOM     28  C   UNL     1       5.587   5.267  15.441  0.00  0.00    +0.000 A 
ATOM     29  C   UNL     1       4.536   5.664  16.283  0.00  0.00    +0.000 A 
ENDBRANCH   7  21
TORSDOF 2
ENDMDL
MODEL 9
REMARK VINA RESULT:      -7.3      7.945     10.537
REMARK  Name = 
REMARK  4 active torsions:
REMARK  status: ('A' for Active; 'I' for Inactive)
REMARK    1  A    between atoms: C_1  and  C_2
REMARK    2  A    between atoms: N_5  and  C_6
REMARK    3  A    between atoms: N_9  and  C_10
REMARK    4  A    between atoms: C_18  and  C_19
REMARK                            x       y       z     vdW  Elec       q    Type
REMARK                         _______ _______ _______ _____ _____    ______ ____
ROOT
ATOM      1  C   UNL     1      -0.846  14.202  23.126  0.00  0.00    +0.000 C 
ATOM      2  C   UNL     1      -0.435  14.128  21.688  0.00  0.00    +0.000 A 
ATOM      3  N   UNL     1      -1.155  13.345  20.859  0.00  0.00    +0.000 NA
ATOM      4  C   UNL     1      -0.846  13.408  19.558  0.00  0.00    +0.000 A 
ATOM      5  N   UNL     1      -1.479  12.618  18.605  0.00  0.00    +0.000 N 
ATOM      6  C   UNL     1       0.165  14.219  19.090  0.00  0.00    +0.000 A 
ATOM      7  C   UNL     1       0.951  14.865  20.019  0.00  0.00    +0.000 A 
ATOM      8  N   UNL     1       0.631  14.867  21.326  0.00  0.00    +0.000 NA
ATOM      9  H   UNL     1      -1.958  13.197  17.920  0.00  0.00    +0.000 HD
ENDROOT
BRANCH   5  10
ATOM     10  C   UNL     1      -2.248  11.430  18.978  0.00  0.00    +0.000 C 
ATOM     11  C   UNL     1      -1.718  10.187  18.275  0.00  0.00    +0.000 C 
ATOM     12  C   UNL     1      -1.953  10.278  16.777  0.00  0.00    +0.000 C 
ATOM     13  N   UNL     1      -3.364  10.494  16.440  0.00  0.00    +0.000 N 
ATOM     14  C   UNL     1      -3.705  10.383  15.023  0.00  0.00    +0.000 C 
ATOM     15  C   UNL     1      -4.145  11.293  17.276  0.00  0.00    +0.000 A 
ATOM     16  C   UNL     1      -5.438  11.708  16.913  0.00  0.00    +0.000 A 
ATOM     17  C   UNL     1      -6.237  12.486  17.755  0.00  0.00    +0.000 A 
ATOM     18  C   UNL     1      -5.777  12.842  19.016  0.00  0.00    +0.000 A 
ATOM     19  C   UNL     1      -4.506  12.446  19.412  0.00  0.00    +0.000 A 
ATOM     20  C   UNL     1      -3.683  11.692  18.551  0.00  0.00    +0.000 A 
ENDBRANCH   5  10
BRANCH   7  21
ATOM     21  C   UNL     1       2.258  15.459  19.654  0.00  0.00    +0.000 A 
ATOM     22  C   UNL     1       2.595  15.748  18.325  0.00  0.00    +0.000 A 
ATOM     23  C   UNL     1       3.794  16.401  17.992  0.00  0.00    +0.000 A 
ATOM     24  C   UNL     1       4.687  16.795  19.008  0.00  0.00    +0.000 A 
ATOM     25  N   UNL     1       5.878  17.481  18.838  0.00  0.00    +0.000 NA
ATOM     26  C   UNL     1       6.429  17.705  20.008  0.00  0.00    +0.000 A 
ATOM     27  S   UNL     1       5.601  17.091  21.371  0.00  0.00    +0.000 S 
ATOM     28  C   UNL     1       4.361  16.498  20.329  0.00  0.00    +0.000 A 
ATOM     29  C   UNL     1       3.174  15.827  20.666  0.00  0.00    +0.000 A 
ENDBRANCH   7  21
TORSDOF 2
ENDMDL
