MODEL 1
REMARK VINA RESULT:      -7.7      0.000      0.000
REMARK  Name = 
REMARK  9 active torsions:
REMARK  status: ('A' for Active; 'I' for Inactive)
REMARK    1  A    between atoms: C_1  and  C_2
REMARK    2  A    between atoms: N_7  and  C_8
REMARK    3  A    between atoms: C_8  and  C_9
REMARK    4  A    between atoms: N_15  and  C_16
REMARK    5  A    between atoms: N_19  and  C_20
REMARK    6  A    between atoms: N_21  and  C_22
REMARK    7  A    between atoms: C_22  and  C_23
REMARK    8  A    between atoms: C_23  and  C_24
REMARK    9  A    between atoms: C_24  and  C_25
REMARK                            x       y       z     vdW  Elec       q    Type
REMARK                         _______ _______ _______ _____ _____    ______ ____
ROOT
ATOM      1  C   UNL     1       2.045   7.367  20.277  0.00  0.00    +0.000 A 
ATOM      2  N   UNL     1       1.601   7.915  21.396  0.00  0.00    +0.000 NA
ATOM      3  C   UNL     1       0.871   8.980  21.016  0.00  0.00    +0.000 A 
ATOM      4  C   UNL     1       0.914   9.183  19.673  0.00  0.00    +0.000 A 
ATOM      5  C   UNL     1       0.201  10.254  19.050  0.00  0.00    +0.000 A 
ATOM      6  O   UNL     1       0.224  10.460  17.842  0.00  0.00    +0.000 OA
ATOM      7  N   UNL     1      -0.528  11.032  19.966  0.00  0.00    +0.000 N 
ATOM      8  C   UNL     1      -1.293  12.159  19.469  0.00  0.00    +0.000 C 
ATOM      9  C   UNL     1      -0.612  10.809  21.356  0.00  0.00    +0.000 A 
ATOM     10  O   UNL     1      -1.319  11.521  22.076  0.00  0.00    +0.000 OA
ATOM     11  N   UNL     1       0.128   9.752  21.869  0.00  0.00    +0.000 N 
ATOM     12  C   UNL     1       0.078   9.409  23.280  0.00  0.00    +0.000 C 
ATOM     13  N   UNL     1       1.708   8.165  19.187  0.00  0.00    +0.000 N 
ENDROOT
BRANCH   1  14
ATOM     14  C   UNL     1       2.768   6.038  20.233  0.00  0.00    +0.000 C 
BRANCH  14  21
ATOM     15  C   UNL     1       1.272   2.776  21.505  0.00  0.00    +0.000 C 
ATOM     16  C   UNL     1       2.386   3.742  21.060  0.00  0.00    +0.000 C 
ATOM     17  C   UNL     1       3.471   2.998  20.264  0.00  0.00    +0.000 C 
ATOM     18  C   UNL     1       2.991   2.578  18.875  0.00  0.00    +0.000 C 
ATOM     19  C   UNL     1       2.350   3.744  18.130  0.00  0.00    +0.000 C 
ATOM     20  C   UNL     1       1.319   4.475  18.989  0.00  0.00    +0.000 C 
ATOM     21  N   UNL     1       1.834   4.884  20.306  0.00  0.00    +0.000 NA
ENDBRANCH  14  21
ENDBRANCH   1  14
BRANCH  13  22
ATOM     22  C   UNL     1       2.019   7.930  17.787  0.00  0.00    +0.000 C 
BRANCH  22  23
ATOM     23  C   UNL     1       3.503   8.060  17.425  0.00  0.00    +0.000 C 
BRANCH  23  24
ATOM     24  C   UNL     1       4.148   6.735  17.008  0.00  0.00    +0.000 C 
BRANCH  24  25
ATOM     25  C   UNL     1       5.488   6.525  17.675  0.00  0.00    +0.000 A 
ATOM     26  C   UNL     1       6.567   7.367  17.376  0.00  0.00    +0.000 A 
ATOM     27  C   UNL     1       7.811   7.171  17.983  0.00  0.00    +0.000 A 
ATOM     28  C   UNL     1       7.987   6.131  18.892  0.00  0.00    +0.000 A 
ATOM     29  C   UNL     1       6.923   5.284  19.191  0.00  0.00    +0.000 A 
ATOM     30  C   UNL     1       5.679   5.476  18.585  0.00  0.00    +0.000 A 
ENDBRANCH  24  25
ENDBRANCH  23  24
ENDBRANCH  22  23
ENDBRANCH  13  22
TORSDOF 6
ENDMDL
MODEL 2
REMARK VINA RESULT:      -7.7      0.911      1.313
REMARK  Name = 
REMARK  9 active torsions:
REMARK  status: ('A' for Active; 'I' for Inactive)
REMARK    1  A    between atoms: C_1  and  C_2
REMARK    2  A    between atoms: N_7  and  C_8
REMARK    3  A    between atoms: C_8  and  C_9
REMARK    4  A    between atoms: N_15  and  C_16
REMARK    5  A    between atoms: N_19  and  C_20
REMARK    6  A    between atoms: N_21  and  C_22
REMARK    7  A    between atoms: C_22  and  C_23
REMARK    8  A    between atoms: C_23  and  C_24
REMARK    9  A    between atoms: C_24  and  C_25
REMARK                            x       y       z     vdW  Elec       q    Type
REMARK                         _______ _______ _______ _____ _____    ______ ____
ROOT
ATOM      1  C   UNL     1       2.375   6.842  19.937  0.00  0.00    +0.000 A 
ATOM      2  N   UNL     1       1.584   7.323  20.883  0.00  0.00    +0.000 NA
ATOM      3  C   UNL     1       1.127   8.499  20.413  0.00  0.00    +0.000 A 
ATOM      4  C   UNL     1       1.686   8.830  19.220  0.00  0.00    +0.000 A 
ATOM      5  C   UNL     1       1.338  10.034  18.534  0.00  0.00    +0.000 A 
ATOM      6  O   UNL     1       1.827  10.358  17.457  0.00  0.00    +0.000 OA
ATOM      7  N   UNL     1       0.375  10.796  19.220  0.00  0.00    +0.000 N 
ATOM      8  C   UNL     1      -0.065  12.049  18.638  0.00  0.00    +0.000 C 
ATOM      9  C   UNL     1      -0.240  10.445  20.439  0.00  0.00    +0.000 A 
ATOM     10  O   UNL     1      -1.113  11.158  20.943  0.00  0.00    +0.000 OA
ATOM     11  N   UNL     1       0.176   9.262  21.035  0.00  0.00    +0.000 N 
ATOM     12  C   UNL     1      -0.424   8.786  22.270  0.00  0.00    +0.000 C 
ATOM     13  N   UNL     1       2.530   7.781  18.920  0.00  0.00    +0.000 N 
ENDROOT
BRANCH   1  14
ATOM     14  C   UNL     1       2.966   5.449  19.977  0.00  0.00    +0.000 C 
BRANCH  14  21
ATOM     15  C   UNL     1       1.446   2.463  21.784  0.00  0.00    +0.000 C 
ATOM     16  C   UNL     1       2.535   3.266  21.047  0.00  0.00    +0.000 C 
ATOM     17  C   UNL     1       3.348   2.355  20.112  0.00  0.00    +0.000 C 
ATOM     18  C   UNL     1       2.548   1.914  18.887  0.00  0.00    +0.000 C 
ATOM     19  C   UNL     1       1.887   3.101  18.194  0.00  0.00    +0.000 C 
ATOM     20  C   UNL     1       1.138   3.995  19.181  0.00  0.00    +0.000 C 
ATOM     21  N   UNL     1       1.956   4.417  20.330  0.00  0.00    +0.000 NA
ENDBRANCH  14  21
ENDBRANCH   1  14
BRANCH  13  22
ATOM     22  C   UNL     1       3.327   7.654  17.712  0.00  0.00    +0.000 C 
BRANCH  22  23
ATOM     23  C   UNL     1       3.545   6.215  17.229  0.00  0.00    +0.000 C 
BRANCH  23  24
ATOM     24  C   UNL     1       4.862   6.017  16.474  0.00  0.00    +0.000 C 
BRANCH  24  25
ATOM     25  C   UNL     1       6.063   6.268  17.356  0.00  0.00    +0.000 A 
ATOM     26  C   UNL     1       6.359   5.396  18.412  0.00  0.00    +0.000 A 
ATOM     27  C   UNL     1       7.465   5.627  19.235  0.00  0.00    +0.000 A 
ATOM     28  C   UNL     1       8.281   6.733  19.012  0.00  0.00    +0.000 A 
ATOM     29  C   UNL     1       7.991   7.610  17.970  0.00  0.00    +0.000 A 
ATOM     30  C   UNL     1       6.886   7.382  17.146  0.00  0.00    +0.000 A 
ENDBRANCH  24  25
ENDBRANCH  23  24
ENDBRANCH  22  23
ENDBRANCH  13  22
TORSDOF 6
ENDMDL
MODEL 3
REMARK VINA RESULT:      -7.5      1.742      4.661
REMARK  Name = 
REMARK  9 active torsions:
REMARK  status: ('A' for Active; 'I' for Inactive)
REMARK    1  A    between atoms: C_1  and  C_2
REMARK    2  A    between atoms: N_7  and  C_8
REMARK    3  A    between atoms: C_8  and  C_9
REMARK    4  A    between atoms: N_15  and  C_16
REMARK    5  A    between atoms: N_19  and  C_20
REMARK    6  A    between atoms: N_21  and  C_22
REMARK    7  A    between atoms: C_22  and  C_23
REMARK    8  A    between atoms: C_23  and  C_24
REMARK    9  A    between atoms: C_24  and  C_25
REMARK                            x       y       z     vdW  Elec       q    Type
REMARK                         _______ _______ _______ _____ _____    ______ ____
ROOT
ATOM      1  C   UNL     1       2.908   7.371  18.375  0.00  0.00    +0.000 A 
ATOM      2  N   UNL     1       2.656   8.578  17.894  0.00  0.00    +0.000 NA
ATOM      3  C   UNL     1       1.935   9.205  18.842  0.00  0.00    +0.000 A 
ATOM      4  C   UNL     1       1.637   8.390  19.887  0.00  0.00    +0.000 A 
ATOM      5  C   UNL     1       0.886   8.852  21.012  0.00  0.00    +0.000 A 
ATOM      6  O   UNL     1       0.602   8.138  21.968  0.00  0.00    +0.000 OA
ATOM      7  N   UNL     1       0.519  10.205  20.907  0.00  0.00    +0.000 N 
ATOM      8  C   UNL     1      -0.253  10.803  21.979  0.00  0.00    +0.000 C 
ATOM      9  C   UNL     1       0.855  11.072  19.846  0.00  0.00    +0.000 A 
ATOM     10  O   UNL     1       0.527  12.262  19.864  0.00  0.00    +0.000 OA
ATOM     11  N   UNL     1       1.575  10.525  18.792  0.00  0.00    +0.000 N 
ATOM     12  C   UNL     1       2.010  11.340  17.671  0.00  0.00    +0.000 C 
ATOM     13  N   UNL     1       2.229   7.184  19.576  0.00  0.00    +0.000 N 
ENDROOT
BRANCH   1  14
ATOM     14  C   UNL     1       3.845   6.389  17.705  0.00  0.00    +0.000 C 
BRANCH  14  21
ATOM     15  C   UNL     1       7.457   7.578  17.517  0.00  0.00    +0.000 C 
ATOM     16  C   UNL     1       6.145   6.953  17.005  0.00  0.00    +0.000 C 
ATOM     17  C   UNL     1       6.432   5.763  16.076  0.00  0.00    +0.000 C 
ATOM     18  C   UNL     1       6.959   4.545  16.834  0.00  0.00    +0.000 C 
ATOM     19  C   UNL     1       6.082   4.211  18.035  0.00  0.00    +0.000 C 
ATOM     20  C   UNL     1       5.791   5.444  18.891  0.00  0.00    +0.000 C 
ATOM     21  N   UNL     1       5.258   6.581  18.123  0.00  0.00    +0.000 NA
ENDBRANCH  14  21
ENDBRANCH   1  14
BRANCH  13  22
ATOM     22  C   UNL     1       2.224   5.997  20.415  0.00  0.00    +0.000 C 
BRANCH  22  23
ATOM     23  C   UNL     1       0.938   5.165  20.351  0.00  0.00    +0.000 C 
BRANCH  23  24
ATOM     24  C   UNL     1       1.131   3.709  20.783  0.00  0.00    +0.000 C 
BRANCH  24  25
ATOM     25  C   UNL     1       2.021   2.949  19.829  0.00  0.00    +0.000 A 
ATOM     26  C   UNL     1       3.234   2.404  20.274  0.00  0.00    +0.000 A 
ATOM     27  C   UNL     1       4.065   1.707  19.392  0.00  0.00    +0.000 A 
ATOM     28  C   UNL     1       3.693   1.550  18.060  0.00  0.00    +0.000 A 
ATOM     29  C   UNL     1       2.494   2.093  17.606  0.00  0.00    +0.000 A 
ATOM     30  C   UNL     1       1.662   2.792  18.483  0.00  0.00    +0.000 A 
ENDBRANCH  24  25
ENDBRANCH  23  24
ENDBRANCH  22  23
ENDBRANCH  13  22
TORSDOF 6
ENDMDL
MODEL 4
REMARK VINA RESULT:      -7.4      0.880      1.020
REMARK  Name = 
REMARK  9 active torsions:
REMARK  status: ('A' for Active; 'I' for Inactive)
REMARK    1  A    between atoms: C_1  and  C_2
REMARK    2  A    between atoms: N_7  and  C_8
REMARK    3  A    between atoms: C_8  and  C_9
REMARK    4  A    between atoms: N_15  and  C_16
REMARK    5  A    between atoms: N_19  and  C_20
REMARK    6  A    between atoms: N_21  and  C_22
REMARK    7  A    between atoms: C_22  and  C_23
REMARK    8  A    between atoms: C_23  and  C_24
REMARK    9  A    between atoms: C_24  and  C_25
REMARK                            x       y       z     vdW  Elec       q    Type
REMARK                         _______ _______ _______ _____ _____    ______ ____
ROOT
ATOM      1  C   UNL     1       2.173   7.364  20.129  0.00  0.00    +0.000 A 
ATOM      2  N   UNL     1       1.645   7.852  21.240  0.00  0.00    +0.000 NA
ATOM      3  C   UNL     1       0.937   8.933  20.863  0.00  0.00    +0.000 A 
ATOM      4  C   UNL     1       1.077   9.206  19.539  0.00  0.00    +0.000 A 
ATOM      5  C   UNL     1       0.405  10.306  18.922  0.00  0.00    +0.000 A 
ATOM      6  O   UNL     1       0.515  10.575  17.730  0.00  0.00    +0.000 OA
ATOM      7  N   UNL     1      -0.394  11.034  19.821  0.00  0.00    +0.000 N 
ATOM      8  C   UNL     1      -1.128  12.183  19.327  0.00  0.00    +0.000 C 
ATOM      9  C   UNL     1      -0.578  10.738  21.187  0.00  0.00    +0.000 A 
ATOM     10  O   UNL     1      -1.340  11.409  21.889  0.00  0.00    +0.000 OA
ATOM     11  N   UNL     1       0.129   9.658  21.698  0.00  0.00    +0.000 N 
ATOM     12  C   UNL     1      -0.022   9.241  23.081  0.00  0.00    +0.000 C 
ATOM     13  N   UNL     1       1.911   8.217  19.060  0.00  0.00    +0.000 N 
ENDROOT
BRANCH   1  14
ATOM     14  C   UNL     1       2.906   6.041  20.069  0.00  0.00    +0.000 C 
BRANCH  14  21
ATOM     15  C   UNL     1       1.294   2.682  20.852  0.00  0.00    +0.000 C 
ATOM     16  C   UNL     1       2.446   3.681  20.634  0.00  0.00    +0.000 C 
ATOM     17  C   UNL     1       3.624   3.009  19.911  0.00  0.00    +0.000 C 
ATOM     18  C   UNL     1       3.319   2.718  18.442  0.00  0.00    +0.000 C 
ATOM     19  C   UNL     1       2.763   3.949  17.733  0.00  0.00    +0.000 C 
ATOM     20  C   UNL     1       1.630   4.602  18.524  0.00  0.00    +0.000 C 
ATOM     21  N   UNL     1       1.979   4.888  19.925  0.00  0.00    +0.000 NA
ENDBRANCH  14  21
ENDBRANCH   1  14
BRANCH  13  22
ATOM     22  C   UNL     1       2.326   8.056  17.677  0.00  0.00    +0.000 C 
BRANCH  22  23
ATOM     23  C   UNL     1       3.842   8.009  17.458  0.00  0.00    +0.000 C 
BRANCH  23  24
ATOM     24  C   UNL     1       4.267   7.068  16.327  0.00  0.00    +0.000 C 
BRANCH  24  25
ATOM     25  C   UNL     1       5.431   6.192  16.727  0.00  0.00    +0.000 A 
ATOM     26  C   UNL     1       5.837   5.135  15.902  0.00  0.00    +0.000 A 
ATOM     27  C   UNL     1       6.908   4.316  16.273  0.00  0.00    +0.000 A 
ATOM     28  C   UNL     1       7.581   4.546  17.470  0.00  0.00    +0.000 A 
ATOM     29  C   UNL     1       7.181   5.590  18.300  0.00  0.00    +0.000 A 
ATOM     30  C   UNL     1       6.109   6.409  17.935  0.00  0.00    +0.000 A 
ENDBRANCH  24  25
ENDBRANCH  23  24
ENDBRANCH  22  23
ENDBRANCH  13  22
TORSDOF 6
ENDMDL
MODEL 5
REMARK VINA RESULT:      -7.3      1.851      4.672
REMARK  Name = 
REMARK  9 active torsions:
REMARK  status: ('A' for Active; 'I' for Inactive)
REMARK    1  A    between atoms: C_1  and  C_2
REMARK    2  A    between atoms: N_7  and  C_8
REMARK    3  A    between atoms: C_8  and  C_9
REMARK    4  A    between atoms: N_15  and  C_16
REMARK    5  A    between atoms: N_19  and  C_20
REMARK    6  A    between atoms: N_21  and  C_22
REMARK    7  A    between atoms: C_22  and  C_23
REMARK    8  A    between atoms: C_23  and  C_24
REMARK    9  A    between atoms: C_24  and  C_25
REMARK                            x       y       z     vdW  Elec       q    Type
REMARK                         _______ _______ _______ _____ _____    ______ ____
ROOT
ATOM      1  C   UNL     1       2.947   6.852  18.724  0.00  0.00    +0.000 A 
ATOM      2  N   UNL     1       2.810   8.008  18.096  0.00  0.00    +0.000 NA
ATOM      3  C   UNL     1       2.030   8.764  18.891  0.00  0.00    +0.000 A 
ATOM      4  C   UNL     1       1.584   8.081  19.978  0.00  0.00    +0.000 A 
ATOM      5  C   UNL     1       0.749   8.694  20.962  0.00  0.00    +0.000 A 
ATOM      6  O   UNL     1       0.332   8.101  21.951  0.00  0.00    +0.000 OA
ATOM      7  N   UNL     1       0.467  10.042  20.678  0.00  0.00    +0.000 N 
ATOM      8  C   UNL     1      -0.378  10.785  21.593  0.00  0.00    +0.000 C 
ATOM      9  C   UNL     1       0.954  10.773  19.574  0.00  0.00    +0.000 A 
ATOM     10  O   UNL     1       0.690  11.970  19.434  0.00  0.00    +0.000 OA
ATOM     11  N   UNL     1       1.747  10.085  18.666  0.00  0.00    +0.000 N 
ATOM     12  C   UNL     1       2.336  10.754  17.518  0.00  0.00    +0.000 C 
ATOM     13  N   UNL     1       2.141   6.825  19.859  0.00  0.00    +0.000 N 
ENDROOT
BRANCH   1  14
ATOM     14  C   UNL     1       3.894   5.764  18.264  0.00  0.00    +0.000 C 
BRANCH  14  21
ATOM     15  C   UNL     1       5.499   5.570  14.817  0.00  0.00    +0.000 C 
ATOM     16  C   UNL     1       5.065   5.063  16.206  0.00  0.00    +0.000 C 
ATOM     17  C   UNL     1       6.144   4.156  16.818  0.00  0.00    +0.000 C 
ATOM     18  C   UNL     1       7.382   4.936  17.259  0.00  0.00    +0.000 C 
ATOM     19  C   UNL     1       7.008   6.140  18.117  0.00  0.00    +0.000 C 
ATOM     20  C   UNL     1       5.896   6.974  17.480  0.00  0.00    +0.000 C 
ATOM     21  N   UNL     1       4.714   6.185  17.098  0.00  0.00    +0.000 NA
ENDBRANCH  14  21
ENDBRANCH   1  14
BRANCH  13  22
ATOM     22  C   UNL     1       1.988   5.738  20.812  0.00  0.00    +0.000 C 
BRANCH  22  23
ATOM     23  C   UNL     1       0.780   4.827  20.565  0.00  0.00    +0.000 C 
BRANCH  23  24
ATOM     24  C   UNL     1       1.069   3.346  20.825  0.00  0.00    +0.000 C 
BRANCH  24  25
ATOM     25  C   UNL     1       2.034   2.772  19.813  0.00  0.00    +0.000 A 
ATOM     26  C   UNL     1       3.325   2.392  20.203  0.00  0.00    +0.000 A 
ATOM     27  C   UNL     1       4.223   1.868  19.269  0.00  0.00    +0.000 A 
ATOM     28  C   UNL     1       3.840   1.722  17.938  0.00  0.00    +0.000 A 
ATOM     29  C   UNL     1       2.561   2.103  17.539  0.00  0.00    +0.000 A 
ATOM     30  C   UNL     1       1.661   2.628  18.469  0.00  0.00    +0.000 A 
ENDBRANCH  24  25
ENDBRANCH  23  24
ENDBRANCH  22  23
ENDBRANCH  13  22
TORSDOF 6
ENDMDL
MODEL 6
REMARK VINA RESULT:      -7.3      1.063      1.193
REMARK  Name = 
REMARK  9 active torsions:
REMARK  status: ('A' for Active; 'I' for Inactive)
REMARK    1  A    between atoms: C_1  and  C_2
REMARK    2  A    between atoms: N_7  and  C_8
REMARK    3  A    between atoms: C_8  and  C_9
REMARK    4  A    between atoms: N_15  and  C_16
REMARK    5  A    between atoms: N_19  and  C_20
REMARK    6  A    between atoms: N_21  and  C_22
REMARK    7  A    between atoms: C_22  and  C_23
REMARK    8  A    between atoms: C_23  and  C_24
REMARK    9  A    between atoms: C_24  and  C_25
REMARK                            x       y       z     vdW  Elec       q    Type
REMARK                         _______ _______ _______ _____ _____    ______ ____
ROOT
ATOM      1  C   UNL     1       2.017   7.477  20.307  0.00  0.00    +0.000 A 
ATOM      2  N   UNL     1       1.466   8.014  21.384  0.00  0.00    +0.000 NA
ATOM      3  C   UNL     1       0.785   9.089  20.947  0.00  0.00    +0.000 A 
ATOM      4  C   UNL     1       0.964   9.310  19.618  0.00  0.00    +0.000 A 
ATOM      5  C   UNL     1       0.325  10.394  18.942  0.00  0.00    +0.000 A 
ATOM      6  O   UNL     1       0.470  10.616  17.744  0.00  0.00    +0.000 OA
ATOM      7  N   UNL     1      -0.488  11.166  19.790  0.00  0.00    +0.000 N 
ATOM      8  C   UNL     1      -1.192  12.305  19.234  0.00  0.00    +0.000 C 
ATOM      9  C   UNL     1      -0.713  10.925  21.162  0.00  0.00    +0.000 A 
ATOM     10  O   UNL     1      -1.483  11.633  21.817  0.00  0.00    +0.000 OA
ATOM     11  N   UNL     1      -0.035   9.856  21.732  0.00  0.00    +0.000 N 
ATOM     12  C   UNL     1      -0.229   9.494  23.125  0.00  0.00    +0.000 C 
ATOM     13  N   UNL     1       1.796   8.292  19.200  0.00  0.00    +0.000 N 
ENDROOT
BRANCH   1  14
ATOM     14  C   UNL     1       2.732   6.143  20.317  0.00  0.00    +0.000 C 
BRANCH  14  21
ATOM     15  C   UNL     1       0.392   3.155  20.020  0.00  0.00    +0.000 C 
ATOM     16  C   UNL     1       1.559   3.986  20.585  0.00  0.00    +0.000 C 
ATOM     17  C   UNL     1       2.753   3.084  20.935  0.00  0.00    +0.000 C 
ATOM     18  C   UNL     1       3.463   2.546  19.693  0.00  0.00    +0.000 C 
ATOM     19  C   UNL     1       3.783   3.662  18.705  0.00  0.00    +0.000 C 
ATOM     20  C   UNL     1       2.571   4.554  18.436  0.00  0.00    +0.000 C 
ATOM     21  N   UNL     1       1.938   5.071  19.660  0.00  0.00    +0.000 NA
ENDBRANCH  14  21
ENDBRANCH   1  14
BRANCH  13  22
ATOM     22  C   UNL     1       2.245   8.073  17.835  0.00  0.00    +0.000 C 
BRANCH  22  23
ATOM     23  C   UNL     1       3.764   7.944  17.667  0.00  0.00    +0.000 C 
BRANCH  23  24
ATOM     24  C   UNL     1       4.178   7.248  16.368  0.00  0.00    +0.000 C 
BRANCH  24  25
ATOM     25  C   UNL     1       5.325   6.288  16.581  0.00  0.00    +0.000 A 
ATOM     26  C   UNL     1       6.302   6.558  17.548  0.00  0.00    +0.000 A 
ATOM     27  C   UNL     1       7.370   5.677  17.743  0.00  0.00    +0.000 A 
ATOM     28  C   UNL     1       7.471   4.521  16.973  0.00  0.00    +0.000 A 
ATOM     29  C   UNL     1       6.508   4.248  16.004  0.00  0.00    +0.000 A 
ATOM     30  C   UNL     1       5.441   5.127  15.805  0.00  0.00    +0.000 A 
ENDBRANCH  24  25
ENDBRANCH  23  24
ENDBRANCH  22  23
ENDBRANCH  13  22
TORSDOF 6
ENDMDL
MODEL 7
REMARK VINA RESULT:      -7.2      1.354      1.860
REMARK  Name = 
REMARK  9 active torsions:
REMARK  status: ('A' for Active; 'I' for Inactive)
REMARK    1  A    between atoms: C_1  and  C_2
REMARK    2  A    between atoms: N_7  and  C_8
REMARK    3  A    between atoms: C_8  and  C_9
REMARK    4  A    between atoms: N_15  and  C_16
REMARK    5  A    between atoms: N_19  and  C_20
REMARK    6  A    between atoms: N_21  and  C_22
REMARK    7  A    between atoms: C_22  and  C_23
REMARK    8  A    between atoms: C_23  and  C_24
REMARK    9  A    between atoms: C_24  and  C_25
REMARK                            x       y       z     vdW  Elec       q    Type
REMARK                         _______ _______ _______ _____ _____    ______ ____
ROOT
ATOM      1  C   UNL     1       1.235   7.106  20.316  0.00  0.00    +0.000 A 
ATOM      2  N   UNL     1       0.847   7.750  21.405  0.00  0.00    +0.000 NA
ATOM      3  C   UNL     1       0.866   9.057  21.082  0.00  0.00    +0.000 A 
ATOM      4  C   UNL     1       1.350   9.272  19.830  0.00  0.00    +0.000 A 
ATOM      5  C   UNL     1       1.450  10.586  19.277  0.00  0.00    +0.000 A 
ATOM      6  O   UNL     1       1.883  10.809  18.152  0.00  0.00    +0.000 OA
ATOM      7  N   UNL     1       0.992  11.585  20.154  0.00  0.00    +0.000 N 
ATOM      8  C   UNL     1       1.043  12.968  19.721  0.00  0.00    +0.000 C 
ATOM      9  C   UNL     1       0.452  11.372  21.439  0.00  0.00    +0.000 A 
ATOM     10  O   UNL     1       0.031  12.312  22.120  0.00  0.00    +0.000 OA
ATOM     11  N   UNL     1       0.411  10.061  21.894  0.00  0.00    +0.000 N 
ATOM     12  C   UNL     1      -0.166   9.726  23.185  0.00  0.00    +0.000 C 
ATOM     13  N   UNL     1       1.632   8.015  19.339  0.00  0.00    +0.000 N 
ENDROOT
BRANCH   1  14
ATOM     14  C   UNL     1       1.189   5.599  20.182  0.00  0.00    +0.000 C 
BRANCH  14  21
ATOM     15  C   UNL     1       4.716   4.272  19.642  0.00  0.00    +0.000 C 
ATOM     16  C   UNL     1       3.225   4.497  19.325  0.00  0.00    +0.000 C 
ATOM     17  C   UNL     1       2.598   3.231  18.719  0.00  0.00    +0.000 C 
ATOM     18  C   UNL     1       2.426   2.115  19.748  0.00  0.00    +0.000 C 
ATOM     19  C   UNL     1       1.735   2.620  21.010  0.00  0.00    +0.000 C 
ATOM     20  C   UNL     1       2.371   3.907  21.535  0.00  0.00    +0.000 C 
ATOM     21  N   UNL     1       2.490   4.962  20.515  0.00  0.00    +0.000 NA
ENDBRANCH  14  21
ENDBRANCH   1  14
BRANCH  13  22
ATOM     22  C   UNL     1       2.137   7.719  18.008  0.00  0.00    +0.000 C 
BRANCH  22  23
ATOM     23  C   UNL     1       3.664   7.749  17.875  0.00  0.00    +0.000 C 
BRANCH  23  24
ATOM     24  C   UNL     1       4.169   7.239  16.523  0.00  0.00    +0.000 C 
BRANCH  24  25
ATOM     25  C   UNL     1       5.341   6.297  16.677  0.00  0.00    +0.000 A 
ATOM     26  C   UNL     1       5.368   5.082  15.979  0.00  0.00    +0.000 A 
ATOM     27  C   UNL     1       6.445   4.203  16.123  0.00  0.00    +0.000 A 
ATOM     28  C   UNL     1       7.503   4.530  16.968  0.00  0.00    +0.000 A 
ATOM     29  C   UNL     1       7.483   5.732  17.671  0.00  0.00    +0.000 A 
ATOM     30  C   UNL     1       6.407   6.611  17.531  0.00  0.00    +0.000 A 
ENDBRANCH  24  25
ENDBRANCH  23  24
ENDBRANCH  22  23
ENDBRANCH  13  22
TORSDOF 6
ENDMDL
MODEL 8
REMARK VINA RESULT:      -7.1      1.761      2.190
REMARK  Name = 
REMARK  9 active torsions:
REMARK  status: ('A' for Active; 'I' for Inactive)
REMARK    1  A    between atoms: C_1  and  C_2
REMARK    2  A    between atoms: N_7  and  C_8
REMARK    3  A    between atoms: C_8  and  C_9
REMARK    4  A    between atoms: N_15  and  C_16
REMARK    5  A    between atoms: N_19  and  C_20
REMARK    6  A    between atoms: N_21  and  C_22
REMARK    7  A    between atoms: C_22  and  C_23
REMARK    8  A    between atoms: C_23  and  C_24
REMARK    9  A    between atoms: C_24  and  C_25
REMARK                            x       y       z     vdW  Elec       q    Type
REMARK                         _______ _______ _______ _____ _____    ______ ____
ROOT
ATOM      1  C   UNL     1       2.354   6.895  19.983  0.00  0.00    +0.000 A 
ATOM      2  N   UNL     1       1.573   7.390  20.930  0.00  0.00    +0.000 NA
ATOM      3  C   UNL     1       1.103   8.553  20.444  0.00  0.00    +0.000 A 
ATOM      4  C   UNL     1       1.643   8.864  19.236  0.00  0.00    +0.000 A 
ATOM      5  C   UNL     1       1.278  10.053  18.531  0.00  0.00    +0.000 A 
ATOM      6  O   UNL     1       1.750  10.358  17.441  0.00  0.00    +0.000 OA
ATOM      7  N   UNL     1       0.321  10.823  19.215  0.00  0.00    +0.000 N 
ATOM      8  C   UNL     1      -0.136  12.061  18.615  0.00  0.00    +0.000 C 
ATOM      9  C   UNL     1      -0.275  10.492  20.450  0.00  0.00    +0.000 A 
ATOM     10  O   UNL     1      -1.145  11.210  20.952  0.00  0.00    +0.000 OA
ATOM     11  N   UNL     1       0.156   9.324  21.064  0.00  0.00    +0.000 N 
ATOM     12  C   UNL     1      -0.424   8.869  22.316  0.00  0.00    +0.000 C 
ATOM     13  N   UNL     1       2.488   7.814  18.946  0.00  0.00    +0.000 N 
ENDROOT
BRANCH   1  14
ATOM     14  C   UNL     1       2.953   5.506  20.042  0.00  0.00    +0.000 C 
BRANCH  14  21
ATOM     15  C   UNL     1       1.370   2.490  21.742  0.00  0.00    +0.000 C 
ATOM     16  C   UNL     1       2.487   3.308  21.067  0.00  0.00    +0.000 C 
ATOM     17  C   UNL     1       3.351   2.414  20.164  0.00  0.00    +0.000 C 
ATOM     18  C   UNL     1       2.616   1.980  18.897  0.00  0.00    +0.000 C 
ATOM     19  C   UNL     1       1.980   3.169  18.184  0.00  0.00    +0.000 C 
ATOM     20  C   UNL     1       1.177   4.048  19.143  0.00  0.00    +0.000 C 
ATOM     21  N   UNL     1       1.935   4.464  20.335  0.00  0.00    +0.000 NA
ENDBRANCH  14  21
ENDBRANCH   1  14
BRANCH  13  22
ATOM     22  C   UNL     1       3.269   7.668  17.728  0.00  0.00    +0.000 C 
BRANCH  22  23
ATOM     23  C   UNL     1       3.755   6.242  17.440  0.00  0.00    +0.000 C 
BRANCH  23  24
ATOM     24  C   UNL     1       5.277   6.129  17.315  0.00  0.00    +0.000 C 
BRANCH  24  25
ATOM     25  C   UNL     1       5.689   5.405  16.055  0.00  0.00    +0.000 A 
ATOM     26  C   UNL     1       4.829   4.471  15.462  0.00  0.00    +0.000 A 
ATOM     27  C   UNL     1       5.209   3.792  14.301  0.00  0.00    +0.000 A 
ATOM     28  C   UNL     1       6.452   4.039  13.724  0.00  0.00    +0.000 A 
ATOM     29  C   UNL     1       7.317   4.960  14.309  0.00  0.00    +0.000 A 
ATOM     30  C   UNL     1       6.941   5.639  15.471  0.00  0.00    +0.000 A 
ENDBRANCH  24  25
ENDBRANCH  23  24
ENDBRANCH  22  23
ENDBRANCH  13  22
TORSDOF 6
ENDMDL
MODEL 9
REMARK VINA RESULT:      -7.1      1.652      2.029
REMARK  Name = 
REMARK  9 active torsions:
REMARK  status: ('A' for Active; 'I' for Inactive)
REMARK    1  A    between atoms: C_1  and  C_2
REMARK    2  A    between atoms: N_7  and  C_8
REMARK    3  A    between atoms: C_8  and  C_9
REMARK    4  A    between atoms: N_15  and  C_16
REMARK    5  A    between atoms: N_19  and  C_20
REMARK    6  A    between atoms: N_21  and  C_22
REMARK    7  A    between atoms: C_22  and  C_23
REMARK    8  A    between atoms: C_23  and  C_24
REMARK    9  A    between atoms: C_24  and  C_25
REMARK                            x       y       z     vdW  Elec       q    Type
REMARK                         _______ _______ _______ _____ _____    ______ ____
ROOT
ATOM      1  C   UNL     1       2.290   6.715  19.858  0.00  0.00    +0.000 A 
ATOM      2  N   UNL     1       1.659   7.263  20.883  0.00  0.00    +0.000 NA
ATOM      3  C   UNL     1       1.239   8.467  20.452  0.00  0.00    +0.000 A 
ATOM      4  C   UNL     1       1.672   8.745  19.194  0.00  0.00    +0.000 A 
ATOM      5  C   UNL     1       1.336   9.967  18.534  0.00  0.00    +0.000 A 
ATOM      6  O   UNL     1       1.714  10.242  17.400  0.00  0.00    +0.000 OA
ATOM      7  N   UNL     1       0.526  10.807  19.317  0.00  0.00    +0.000 N 
ATOM      8  C   UNL     1       0.114  12.086  18.771  0.00  0.00    +0.000 C 
ATOM      9  C   UNL     1       0.038  10.514  20.608  0.00  0.00    +0.000 A 
ATOM     10  O   UNL     1      -0.710  11.298  21.201  0.00  0.00    +0.000 OA
ATOM     11  N   UNL     1       0.432   9.308  21.170  0.00  0.00    +0.000 N 
ATOM     12  C   UNL     1      -0.048   8.890  22.476  0.00  0.00    +0.000 C 
ATOM     13  N   UNL     1       2.390   7.630  18.813  0.00  0.00    +0.000 N 
ENDROOT
BRANCH   1  14
ATOM     14  C   UNL     1       2.772   5.280  19.850  0.00  0.00    +0.000 C 
BRANCH  14  21
ATOM     15  C   UNL     1       0.327   2.513  18.925  0.00  0.00    +0.000 C 
ATOM     16  C   UNL     1       1.526   3.158  19.646  0.00  0.00    +0.000 C 
ATOM     17  C   UNL     1       2.689   2.162  19.773  0.00  0.00    +0.000 C 
ATOM     18  C   UNL     1       3.374   1.890  18.434  0.00  0.00    +0.000 C 
ATOM     19  C   UNL     1       3.729   3.187  17.715  0.00  0.00    +0.000 C 
ATOM     20  C   UNL     1       2.548   4.156  17.666  0.00  0.00    +0.000 C 
ATOM     21  N   UNL     1       1.938   4.408  18.982  0.00  0.00    +0.000 NA
ENDBRANCH  14  21
ENDBRANCH   1  14
BRANCH  13  22
ATOM     22  C   UNL     1       3.022   7.431  17.520  0.00  0.00    +0.000 C 
BRANCH  22  23
ATOM     23  C   UNL     1       4.500   7.834  17.453  0.00  0.00    +0.000 C 
BRANCH  23  24
ATOM     24  C   UNL     1       5.456   6.724  17.894  0.00  0.00    +0.000 C 
BRANCH  24  25
ATOM     25  C   UNL     1       5.852   5.828  16.743  0.00  0.00    +0.000 A 
ATOM     26  C   UNL     1       6.877   4.885  16.901  0.00  0.00    +0.000 A 
ATOM     27  C   UNL     1       7.253   4.061  15.836  0.00  0.00    +0.000 A 
ATOM     28  C   UNL     1       6.610   4.173  14.606  0.00  0.00    +0.000 A 
ATOM     29  C   UNL     1       5.595   5.111  14.437  0.00  0.00    +0.000 A 
ATOM     30  C   UNL     1       5.218   5.939  15.498  0.00  0.00    +0.000 A 
ENDBRANCH  24  25
ENDBRANCH  23  24
ENDBRANCH  22  23
ENDBRANCH  13  22
TORSDOF 6
ENDMDL
