MODEL 1
REMARK VINA RESULT:      -8.4      0.000      0.000
REMARK  Name = 
REMARK  6 active torsions:
REMARK  status: ('A' for Active; 'I' for Inactive)
REMARK    1  A    between atoms: C_1  and  C_2
REMARK    2  A    between atoms: C_6  and  N_7
REMARK    3  A    between atoms: N_7  and  C_8
REMARK    4  A    between atoms: N_11  and  C_12
REMARK    5  A    between atoms: C_19  and  N_20
REMARK    6  A    between atoms: C_23  and  C_24
REMARK                            x       y       z     vdW  Elec       q    Type
REMARK                         _______ _______ _______ _____ _____    ______ ____
ROOT
ATOM      1  C   UNL     1       2.867   7.687  18.150  0.00  0.00    +0.000 A 
ATOM      2  N   UNL     1       2.870   6.481  18.754  0.00  0.00    +0.000 NA
ATOM      3  C   UNL     1       2.185   6.319  19.897  0.00  0.00    +0.000 A 
ATOM      4  N   UNL     1       2.216   5.095  20.545  0.00  0.00    +0.000 N 
ATOM      5  N   UNL     1       1.530   7.311  20.501  0.00  0.00    +0.000 NA
ATOM      6  C   UNL     1       1.493   8.500  19.850  0.00  0.00    +0.000 A 
ATOM      7  C   UNL     1       2.103   8.736  18.638  0.00  0.00    +0.000 A 
ATOM      8  H   UNL     1       1.979   5.216  21.524  0.00  0.00    +0.000 HD
ENDROOT
BRANCH   4   9
ATOM      9  C   UNL     1       3.277   4.152  20.177  0.00  0.00    +0.000 C 
ATOM     10  C   UNL     1       3.602   4.229  18.678  0.00  0.00    +0.000 C 
ATOM     11  C   UNL     1       2.808   3.292  17.787  0.00  0.00    +0.000 C 
ATOM     12  F   UNL     1       1.578   3.819  17.560  0.00  0.00    +0.000 F 
ATOM     13  F   UNL     1       3.421   3.219  16.575  0.00  0.00    +0.000 F 
ATOM     14  C   UNL     1       2.647   1.889  18.334  0.00  0.00    +0.000 C 
ATOM     15  C   UNL     1       2.063   1.927  19.737  0.00  0.00    +0.000 C 
ATOM     16  C   UNL     1       3.000   2.697  20.672  0.00  0.00    +0.000 C 
BRANCH  16  17
ATOM     17  N   UNL     1       2.478   2.598  22.041  0.00  0.00    +0.000 NA
ATOM     18  H   UNL     1       3.156   2.100  22.621  0.00  0.00    +0.000 HD
ATOM     19  H   UNL     1       1.662   1.978  22.029  0.00  0.00    +0.000 HD
ENDBRANCH  16  17
ENDBRANCH   4   9
BRANCH   7  20
ATOM     20  C   UNL     1       1.894  10.046  17.994  0.00  0.00    +0.000 C 
ATOM     21  N   UNL     1       0.625  10.559  17.991  0.00  0.00    +0.000 N 
ATOM     22  O   UNL     1       2.834  10.657  17.502  0.00  0.00    +0.000 OA
ATOM     23  H   UNL     1      -0.174   9.972  18.204  0.00  0.00    +0.000 HD
ATOM     24  H   UNL     1       0.460  11.336  17.360  0.00  0.00    +0.000 HD
ENDBRANCH   7  20
BRANCH   1  25
ATOM     25  N   UNL     1       3.703   7.766  17.025  0.00  0.00    +0.000 N 
ATOM     26  H   UNL     1       3.122   7.897  16.200  0.00  0.00    +0.000 HD
BRANCH  25  32
ATOM     27  C   UNL     1       5.970   4.096  14.556  0.00  0.00    +0.000 C 
ATOM     28  C   UNL     1       6.013   5.199  15.574  0.00  0.00    +0.000 A 
ATOM     29  C   UNL     1       7.105   5.354  16.431  0.00  0.00    +0.000 A 
ATOM     30  C   UNL     1       7.101   6.357  17.399  0.00  0.00    +0.000 A 
ATOM     31  C   UNL     1       5.989   7.190  17.541  0.00  0.00    +0.000 A 
ATOM     32  C   UNL     1       4.863   7.018  16.728  0.00  0.00    +0.000 A 
ATOM     33  C   UNL     1       4.913   6.058  15.709  0.00  0.00    +0.000 A 
ENDBRANCH  25  32
ENDBRANCH   1  25
TORSDOF 5
ENDMDL
MODEL 2
REMARK VINA RESULT:      -8.3      3.211      5.794
REMARK  Name = 
REMARK  6 active torsions:
REMARK  status: ('A' for Active; 'I' for Inactive)
REMARK    1  A    between atoms: C_1  and  C_2
REMARK    2  A    between atoms: C_6  and  N_7
REMARK    3  A    between atoms: N_7  and  C_8
REMARK    4  A    between atoms: N_11  and  C_12
REMARK    5  A    between atoms: C_19  and  N_20
REMARK    6  A    between atoms: C_23  and  C_24
REMARK                            x       y       z     vdW  Elec       q    Type
REMARK                         _______ _______ _______ _____ _____    ______ ____
ROOT
ATOM      1  C   UNL     1       4.134   4.235  19.726  0.00  0.00    +0.000 A 
ATOM      2  N   UNL     1       3.441   5.346  20.053  0.00  0.00    +0.000 NA
ATOM      3  C   UNL     1       2.102   5.287  20.115  0.00  0.00    +0.000 A 
ATOM      4  N   UNL     1       1.380   6.432  20.411  0.00  0.00    +0.000 N 
ATOM      5  N   UNL     1       1.406   4.188  19.822  0.00  0.00    +0.000 NA
ATOM      6  C   UNL     1       2.122   3.069  19.550  0.00  0.00    +0.000 A 
ATOM      7  C   UNL     1       3.499   3.018  19.537  0.00  0.00    +0.000 A 
ATOM      8  H   UNL     1       0.427   6.336  20.076  0.00  0.00    +0.000 HD
ENDROOT
BRANCH   4   9
ATOM      9  C   UNL     1       2.059   7.724  20.273  0.00  0.00    +0.000 C 
ATOM     10  C   UNL     1       1.534   8.747  21.291  0.00  0.00    +0.000 C 
ATOM     11  C   UNL     1       0.367   9.596  20.823  0.00  0.00    +0.000 C 
ATOM     12  F   UNL     1      -0.783   8.882  20.928  0.00  0.00    +0.000 F 
ATOM     13  F   UNL     1       0.235  10.657  21.663  0.00  0.00    +0.000 F 
ATOM     14  C   UNL     1       0.494  10.114  19.405  0.00  0.00    +0.000 C 
ATOM     15  C   UNL     1       0.752   8.968  18.440  0.00  0.00    +0.000 C 
ATOM     16  C   UNL     1       2.059   8.261  18.806  0.00  0.00    +0.000 C 
BRANCH  16  17
ATOM     17  N   UNL     1       2.349   7.253  17.778  0.00  0.00    +0.000 NA
ATOM     18  H   UNL     1       3.357   7.090  17.745  0.00  0.00    +0.000 HD
ATOM     19  H   UNL     1       2.135   7.658  16.863  0.00  0.00    +0.000 HD
ENDBRANCH  16  17
ENDBRANCH   4   9
BRANCH   7  20
ATOM     20  C   UNL     1       4.147   1.710  19.328  0.00  0.00    +0.000 C 
ATOM     21  N   UNL     1       3.737   0.960  18.259  0.00  0.00    +0.000 N 
ATOM     22  O   UNL     1       5.036   1.327  20.077  0.00  0.00    +0.000 OA
ATOM     23  H   UNL     1       2.874   1.175  17.773  0.00  0.00    +0.000 HD
ATOM     24  H   UNL     1       4.026  -0.012  18.261  0.00  0.00    +0.000 HD
ENDBRANCH   7  20
BRANCH   1  25
ATOM     25  N   UNL     1       5.516   4.443  19.586  0.00  0.00    +0.000 N 
ATOM     26  H   UNL     1       5.892   4.728  20.488  0.00  0.00    +0.000 HD
BRANCH  25  32
ATOM     27  C   UNL     1       8.011   8.291  17.672  0.00  0.00    +0.000 C 
ATOM     28  C   UNL     1       7.412   6.924  17.517  0.00  0.00    +0.000 A 
ATOM     29  C   UNL     1       7.305   6.316  16.263  0.00  0.00    +0.000 A 
ATOM     30  C   UNL     1       6.702   5.065  16.140  0.00  0.00    +0.000 A 
ATOM     31  C   UNL     1       6.169   4.429  17.263  0.00  0.00    +0.000 A 
ATOM     32  C   UNL     1       6.219   5.043  18.519  0.00  0.00    +0.000 A 
ATOM     33  C   UNL     1       6.896   6.264  18.641  0.00  0.00    +0.000 A 
ENDBRANCH  25  32
ENDBRANCH   1  25
TORSDOF 5
ENDMDL
MODEL 3
REMARK VINA RESULT:      -8.2      3.247      5.660
REMARK  Name = 
REMARK  6 active torsions:
REMARK  status: ('A' for Active; 'I' for Inactive)
REMARK    1  A    between atoms: C_1  and  C_2
REMARK    2  A    between atoms: C_6  and  N_7
REMARK    3  A    between atoms: N_7  and  C_8
REMARK    4  A    between atoms: N_11  and  C_12
REMARK    5  A    between atoms: C_19  and  N_20
REMARK    6  A    between atoms: C_23  and  C_24
REMARK                            x       y       z     vdW  Elec       q    Type
REMARK                         _______ _______ _______ _____ _____    ______ ____
ROOT
ATOM      1  C   UNL     1       3.787   4.619  19.769  0.00  0.00    +0.000 A 
ATOM      2  N   UNL     1       3.148   5.723  20.208  0.00  0.00    +0.000 NA
ATOM      3  C   UNL     1       1.825   5.670  20.424  0.00  0.00    +0.000 A 
ATOM      4  N   UNL     1       1.153   6.809  20.837  0.00  0.00    +0.000 N 
ATOM      5  N   UNL     1       1.089   4.584  20.183  0.00  0.00    +0.000 NA
ATOM      6  C   UNL     1       1.758   3.470  19.796  0.00  0.00    +0.000 A 
ATOM      7  C   UNL     1       3.124   3.412  19.620  0.00  0.00    +0.000 A 
ATOM      8  H   UNL     1       0.167   6.730  20.614  0.00  0.00    +0.000 HD
ENDROOT
BRANCH   4   9
ATOM      9  C   UNL     1       1.823   8.101  20.658  0.00  0.00    +0.000 C 
ATOM     10  C   UNL     1       1.429   9.097  21.759  0.00  0.00    +0.000 C 
ATOM     11  C   UNL     1       0.223   9.965  21.455  0.00  0.00    +0.000 C 
ATOM     12  F   UNL     1      -0.913   9.255  21.672  0.00  0.00    +0.000 F 
ATOM     13  F   UNL     1       0.199  11.002  22.335  0.00  0.00    +0.000 F 
ATOM     14  C   UNL     1       0.189  10.525  20.048  0.00  0.00    +0.000 C 
ATOM     15  C   UNL     1       0.323   9.407  19.026  0.00  0.00    +0.000 C 
ATOM     16  C   UNL     1       1.658   8.681  19.217  0.00  0.00    +0.000 C 
BRANCH  16  17
ATOM     17  N   UNL     1       1.817   7.703  18.134  0.00  0.00    +0.000 NA
ATOM     18  H   UNL     1       2.621   7.968  17.561  0.00  0.00    +0.000 HD
ATOM     19  H   UNL     1       1.020   7.796  17.499  0.00  0.00    +0.000 HD
ENDBRANCH  16  17
ENDBRANCH   4   9
BRANCH   7  20
ATOM     20  C   UNL     1       3.730   2.107  19.297  0.00  0.00    +0.000 C 
ATOM     21  N   UNL     1       3.120   1.339  18.342  0.00  0.00    +0.000 N 
ATOM     22  O   UNL     1       4.758   1.742  19.854  0.00  0.00    +0.000 OA
ATOM     23  H   UNL     1       2.173   1.539  18.041  0.00  0.00    +0.000 HD
ATOM     24  H   UNL     1       3.414   0.370  18.296  0.00  0.00    +0.000 HD
ENDBRANCH   7  20
BRANCH   1  25
ATOM     25  N   UNL     1       5.146   4.823  19.474  0.00  0.00    +0.000 N 
ATOM     26  H   UNL     1       5.572   5.323  20.251  0.00  0.00    +0.000 HD
BRANCH  25  32
ATOM     27  C   UNL     1       6.052   3.870  14.681  0.00  0.00    +0.000 C 
ATOM     28  C   UNL     1       6.255   4.726  15.897  0.00  0.00    +0.000 A 
ATOM     29  C   UNL     1       7.226   5.730  15.925  0.00  0.00    +0.000 A 
ATOM     30  C   UNL     1       7.428   6.480  17.083  0.00  0.00    +0.000 A 
ATOM     31  C   UNL     1       6.685   6.208  18.233  0.00  0.00    +0.000 A 
ATOM     32  C   UNL     1       5.743   5.172  18.243  0.00  0.00    +0.000 A 
ATOM     33  C   UNL     1       5.497   4.479  17.051  0.00  0.00    +0.000 A 
ENDBRANCH  25  32
ENDBRANCH   1  25
TORSDOF 5
ENDMDL
MODEL 4
REMARK VINA RESULT:      -8.0      2.809      6.109
REMARK  Name = 
REMARK  6 active torsions:
REMARK  status: ('A' for Active; 'I' for Inactive)
REMARK    1  A    between atoms: C_1  and  C_2
REMARK    2  A    between atoms: C_6  and  N_7
REMARK    3  A    between atoms: N_7  and  C_8
REMARK    4  A    between atoms: N_11  and  C_12
REMARK    5  A    between atoms: C_19  and  N_20
REMARK    6  A    between atoms: C_23  and  C_24
REMARK                            x       y       z     vdW  Elec       q    Type
REMARK                         _______ _______ _______ _____ _____    ______ ____
ROOT
ATOM      1  C   UNL     1       2.970   4.627  19.677  0.00  0.00    +0.000 A 
ATOM      2  N   UNL     1       3.567   4.746  18.473  0.00  0.00    +0.000 NA
ATOM      3  C   UNL     1       3.884   3.637  17.788  0.00  0.00    +0.000 A 
ATOM      4  N   UNL     1       4.534   3.748  16.569  0.00  0.00    +0.000 N 
ATOM      5  N   UNL     1       3.680   2.406  18.258  0.00  0.00    +0.000 NA
ATOM      6  C   UNL     1       3.029   2.308  19.444  0.00  0.00    +0.000 A 
ATOM      7  C   UNL     1       2.601   3.391  20.181  0.00  0.00    +0.000 A 
ATOM      8  H   UNL     1       5.016   2.882  16.354  0.00  0.00    +0.000 HD
ENDROOT
BRANCH   4   9
ATOM      9  C   UNL     1       5.182   5.025  16.253  0.00  0.00    +0.000 C 
ATOM     10  C   UNL     1       5.336   5.217  14.737  0.00  0.00    +0.000 C 
ATOM     11  C   UNL     1       6.631   4.700  14.140  0.00  0.00    +0.000 C 
ATOM     12  F   UNL     1       6.548   3.356  13.974  0.00  0.00    +0.000 F 
ATOM     13  F   UNL     1       6.780   5.230  12.896  0.00  0.00    +0.000 F 
ATOM     14  C   UNL     1       7.870   5.018  14.952  0.00  0.00    +0.000 C 
ATOM     15  C   UNL     1       7.704   4.538  16.386  0.00  0.00    +0.000 C 
ATOM     16  C   UNL     1       6.513   5.245  17.039  0.00  0.00    +0.000 C 
BRANCH  16  17
ATOM     17  N   UNL     1       6.466   4.865  18.457  0.00  0.00    +0.000 NA
ATOM     18  H   UNL     1       7.117   5.452  18.981  0.00  0.00    +0.000 HD
ATOM     19  H   UNL     1       6.853   3.922  18.549  0.00  0.00    +0.000 HD
ENDBRANCH  16  17
ENDBRANCH   4   9
BRANCH   7  20
ATOM     20  C   UNL     1       1.814   3.136  21.401  0.00  0.00    +0.000 C 
ATOM     21  N   UNL     1       0.565   2.594  21.254  0.00  0.00    +0.000 N 
ATOM     22  O   UNL     1       2.279   3.383  22.507  0.00  0.00    +0.000 OA
ATOM     23  H   UNL     1       0.105   2.588  20.351  0.00  0.00    +0.000 HD
ATOM     24  H   UNL     1      -0.037   2.636  22.069  0.00  0.00    +0.000 HD
ENDBRANCH   7  20
BRANCH   1  25
ATOM     25  N   UNL     1       2.786   5.848  20.348  0.00  0.00    +0.000 N 
ATOM     26  H   UNL     1       2.382   5.656  21.262  0.00  0.00    +0.000 HD
BRANCH  25  32
ATOM     27  C   UNL     1       0.083   9.995  20.792  0.00  0.00    +0.000 C 
ATOM     28  C   UNL     1       0.992   9.116  19.983  0.00  0.00    +0.000 A 
ATOM     29  C   UNL     1       1.215   9.357  18.625  0.00  0.00    +0.000 A 
ATOM     30  C   UNL     1       2.027   8.498  17.884  0.00  0.00    +0.000 A 
ATOM     31  C   UNL     1       2.591   7.373  18.487  0.00  0.00    +0.000 A 
ATOM     32  C   UNL     1       2.338   7.084  19.833  0.00  0.00    +0.000 A 
ATOM     33  C   UNL     1       1.585   7.996  20.583  0.00  0.00    +0.000 A 
ENDBRANCH  25  32
ENDBRANCH   1  25
TORSDOF 5
ENDMDL
MODEL 5
REMARK VINA RESULT:      -8.0      3.362      7.050
REMARK  Name = 
REMARK  6 active torsions:
REMARK  status: ('A' for Active; 'I' for Inactive)
REMARK    1  A    between atoms: C_1  and  C_2
REMARK    2  A    between atoms: C_6  and  N_7
REMARK    3  A    between atoms: N_7  and  C_8
REMARK    4  A    between atoms: N_11  and  C_12
REMARK    5  A    between atoms: C_19  and  N_20
REMARK    6  A    between atoms: C_23  and  C_24
REMARK                            x       y       z     vdW  Elec       q    Type
REMARK                         _______ _______ _______ _____ _____    ______ ____
ROOT
ATOM      1  C   UNL     1       2.580   7.117  19.150  0.00  0.00    +0.000 A 
ATOM      2  N   UNL     1       1.705   8.134  19.002  0.00  0.00    +0.000 NA
ATOM      3  C   UNL     1       1.854   8.980  17.973  0.00  0.00    +0.000 A 
ATOM      4  N   UNL     1       0.985  10.051  17.835  0.00  0.00    +0.000 N 
ATOM      5  N   UNL     1       2.861   8.899  17.101  0.00  0.00    +0.000 NA
ATOM      6  C   UNL     1       3.696   7.839  17.234  0.00  0.00    +0.000 A 
ATOM      7  C   UNL     1       3.575   6.879  18.215  0.00  0.00    +0.000 A 
ATOM      8  H   UNL     1       1.414  10.774  17.268  0.00  0.00    +0.000 HD
ENDROOT
BRANCH   4   9
ATOM      9  C   UNL     1       0.186  10.437  19.002  0.00  0.00    +0.000 C 
ATOM     10  C   UNL     1      -1.294  10.069  18.817  0.00  0.00    +0.000 C 
ATOM     11  C   UNL     1      -2.161  11.141  18.184  0.00  0.00    +0.000 C 
ATOM     12  F   UNL     1      -1.978  11.135  16.839  0.00  0.00    +0.000 F 
ATOM     13  F   UNL     1      -3.467  10.825  18.393  0.00  0.00    +0.000 F 
ATOM     14  C   UNL     1      -1.912  12.541  18.707  0.00  0.00    +0.000 C 
ATOM     15  C   UNL     1      -0.438  12.898  18.593  0.00  0.00    +0.000 C 
ATOM     16  C   UNL     1       0.401  11.925  19.425  0.00  0.00    +0.000 C 
BRANCH  16  17
ATOM     17  N   UNL     1       1.797  12.378  19.406  0.00  0.00    +0.000 NA
ATOM     18  H   UNL     1       2.284  11.996  20.219  0.00  0.00    +0.000 HD
ATOM     19  H   UNL     1       1.808  13.390  19.565  0.00  0.00    +0.000 HD
ENDBRANCH  16  17
ENDBRANCH   4   9
BRANCH   7  20
ATOM     20  C   UNL     1       4.491   5.725  18.179  0.00  0.00    +0.000 C 
ATOM     21  N   UNL     1       4.453   4.915  17.076  0.00  0.00    +0.000 N 
ATOM     22  O   UNL     1       5.273   5.519  19.099  0.00  0.00    +0.000 OA
ATOM     23  H   UNL     1       3.676   4.959  16.425  0.00  0.00    +0.000 HD
ATOM     24  H   UNL     1       4.918   4.018  17.166  0.00  0.00    +0.000 HD
ENDBRANCH   7  20
BRANCH   1  25
ATOM     25  N   UNL     1       2.390   6.364  20.321  0.00  0.00    +0.000 N 
ATOM     26  H   UNL     1       3.034   6.704  21.031  0.00  0.00    +0.000 HD
BRANCH  25  32
ATOM     27  C   UNL     1       0.426   2.125  18.624  0.00  0.00    +0.000 C 
ATOM     28  C   UNL     1       1.170   2.879  19.688  0.00  0.00    +0.000 A 
ATOM     29  C   UNL     1       1.425   2.309  20.938  0.00  0.00    +0.000 A 
ATOM     30  C   UNL     1       2.077   3.047  21.925  0.00  0.00    +0.000 A 
ATOM     31  C   UNL     1       2.447   4.372  21.682  0.00  0.00    +0.000 A 
ATOM     32  C   UNL     1       2.154   4.978  20.455  0.00  0.00    +0.000 A 
ATOM     33  C   UNL     1       1.569   4.202  19.447  0.00  0.00    +0.000 A 
ENDBRANCH  25  32
ENDBRANCH   1  25
TORSDOF 5
ENDMDL
MODEL 6
REMARK VINA RESULT:      -7.9      3.329      6.224
REMARK  Name = 
REMARK  6 active torsions:
REMARK  status: ('A' for Active; 'I' for Inactive)
REMARK    1  A    between atoms: C_1  and  C_2
REMARK    2  A    between atoms: C_6  and  N_7
REMARK    3  A    between atoms: N_7  and  C_8
REMARK    4  A    between atoms: N_11  and  C_12
REMARK    5  A    between atoms: C_19  and  N_20
REMARK    6  A    between atoms: C_23  and  C_24
REMARK                            x       y       z     vdW  Elec       q    Type
REMARK                         _______ _______ _______ _____ _____    ______ ____
ROOT
ATOM      1  C   UNL     1       2.496   6.423  18.864  0.00  0.00    +0.000 A 
ATOM      2  N   UNL     1       2.145   7.725  18.831  0.00  0.00    +0.000 NA
ATOM      3  C   UNL     1       1.534   8.266  19.896  0.00  0.00    +0.000 A 
ATOM      4  N   UNL     1       1.134   9.591  19.856  0.00  0.00    +0.000 N 
ATOM      5  N   UNL     1       1.209   7.565  20.983  0.00  0.00    +0.000 NA
ATOM      6  C   UNL     1       1.619   6.273  21.019  0.00  0.00    +0.000 A 
ATOM      7  C   UNL     1       2.317   5.656  20.004  0.00  0.00    +0.000 A 
ATOM      8  H   UNL     1       0.399   9.752  20.536  0.00  0.00    +0.000 HD
ENDROOT
BRANCH   4   9
ATOM      9  C   UNL     1       1.047  10.240  18.544  0.00  0.00    +0.000 C 
ATOM     10  C   UNL     1       2.237  11.181  18.302  0.00  0.00    +0.000 C 
ATOM     11  C   UNL     1       2.036  12.618  18.746  0.00  0.00    +0.000 C 
ATOM     12  F   UNL     1       2.221  12.708  20.088  0.00  0.00    +0.000 F 
ATOM     13  F   UNL     1       3.000  13.390  18.176  0.00  0.00    +0.000 F 
ATOM     14  C   UNL     1       0.681  13.200  18.398  0.00  0.00    +0.000 C 
ATOM     15  C   UNL     1      -0.433  12.309  18.925  0.00  0.00    +0.000 C 
ATOM     16  C   UNL     1      -0.336  10.920  18.289  0.00  0.00    +0.000 C 
BRANCH  16  17
ATOM     17  N   UNL     1      -1.500  10.131  18.710  0.00  0.00    +0.000 NA
ATOM     18  H   UNL     1      -2.211  10.168  17.976  0.00  0.00    +0.000 HD
ATOM     19  H   UNL     1      -1.939  10.606  19.503  0.00  0.00    +0.000 HD
ENDBRANCH  16  17
ENDBRANCH   4   9
BRANCH   7  20
ATOM     20  C   UNL     1       2.791   4.277  20.221  0.00  0.00    +0.000 C 
ATOM     21  N   UNL     1       1.937   3.398  20.832  0.00  0.00    +0.000 N 
ATOM     22  O   UNL     1       3.903   3.932  19.843  0.00  0.00    +0.000 OA
ATOM     23  H   UNL     1       1.116   3.729  21.327  0.00  0.00    +0.000 HD
ATOM     24  H   UNL     1       2.352   2.537  21.170  0.00  0.00    +0.000 HD
ENDBRANCH   7  20
BRANCH   1  25
ATOM     25  N   UNL     1       3.028   5.943  17.656  0.00  0.00    +0.000 N 
ATOM     26  H   UNL     1       2.460   5.159  17.342  0.00  0.00    +0.000 HD
BRANCH  25  32
ATOM     27  C   UNL     1       7.699   7.633  17.497  0.00  0.00    +0.000 C 
ATOM     28  C   UNL     1       6.682   6.588  17.140  0.00  0.00    +0.000 A 
ATOM     29  C   UNL     1       6.974   5.572  16.227  0.00  0.00    +0.000 A 
ATOM     30  C   UNL     1       5.996   4.641  15.876  0.00  0.00    +0.000 A 
ATOM     31  C   UNL     1       4.710   4.742  16.408  0.00  0.00    +0.000 A 
ATOM     32  C   UNL     1       4.381   5.783  17.284  0.00  0.00    +0.000 A 
ATOM     33  C   UNL     1       5.393   6.664  17.687  0.00  0.00    +0.000 A 
ENDBRANCH  25  32
ENDBRANCH   1  25
TORSDOF 5
ENDMDL
MODEL 7
REMARK VINA RESULT:      -7.9      9.014     11.896
REMARK  Name = 
REMARK  6 active torsions:
REMARK  status: ('A' for Active; 'I' for Inactive)
REMARK    1  A    between atoms: C_1  and  C_2
REMARK    2  A    between atoms: C_6  and  N_7
REMARK    3  A    between atoms: N_7  and  C_8
REMARK    4  A    between atoms: N_11  and  C_12
REMARK    5  A    between atoms: C_19  and  N_20
REMARK    6  A    between atoms: C_23  and  C_24
REMARK                            x       y       z     vdW  Elec       q    Type
REMARK                         _______ _______ _______ _____ _____    ______ ____
ROOT
ATOM      1  C   UNL     1      -5.174  12.438  20.005  0.00  0.00    +0.000 A 
ATOM      2  N   UNL     1      -4.644  13.082  21.066  0.00  0.00    +0.000 NA
ATOM      3  C   UNL     1      -5.281  13.034  22.245  0.00  0.00    +0.000 A 
ATOM      4  N   UNL     1      -4.767  13.725  23.330  0.00  0.00    +0.000 N 
ATOM      5  N   UNL     1      -6.449  12.414  22.418  0.00  0.00    +0.000 NA
ATOM      6  C   UNL     1      -6.936  11.727  21.355  0.00  0.00    +0.000 A 
ATOM      7  C   UNL     1      -6.313  11.659  20.128  0.00  0.00    +0.000 A 
ATOM      8  H   UNL     1      -5.499  13.898  24.010  0.00  0.00    +0.000 HD
ENDROOT
BRANCH   4   9
ATOM      9  C   UNL     1      -3.776  14.773  23.065  0.00  0.00    +0.000 C 
ATOM     10  C   UNL     1      -2.466  14.514  23.823  0.00  0.00    +0.000 C 
ATOM     11  C   UNL     1      -2.377  15.130  25.207  0.00  0.00    +0.000 C 
ATOM     12  F   UNL     1      -3.057  14.356  26.091  0.00  0.00    +0.000 F 
ATOM     13  F   UNL     1      -1.077  15.115  25.608  0.00  0.00    +0.000 F 
ATOM     14  C   UNL     1      -2.895  16.550  25.298  0.00  0.00    +0.000 C 
ATOM     15  C   UNL     1      -4.313  16.635  24.757  0.00  0.00    +0.000 C 
ATOM     16  C   UNL     1      -4.338  16.215  23.285  0.00  0.00    +0.000 C 
BRANCH  16  17
ATOM     17  N   UNL     1      -5.689  16.439  22.758  0.00  0.00    +0.000 NA
ATOM     18  H   UNL     1      -6.319  15.730  23.140  0.00  0.00    +0.000 HD
ATOM     19  H   UNL     1      -5.678  16.244  21.753  0.00  0.00    +0.000 HD
ENDBRANCH  16  17
ENDBRANCH   4   9
BRANCH   7  20
ATOM     20  C   UNL     1      -6.902  10.790  19.094  0.00  0.00    +0.000 C 
ATOM     21  N   UNL     1      -7.322   9.543  19.471  0.00  0.00    +0.000 N 
ATOM     22  O   UNL     1      -7.028  11.188  17.942  0.00  0.00    +0.000 OA
ATOM     23  H   UNL     1      -7.031   9.142  20.355  0.00  0.00    +0.000 HD
ATOM     24  H   UNL     1      -7.512   8.891  18.718  0.00  0.00    +0.000 HD
ENDBRANCH   7  20
BRANCH   1  25
ATOM     25  N   UNL     1      -4.479  12.649  18.802  0.00  0.00    +0.000 N 
ATOM     26  H   UNL     1      -5.119  13.067  18.130  0.00  0.00    +0.000 HD
BRANCH  25  32
ATOM     27  C   UNL     1      -3.060   9.881  14.926  0.00  0.00    +0.000 C 
ATOM     28  C   UNL     1      -2.807  10.410  16.308  0.00  0.00    +0.000 A 
ATOM     29  C   UNL     1      -1.774   9.904  17.101  0.00  0.00    +0.000 A 
ATOM     30  C   UNL     1      -1.590  10.378  18.399  0.00  0.00    +0.000 A 
ATOM     31  C   UNL     1      -2.458  11.335  18.927  0.00  0.00    +0.000 A 
ATOM     32  C   UNL     1      -3.531  11.817  18.168  0.00  0.00    +0.000 A 
ATOM     33  C   UNL     1      -3.658  11.389  16.840  0.00  0.00    +0.000 A 
ENDBRANCH  25  32
ENDBRANCH   1  25
TORSDOF 5
ENDMDL
MODEL 8
REMARK VINA RESULT:      -7.9      2.806      6.084
REMARK  Name = 
REMARK  6 active torsions:
REMARK  status: ('A' for Active; 'I' for Inactive)
REMARK    1  A    between atoms: C_1  and  C_2
REMARK    2  A    between atoms: C_6  and  N_7
REMARK    3  A    between atoms: N_7  and  C_8
REMARK    4  A    between atoms: N_11  and  C_12
REMARK    5  A    between atoms: C_19  and  N_20
REMARK    6  A    between atoms: C_23  and  C_24
REMARK                            x       y       z     vdW  Elec       q    Type
REMARK                         _______ _______ _______ _____ _____    ______ ____
ROOT
ATOM      1  C   UNL     1       3.021   4.661  19.730  0.00  0.00    +0.000 A 
ATOM      2  N   UNL     1       3.602   4.819  18.522  0.00  0.00    +0.000 NA
ATOM      3  C   UNL     1       3.838   3.738  17.763  0.00  0.00    +0.000 A 
ATOM      4  N   UNL     1       4.470   3.885  16.540  0.00  0.00    +0.000 N 
ATOM      5  N   UNL     1       3.567   2.494  18.162  0.00  0.00    +0.000 NA
ATOM      6  C   UNL     1       2.934   2.362  19.354  0.00  0.00    +0.000 A 
ATOM      7  C   UNL     1       2.586   3.420  20.165  0.00  0.00    +0.000 A 
ATOM      8  H   UNL     1       4.894   3.007  16.261  0.00  0.00    +0.000 HD
ENDROOT
BRANCH   4   9
ATOM      9  C   UNL     1       5.189   5.138  16.288  0.00  0.00    +0.000 C 
ATOM     10  C   UNL     1       5.369   5.391  14.784  0.00  0.00    +0.000 C 
ATOM     11  C   UNL     1       6.641   4.832  14.173  0.00  0.00    +0.000 C 
ATOM     12  F   UNL     1       6.486   3.503  13.944  0.00  0.00    +0.000 F 
ATOM     13  F   UNL     1       6.831   5.409  12.956  0.00  0.00    +0.000 F 
ATOM     14  C   UNL     1       7.886   5.044  15.009  0.00  0.00    +0.000 C 
ATOM     15  C   UNL     1       7.680   4.509  16.417  0.00  0.00    +0.000 C 
ATOM     16  C   UNL     1       6.523   5.249  17.094  0.00  0.00    +0.000 C 
BRANCH  16  17
ATOM     17  N   UNL     1       6.440   4.808  18.492  0.00  0.00    +0.000 NA
ATOM     18  H   UNL     1       6.709   3.824  18.547  0.00  0.00    +0.000 HD
ATOM     19  H   UNL     1       5.455   4.811  18.771  0.00  0.00    +0.000 HD
ENDBRANCH  16  17
ENDBRANCH   4   9
BRANCH   7  20
ATOM     20  C   UNL     1       1.807   3.137  21.384  0.00  0.00    +0.000 C 
ATOM     21  N   UNL     1       0.582   2.545  21.236  0.00  0.00    +0.000 N 
ATOM     22  O   UNL     1       2.260   3.406  22.490  0.00  0.00    +0.000 OA
ATOM     23  H   UNL     1       0.124   2.518  20.332  0.00  0.00    +0.000 HD
ATOM     24  H   UNL     1      -0.023   2.565  22.050  0.00  0.00    +0.000 HD
ENDBRANCH   7  20
BRANCH   1  25
ATOM     25  N   UNL     1       2.924   5.847  20.477  0.00  0.00    +0.000 N 
ATOM     26  H   UNL     1       2.949   5.607  21.466  0.00  0.00    +0.000 HD
BRANCH  25  32
ATOM     27  C   UNL     1       1.835   9.894  17.807  0.00  0.00    +0.000 C 
ATOM     28  C   UNL     1       1.570   9.006  18.988  0.00  0.00    +0.000 A 
ATOM     29  C   UNL     1       0.708   9.399  20.013  0.00  0.00    +0.000 A 
ATOM     30  C   UNL     1       0.515   8.576  21.123  0.00  0.00    +0.000 A 
ATOM     31  C   UNL     1       1.211   7.371  21.231  0.00  0.00    +0.000 A 
ATOM     32  C   UNL     1       2.120   6.982  20.240  0.00  0.00    +0.000 A 
ATOM     33  C   UNL     1       2.245   7.781  19.096  0.00  0.00    +0.000 A 
ENDBRANCH  25  32
ENDBRANCH   1  25
TORSDOF 5
ENDMDL
MODEL 9
REMARK VINA RESULT:      -7.8      0.605      1.393
REMARK  Name = 
REMARK  6 active torsions:
REMARK  status: ('A' for Active; 'I' for Inactive)
REMARK    1  A    between atoms: C_1  and  C_2
REMARK    2  A    between atoms: C_6  and  N_7
REMARK    3  A    between atoms: N_7  and  C_8
REMARK    4  A    between atoms: N_11  and  C_12
REMARK    5  A    between atoms: C_19  and  N_20
REMARK    6  A    between atoms: C_23  and  C_24
REMARK                            x       y       z     vdW  Elec       q    Type
REMARK                         _______ _______ _______ _____ _____    ______ ____
ROOT
ATOM      1  C   UNL     1       2.625   7.742  18.393  0.00  0.00    +0.000 A 
ATOM      2  N   UNL     1       2.530   6.544  19.005  0.00  0.00    +0.000 NA
ATOM      3  C   UNL     1       1.791   6.435  20.119  0.00  0.00    +0.000 A 
ATOM      4  N   UNL     1       1.721   5.218  20.778  0.00  0.00    +0.000 N 
ATOM      5  N   UNL     1       1.173   7.471  20.688  0.00  0.00    +0.000 NA
ATOM      6  C   UNL     1       1.234   8.653  20.028  0.00  0.00    +0.000 A 
ATOM      7  C   UNL     1       1.907   8.840  18.840  0.00  0.00    +0.000 A 
ATOM      8  H   UNL     1       1.452   5.363  21.745  0.00  0.00    +0.000 HD
ENDROOT
BRANCH   4   9
ATOM      9  C   UNL     1       2.737   4.210  20.461  0.00  0.00    +0.000 C 
ATOM     10  C   UNL     1       3.157   4.279  18.986  0.00  0.00    +0.000 C 
ATOM     11  C   UNL     1       2.358   3.406  18.036  0.00  0.00    +0.000 C 
ATOM     12  F   UNL     1       1.182   4.016  17.742  0.00  0.00    +0.000 F 
ATOM     13  F   UNL     1       3.038   3.303  16.862  0.00  0.00    +0.000 F 
ATOM     14  C   UNL     1       2.072   2.012  18.553  0.00  0.00    +0.000 C 
ATOM     15  C   UNL     1       1.407   2.076  19.919  0.00  0.00    +0.000 C 
ATOM     16  C   UNL     1       2.334   2.772  20.919  0.00  0.00    +0.000 C 
BRANCH  16  17
ATOM     17  N   UNL     1       1.725   2.694  22.252  0.00  0.00    +0.000 NA
ATOM     18  H   UNL     1       1.087   1.897  22.282  0.00  0.00    +0.000 HD
ATOM     19  H   UNL     1       1.112   3.506  22.372  0.00  0.00    +0.000 HD
ENDBRANCH  16  17
ENDBRANCH   4   9
BRANCH   7  20
ATOM     20  C   UNL     1       1.803  10.154  18.179  0.00  0.00    +0.000 C 
ATOM     21  N   UNL     1       0.626  10.840  18.306  0.00  0.00    +0.000 N 
ATOM     22  O   UNL     1       2.752  10.616  17.558  0.00  0.00    +0.000 OA
ATOM     23  H   UNL     1      -0.214  10.376  18.631  0.00  0.00    +0.000 HD
ATOM     24  H   UNL     1       0.495  11.621  17.671  0.00  0.00    +0.000 HD
ENDBRANCH   7  20
BRANCH   1  25
ATOM     25  N   UNL     1       3.510   7.760  17.302  0.00  0.00    +0.000 N 
ATOM     26  H   UNL     1       2.972   7.918  16.453  0.00  0.00    +0.000 HD
BRANCH  25  32
ATOM     27  C   UNL     1       7.933   5.963  18.683  0.00  0.00    +0.000 C 
ATOM     28  C   UNL     1       6.829   6.063  17.670  0.00  0.00    +0.000 A 
ATOM     29  C   UNL     1       6.987   5.569  16.373  0.00  0.00    +0.000 A 
ATOM     30  C   UNL     1       5.963   5.717  15.437  0.00  0.00    +0.000 A 
ATOM     31  C   UNL     1       4.791   6.392  15.781  0.00  0.00    +0.000 A 
ATOM     32  C   UNL     1       4.634   6.940  17.059  0.00  0.00    +0.000 A 
ATOM     33  C   UNL     1       5.636   6.717  18.012  0.00  0.00    +0.000 A 
ENDBRANCH  25  32
ENDBRANCH   1  25
TORSDOF 5
ENDMDL
