MODEL 1
REMARK VINA RESULT:      -7.4      0.000      0.000
REMARK  Name = 
REMARK  5 active torsions:
REMARK  status: ('A' for Active; 'I' for Inactive)
REMARK    1  A    between atoms: C_1  and  S_2
REMARK    2  A    between atoms: S_2  and  N_5
REMARK    3  A    between atoms: N_5  and  C_6
REMARK    4  A    between atoms: C_9  and  C_10
REMARK    5  A    between atoms: N_12  and  C_13
REMARK                            x       y       z     vdW  Elec       q    Type
REMARK                         _______ _______ _______ _____ _____    ______ ____
ROOT
ATOM      1  C   UNL     1       2.896   6.706  19.332  0.00  0.00    +0.000 C 
ATOM      2  O   UNL     1       2.959   5.737  20.081  0.00  0.00    +0.000 OA
ATOM      3  N   UNL     1       3.645   6.922  18.197  0.00  0.00    +0.000 N 
ATOM      4  H   UNL     1       3.624   7.843  17.781  0.00  0.00    +0.000 HD
ENDROOT
BRANCH   3   5
ATOM      5  C   UNL     1       4.402   5.939  17.517  0.00  0.00    +0.000 A 
ATOM      6  C   UNL     1       3.903   4.644  17.244  0.00  0.00    +0.000 A 
ATOM      7  C   UNL     1       4.560   3.787  16.357  0.00  0.00    +0.000 A 
ATOM      8  C   UNL     1       5.690   4.267  15.745  0.00  0.00    +0.000 A 
ATOM      9  C   UNL     1       6.225   5.495  16.071  0.00  0.00    +0.000 A 
ATOM     10  C   UNL     1       5.631   6.339  16.981  0.00  0.00    +0.000 A 
ATOM     11  O   UNL     1       7.300   5.800  15.291  0.00  0.00    +0.000 OA
ATOM     12  C   UNL     1       7.099   4.829  14.244  0.00  0.00    +0.000 C 
ATOM     13  O   UNL     1       6.344   3.688  14.702  0.00  0.00    +0.000 OA
ENDBRANCH   3   5
BRANCH   1  17
ATOM     14  C   UNL     1       0.250   9.931  20.240  0.00  0.00    +0.000 A 
ATOM     15  C   UNL     1       0.822   9.810  18.979  0.00  0.00    +0.000 A 
ATOM     16  C   UNL     1       1.654   8.729  18.704  0.00  0.00    +0.000 A 
ATOM     17  C   UNL     1       1.907   7.762  19.680  0.00  0.00    +0.000 A 
ATOM     18  C   UNL     1       1.323   7.877  20.947  0.00  0.00    +0.000 A 
ATOM     19  C   UNL     1       0.488   8.965  21.225  0.00  0.00    +0.000 A 
BRANCH  14  20
ATOM     20  N   UNL     1      -0.629  11.021  20.487  0.00  0.00    +0.000 N 
ATOM     21  H   UNL     1      -0.996  11.497  19.662  0.00  0.00    +0.000 HD
BRANCH  20  23
ATOM     22  C   UNL     1      -1.052  13.600  21.132  0.00  0.00    +0.000 C 
ATOM     23  S   UNL     1      -0.132  12.161  21.634  0.00  0.00    +0.000 S 
ATOM     24  O   UNL     1       1.264  12.409  21.344  0.00  0.00    +0.000 OA
ATOM     25  O   UNL     1      -0.564  11.752  22.951  0.00  0.00    +0.000 OA
ENDBRANCH  20  23
ENDBRANCH  14  20
ENDBRANCH   1  17
TORSDOF 4
ENDMDL
MODEL 2
REMARK VINA RESULT:      -7.2      6.088      9.126
REMARK  Name = 
REMARK  5 active torsions:
REMARK  status: ('A' for Active; 'I' for Inactive)
REMARK    1  A    between atoms: C_1  and  S_2
REMARK    2  A    between atoms: S_2  and  N_5
REMARK    3  A    between atoms: N_5  and  C_6
REMARK    4  A    between atoms: C_9  and  C_10
REMARK    5  A    between atoms: N_12  and  C_13
REMARK                            x       y       z     vdW  Elec       q    Type
REMARK                         _______ _______ _______ _____ _____    ______ ____
ROOT
ATOM      1  C   UNL     1       8.366   9.178  18.225  0.00  0.00    +0.000 C 
ATOM      2  O   UNL     1       7.895  10.037  17.487  0.00  0.00    +0.000 OA
ATOM      3  N   UNL     1       9.360   9.351  19.163  0.00  0.00    +0.000 N 
ATOM      4  H   UNL     1       9.781   8.525  19.567  0.00  0.00    +0.000 HD
ENDROOT
BRANCH   3   5
ATOM      5  C   UNL     1       9.804  10.597  19.664  0.00  0.00    +0.000 A 
ATOM      6  C   UNL     1      10.649  11.459  18.928  0.00  0.00    +0.000 A 
ATOM      7  C   UNL     1      10.864  12.780  19.330  0.00  0.00    +0.000 A 
ATOM      8  C   UNL     1      10.198  13.208  20.450  0.00  0.00    +0.000 A 
ATOM      9  C   UNL     1       9.441  12.349  21.217  0.00  0.00    +0.000 A 
ATOM     10  C   UNL     1       9.255  11.029  20.876  0.00  0.00    +0.000 A 
ATOM     11  O   UNL     1       8.812  13.001  22.235  0.00  0.00    +0.000 OA
ATOM     12  C   UNL     1       8.963  14.354  21.760  0.00  0.00    +0.000 C 
ATOM     13  O   UNL     1      10.097  14.496  20.879  0.00  0.00    +0.000 OA
ENDBRANCH   3   5
BRANCH   1  17
ATOM     14  C   UNL     1       6.506   5.350  17.888  0.00  0.00    +0.000 A 
ATOM     15  C   UNL     1       6.136   6.399  17.055  0.00  0.00    +0.000 A 
ATOM     16  C   UNL     1       6.784   7.626  17.168  0.00  0.00    +0.000 A 
ATOM     17  C   UNL     1       7.809   7.804  18.100  0.00  0.00    +0.000 A 
ATOM     18  C   UNL     1       8.190   6.745  18.932  0.00  0.00    +0.000 A 
ATOM     19  C   UNL     1       7.537   5.512  18.821  0.00  0.00    +0.000 A 
BRANCH  14  20
ATOM     20  N   UNL     1       5.859   4.094  17.729  0.00  0.00    +0.000 N 
ATOM     21  H   UNL     1       5.562   3.859  16.781  0.00  0.00    +0.000 HD
BRANCH  20  23
ATOM     22  C   UNL     1       3.441   2.913  17.773  0.00  0.00    +0.000 C 
ATOM     23  S   UNL     1       4.625   3.725  18.825  0.00  0.00    +0.000 S 
ATOM     24  O   UNL     1       4.065   5.002  19.214  0.00  0.00    +0.000 OA
ATOM     25  O   UNL     1       5.109   2.787  19.812  0.00  0.00    +0.000 OA
ENDBRANCH  20  23
ENDBRANCH  14  20
ENDBRANCH   1  17
TORSDOF 4
ENDMDL
MODEL 3
REMARK VINA RESULT:      -7.2      0.825      1.385
REMARK  Name = 
REMARK  5 active torsions:
REMARK  status: ('A' for Active; 'I' for Inactive)
REMARK    1  A    between atoms: C_1  and  S_2
REMARK    2  A    between atoms: S_2  and  N_5
REMARK    3  A    between atoms: N_5  and  C_6
REMARK    4  A    between atoms: C_9  and  C_10
REMARK    5  A    between atoms: N_12  and  C_13
REMARK                            x       y       z     vdW  Elec       q    Type
REMARK                         _______ _______ _______ _____ _____    ______ ____
ROOT
ATOM      1  C   UNL     1       2.723   7.043  19.218  0.00  0.00    +0.000 C 
ATOM      2  O   UNL     1       2.620   6.076  19.965  0.00  0.00    +0.000 OA
ATOM      3  N   UNL     1       3.596   7.180  18.162  0.00  0.00    +0.000 N 
ATOM      4  H   UNL     1       3.704   8.098  17.750  0.00  0.00    +0.000 HD
ENDROOT
BRANCH   3   5
ATOM      5  C   UNL     1       4.316   6.125  17.553  0.00  0.00    +0.000 A 
ATOM      6  C   UNL     1       3.749   4.854  17.309  0.00  0.00    +0.000 A 
ATOM      7  C   UNL     1       4.386   3.922  16.485  0.00  0.00    +0.000 A 
ATOM      8  C   UNL     1       5.567   4.307  15.904  0.00  0.00    +0.000 A 
ATOM      9  C   UNL     1       6.165   5.511  16.206  0.00  0.00    +0.000 A 
ATOM     10  C   UNL     1       5.588   6.427  17.055  0.00  0.00    +0.000 A 
ATOM     11  O   UNL     1       7.288   5.718  15.460  0.00  0.00    +0.000 OA
ATOM     12  C   UNL     1       7.069   4.719  14.445  0.00  0.00    +0.000 C 
ATOM     13  O   UNL     1       6.226   3.646  14.913  0.00  0.00    +0.000 OA
ENDBRANCH   3   5
BRANCH   1  17
ATOM     14  C   UNL     1      -0.089  10.149  20.039  0.00  0.00    +0.000 A 
ATOM     15  C   UNL     1       0.236   9.206  21.007  0.00  0.00    +0.000 A 
ATOM     16  C   UNL     1       1.181   8.226  20.720  0.00  0.00    +0.000 A 
ATOM     17  C   UNL     1       1.812   8.191  19.473  0.00  0.00    +0.000 A 
ATOM     18  C   UNL     1       1.492   9.146  18.501  0.00  0.00    +0.000 A 
ATOM     19  C   UNL     1       0.540  10.131  18.789  0.00  0.00    +0.000 A 
BRANCH  14  20
ATOM     20  N   UNL     1      -1.027  11.166  20.367  0.00  0.00    +0.000 N 
ATOM     21  H   UNL     1      -1.589  11.525  19.594  0.00  0.00    +0.000 HD
BRANCH  20  23
ATOM     22  C   UNL     1      -1.197  12.078  22.893  0.00  0.00    +0.000 C 
ATOM     23  S   UNL     1      -0.465  12.449  21.315  0.00  0.00    +0.000 S 
ATOM     24  O   UNL     1      -1.123  13.627  20.791  0.00  0.00    +0.000 OA
ATOM     25  O   UNL     1       0.975  12.382  21.427  0.00  0.00    +0.000 OA
ENDBRANCH  20  23
ENDBRANCH  14  20
ENDBRANCH   1  17
TORSDOF 4
ENDMDL
MODEL 4
REMARK VINA RESULT:      -7.1      3.060      8.772
REMARK  Name = 
REMARK  5 active torsions:
REMARK  status: ('A' for Active; 'I' for Inactive)
REMARK    1  A    between atoms: C_1  and  S_2
REMARK    2  A    between atoms: S_2  and  N_5
REMARK    3  A    between atoms: N_5  and  C_6
REMARK    4  A    between atoms: C_9  and  C_10
REMARK    5  A    between atoms: N_12  and  C_13
REMARK                            x       y       z     vdW  Elec       q    Type
REMARK                         _______ _______ _______ _____ _____    ______ ____
ROOT
ATOM      1  C   UNL     1       1.918   7.427  19.820  0.00  0.00    +0.000 C 
ATOM      2  O   UNL     1       1.406   6.988  20.844  0.00  0.00    +0.000 OA
ATOM      3  N   UNL     1       1.600   8.603  19.177  0.00  0.00    +0.000 N 
ATOM      4  H   UNL     1       1.966   8.750  18.246  0.00  0.00    +0.000 HD
ENDROOT
BRANCH   3   5
ATOM      5  C   UNL     1       0.848   9.663  19.736  0.00  0.00    +0.000 A 
ATOM      6  C   UNL     1      -0.107  10.397  18.996  0.00  0.00    +0.000 A 
ATOM      7  C   UNL     1      -1.009  11.257  19.627  0.00  0.00    +0.000 A 
ATOM      8  C   UNL     1      -0.945  11.334  20.995  0.00  0.00    +0.000 A 
ATOM      9  C   UNL     1       0.038  10.687  21.713  0.00  0.00    +0.000 A 
ATOM     10  C   UNL     1       0.974   9.876  21.114  0.00  0.00    +0.000 A 
ATOM     11  O   UNL     1      -0.133  10.842  23.057  0.00  0.00    +0.000 OA
ATOM     12  C   UNL     1      -1.499  11.302  23.056  0.00  0.00    +0.000 C 
ATOM     13  O   UNL     1      -1.859  11.932  21.809  0.00  0.00    +0.000 OA
ENDBRANCH   3   5
BRANCH   1  17
ATOM     14  C   UNL     1       4.847   5.053  17.817  0.00  0.00    +0.000 A 
ATOM     15  C   UNL     1       4.304   6.179  17.210  0.00  0.00    +0.000 A 
ATOM     16  C   UNL     1       3.375   6.951  17.902  0.00  0.00    +0.000 A 
ATOM     17  C   UNL     1       2.997   6.610  19.203  0.00  0.00    +0.000 A 
ATOM     18  C   UNL     1       3.552   5.482  19.819  0.00  0.00    +0.000 A 
ATOM     19  C   UNL     1       4.483   4.704  19.123  0.00  0.00    +0.000 A 
BRANCH  14  20
ATOM     20  N   UNL     1       5.823   4.301  17.107  0.00  0.00    +0.000 N 
ATOM     21  H   UNL     1       5.909   3.317  17.368  0.00  0.00    +0.000 HD
BRANCH  20  23
ATOM     22  C   UNL     1       7.236   6.386  18.055  0.00  0.00    +0.000 C 
ATOM     23  S   UNL     1       7.360   4.991  16.957  0.00  0.00    +0.000 S 
ATOM     24  O   UNL     1       7.419   5.501  15.604  0.00  0.00    +0.000 OA
ATOM     25  O   UNL     1       8.360   4.076  17.458  0.00  0.00    +0.000 OA
ENDBRANCH  20  23
ENDBRANCH  14  20
ENDBRANCH   1  17
TORSDOF 4
ENDMDL
MODEL 5
REMARK VINA RESULT:      -7.1      5.895      8.949
REMARK  Name = 
REMARK  5 active torsions:
REMARK  status: ('A' for Active; 'I' for Inactive)
REMARK    1  A    between atoms: C_1  and  S_2
REMARK    2  A    between atoms: S_2  and  N_5
REMARK    3  A    between atoms: N_5  and  C_6
REMARK    4  A    between atoms: C_9  and  C_10
REMARK    5  A    between atoms: N_12  and  C_13
REMARK                            x       y       z     vdW  Elec       q    Type
REMARK                         _______ _______ _______ _____ _____    ______ ____
ROOT
ATOM      1  C   UNL     1       8.227   8.818  18.033  0.00  0.00    +0.000 C 
ATOM      2  O   UNL     1       7.817   9.545  17.134  0.00  0.00    +0.000 OA
ATOM      3  N   UNL     1       9.146   9.147  19.005  0.00  0.00    +0.000 N 
ATOM      4  H   UNL     1       9.532   8.400  19.567  0.00  0.00    +0.000 HD
ENDROOT
BRANCH   3   5
ATOM      5  C   UNL     1       9.554  10.461  19.334  0.00  0.00    +0.000 A 
ATOM      6  C   UNL     1      10.094  11.355  18.381  0.00  0.00    +0.000 A 
ATOM      7  C   UNL     1      10.248  12.714  18.667  0.00  0.00    +0.000 A 
ATOM      8  C   UNL     1       9.826  13.144  19.900  0.00  0.00    +0.000 A 
ATOM      9  C   UNL     1       9.378  12.264  20.861  0.00  0.00    +0.000 A 
ATOM     10  C   UNL     1       9.266  10.913  20.627  0.00  0.00    +0.000 A 
ATOM     11  O   UNL     1       8.943  12.914  21.978  0.00  0.00    +0.000 OA
ATOM     12  C   UNL     1       8.821  14.242  21.429  0.00  0.00    +0.000 C 
ATOM     13  O   UNL     1       9.686  14.440  20.292  0.00  0.00    +0.000 OA
ENDBRANCH   3   5
BRANCH   1  17
ATOM     14  C   UNL     1       6.389   4.968  18.203  0.00  0.00    +0.000 A 
ATOM     15  C   UNL     1       5.982   5.913  17.268  0.00  0.00    +0.000 A 
ATOM     16  C   UNL     1       6.623   7.147  17.216  0.00  0.00    +0.000 A 
ATOM     17  C   UNL     1       7.678   7.437  18.086  0.00  0.00    +0.000 A 
ATOM     18  C   UNL     1       8.095   6.482  19.021  0.00  0.00    +0.000 A 
ATOM     19  C   UNL     1       7.448   5.242  19.075  0.00  0.00    +0.000 A 
BRANCH  14  20
ATOM     20  N   UNL     1       5.747   3.700  18.211  0.00  0.00    +0.000 N 
ATOM     21  H   UNL     1       5.737   3.196  17.323  0.00  0.00    +0.000 HD
BRANCH  20  23
ATOM     22  C   UNL     1       4.420   2.244  20.045  0.00  0.00    +0.000 C 
ATOM     23  S   UNL     1       4.220   3.620  18.934  0.00  0.00    +0.000 S 
ATOM     24  O   UNL     1       3.320   3.205  17.879  0.00  0.00    +0.000 OA
ATOM     25  O   UNL     1       3.975   4.821  19.700  0.00  0.00    +0.000 OA
ENDBRANCH  20  23
ENDBRANCH  14  20
ENDBRANCH   1  17
TORSDOF 4
ENDMDL
MODEL 6
REMARK VINA RESULT:      -7.1      6.075      8.842
REMARK  Name = 
REMARK  5 active torsions:
REMARK  status: ('A' for Active; 'I' for Inactive)
REMARK    1  A    between atoms: C_1  and  S_2
REMARK    2  A    between atoms: S_2  and  N_5
REMARK    3  A    between atoms: N_5  and  C_6
REMARK    4  A    between atoms: C_9  and  C_10
REMARK    5  A    between atoms: N_12  and  C_13
REMARK                            x       y       z     vdW  Elec       q    Type
REMARK                         _______ _______ _______ _____ _____    ______ ____
ROOT
ATOM      1  C   UNL     1       8.230   8.731  17.982  0.00  0.00    +0.000 C 
ATOM      2  O   UNL     1       8.205   9.320  16.907  0.00  0.00    +0.000 OA
ATOM      3  N   UNL     1       8.880   9.133  19.128  0.00  0.00    +0.000 N 
ATOM      4  H   UNL     1       8.974   8.465  19.882  0.00  0.00    +0.000 HD
ENDROOT
BRANCH   3   5
ATOM      5  C   UNL     1       9.377  10.435  19.372  0.00  0.00    +0.000 A 
ATOM      6  C   UNL     1       9.484  10.982  20.672  0.00  0.00    +0.000 A 
ATOM      7  C   UNL     1      10.208  12.153  20.908  0.00  0.00    +0.000 A 
ATOM      8  C   UNL     1      10.832  12.730  19.831  0.00  0.00    +0.000 A 
ATOM      9  C   UNL     1      10.661  12.249  18.551  0.00  0.00    +0.000 A 
ATOM     10  C   UNL     1       9.910  11.129  18.280  0.00  0.00    +0.000 A 
ATOM     11  O   UNL     1      11.429  12.926  17.651  0.00  0.00    +0.000 OA
ATOM     12  C   UNL     1      12.333  13.572  18.570  0.00  0.00    +0.000 C 
ATOM     13  O   UNL     1      11.751  13.733  19.880  0.00  0.00    +0.000 OA
ENDBRANCH   3   5
BRANCH   1  17
ATOM     14  C   UNL     1       6.334   4.911  18.193  0.00  0.00    +0.000 A 
ATOM     15  C   UNL     1       7.392   5.231  19.037  0.00  0.00    +0.000 A 
ATOM     16  C   UNL     1       7.967   6.496  18.966  0.00  0.00    +0.000 A 
ATOM     17  C   UNL     1       7.482   7.448  18.065  0.00  0.00    +0.000 A 
ATOM     18  C   UNL     1       6.411   7.130  17.222  0.00  0.00    +0.000 A 
ATOM     19  C   UNL     1       5.834   5.857  17.291  0.00  0.00    +0.000 A 
BRANCH  14  20
ATOM     20  N   UNL     1       5.736   3.627  18.309  0.00  0.00    +0.000 N 
ATOM     21  H   UNL     1       5.860   3.000  17.513  0.00  0.00    +0.000 HD
BRANCH  20  23
ATOM     22  C   UNL     1       4.096   2.048  19.745  0.00  0.00    +0.000 C 
ATOM     23  S   UNL     1       4.128   3.577  18.835  0.00  0.00    +0.000 S 
ATOM     24  O   UNL     1       3.341   3.390  17.635  0.00  0.00    +0.000 OA
ATOM     25  O   UNL     1       3.872   4.676  19.737  0.00  0.00    +0.000 OA
ENDBRANCH  20  23
ENDBRANCH  14  20
ENDBRANCH   1  17
TORSDOF 4
ENDMDL
MODEL 7
REMARK VINA RESULT:      -7.1      1.111      1.313
REMARK  Name = 
REMARK  5 active torsions:
REMARK  status: ('A' for Active; 'I' for Inactive)
REMARK    1  A    between atoms: C_1  and  S_2
REMARK    2  A    between atoms: S_2  and  N_5
REMARK    3  A    between atoms: N_5  and  C_6
REMARK    4  A    between atoms: C_9  and  C_10
REMARK    5  A    between atoms: N_12  and  C_13
REMARK                            x       y       z     vdW  Elec       q    Type
REMARK                         _______ _______ _______ _____ _____    ______ ____
ROOT
ATOM      1  C   UNL     1       2.724   7.112  19.061  0.00  0.00    +0.000 C 
ATOM      2  O   UNL     1       2.755   6.221  19.903  0.00  0.00    +0.000 OA
ATOM      3  N   UNL     1       3.524   7.219  17.944  0.00  0.00    +0.000 N 
ATOM      4  H   UNL     1       3.521   8.096  17.440  0.00  0.00    +0.000 HD
ENDROOT
BRANCH   3   5
ATOM      5  C   UNL     1       4.310   6.178  17.398  0.00  0.00    +0.000 A 
ATOM      6  C   UNL     1       3.837   4.852  17.265  0.00  0.00    +0.000 A 
ATOM      7  C   UNL     1       4.525   3.910  16.496  0.00  0.00    +0.000 A 
ATOM      8  C   UNL     1       5.661   4.336  15.856  0.00  0.00    +0.000 A 
ATOM      9  C   UNL     1       6.172   5.602  16.050  0.00  0.00    +0.000 A 
ATOM     10  C   UNL     1       5.544   6.535  16.844  0.00  0.00    +0.000 A 
ATOM     11  O   UNL     1       7.259   5.834  15.262  0.00  0.00    +0.000 OA
ATOM     12  C   UNL     1       7.096   4.746  14.331  0.00  0.00    +0.000 C 
ATOM     13  O   UNL     1       6.348   3.652  14.900  0.00  0.00    +0.000 OA
ENDBRANCH   3   5
BRANCH   1  17
ATOM     14  C   UNL     1       0.026  10.392  19.496  0.00  0.00    +0.000 A 
ATOM     15  C   UNL     1       0.536  10.047  18.249  0.00  0.00    +0.000 A 
ATOM     16  C   UNL     1       1.387   8.952  18.136  0.00  0.00    +0.000 A 
ATOM     17  C   UNL     1       1.722   8.192  19.259  0.00  0.00    +0.000 A 
ATOM     18  C   UNL     1       1.200   8.533  20.514  0.00  0.00    +0.000 A 
ATOM     19  C   UNL     1       0.346   9.635  20.629  0.00  0.00    +0.000 A 
BRANCH  14  20
ATOM     20  N   UNL     1      -0.874  11.489  19.583  0.00  0.00    +0.000 N 
ATOM     21  H   UNL     1      -1.719  11.422  19.015  0.00  0.00    +0.000 HD
BRANCH  20  23
ATOM     22  C   UNL     1      -1.345  14.007  20.410  0.00  0.00    +0.000 C 
ATOM     23  S   UNL     1      -0.208  13.038  19.442  0.00  0.00    +0.000 S 
ATOM     24  O   UNL     1      -0.387  13.406  18.054  0.00  0.00    +0.000 OA
ATOM     25  O   UNL     1       1.097  13.070  20.064  0.00  0.00    +0.000 OA
ENDBRANCH  20  23
ENDBRANCH  14  20
ENDBRANCH   1  17
TORSDOF 4
ENDMDL
MODEL 8
REMARK VINA RESULT:      -7.1      6.227      9.248
REMARK  Name = 
REMARK  5 active torsions:
REMARK  status: ('A' for Active; 'I' for Inactive)
REMARK    1  A    between atoms: C_1  and  S_2
REMARK    2  A    between atoms: S_2  and  N_5
REMARK    3  A    between atoms: N_5  and  C_6
REMARK    4  A    between atoms: C_9  and  C_10
REMARK    5  A    between atoms: N_12  and  C_13
REMARK                            x       y       z     vdW  Elec       q    Type
REMARK                         _______ _______ _______ _____ _____    ______ ____
ROOT
ATOM      1  C   UNL     1       8.435   9.265  18.221  0.00  0.00    +0.000 C 
ATOM      2  O   UNL     1       8.076  10.102  17.399  0.00  0.00    +0.000 OA
ATOM      3  N   UNL     1       9.393   9.425  19.197  0.00  0.00    +0.000 N 
ATOM      4  H   UNL     1       9.721   8.600  19.681  0.00  0.00    +0.000 HD
ENDROOT
BRANCH   3   5
ATOM      5  C   UNL     1       9.919  10.665  19.631  0.00  0.00    +0.000 A 
ATOM      6  C   UNL     1      10.811  11.433  18.849  0.00  0.00    +0.000 A 
ATOM      7  C   UNL     1      11.111  12.757  19.181  0.00  0.00    +0.000 A 
ATOM      8  C   UNL     1      10.481  13.283  20.280  0.00  0.00    +0.000 A 
ATOM      9  C   UNL     1       9.678  12.513  21.094  0.00  0.00    +0.000 A 
ATOM     10  C   UNL     1       9.407  11.192  20.822  0.00  0.00    +0.000 A 
ATOM     11  O   UNL     1       9.099  13.255  22.080  0.00  0.00    +0.000 OA
ATOM     12  C   UNL     1       9.331  14.570  21.535  0.00  0.00    +0.000 C 
ATOM     13  O   UNL     1      10.464  14.595  20.643  0.00  0.00    +0.000 OA
ENDBRANCH   3   5
BRANCH   1  17
ATOM     14  C   UNL     1       6.784   5.332  18.045  0.00  0.00    +0.000 A 
ATOM     15  C   UNL     1       7.739   5.663  18.999  0.00  0.00    +0.000 A 
ATOM     16  C   UNL     1       8.233   6.963  19.052  0.00  0.00    +0.000 A 
ATOM     17  C   UNL     1       7.768   7.936  18.164  0.00  0.00    +0.000 A 
ATOM     18  C   UNL     1       6.799   7.606  17.209  0.00  0.00    +0.000 A 
ATOM     19  C   UNL     1       6.303   6.298  17.154  0.00  0.00    +0.000 A 
BRANCH  14  20
ATOM     20  N   UNL     1       6.263   4.009  18.035  0.00  0.00    +0.000 N 
ATOM     21  H   UNL     1       6.206   3.556  17.122  0.00  0.00    +0.000 HD
BRANCH  20  23
ATOM     22  C   UNL     1       3.710   3.277  17.598  0.00  0.00    +0.000 C 
ATOM     23  S   UNL     1       4.832   3.743  18.898  0.00  0.00    +0.000 S 
ATOM     24  O   UNL     1       4.429   5.047  19.379  0.00  0.00    +0.000 OA
ATOM     25  O   UNL     1       5.005   2.629  19.803  0.00  0.00    +0.000 OA
ENDBRANCH  20  23
ENDBRANCH  14  20
ENDBRANCH   1  17
TORSDOF 4
ENDMDL
MODEL 9
REMARK VINA RESULT:      -7.1      6.801      9.337
REMARK  Name = 
REMARK  5 active torsions:
REMARK  status: ('A' for Active; 'I' for Inactive)
REMARK    1  A    between atoms: C_1  and  S_2
REMARK    2  A    between atoms: S_2  and  N_5
REMARK    3  A    between atoms: N_5  and  C_6
REMARK    4  A    between atoms: C_9  and  C_10
REMARK    5  A    between atoms: N_12  and  C_13
REMARK                            x       y       z     vdW  Elec       q    Type
REMARK                         _______ _______ _______ _____ _____    ______ ____
ROOT
ATOM      1  C   UNL     1       8.989   9.858  18.853  0.00  0.00    +0.000 C 
ATOM      2  O   UNL     1       9.299  10.010  20.029  0.00  0.00    +0.000 OA
ATOM      3  N   UNL     1       9.147  10.770  17.833  0.00  0.00    +0.000 N 
ATOM      4  H   UNL     1       8.679  10.588  16.955  0.00  0.00    +0.000 HD
ENDROOT
BRANCH   3   5
ATOM      5  C   UNL     1       9.968  11.921  17.885  0.00  0.00    +0.000 A 
ATOM      6  C   UNL     1      11.363  11.876  17.662  0.00  0.00    +0.000 A 
ATOM      7  C   UNL     1      12.104  13.044  17.465  0.00  0.00    +0.000 A 
ATOM      8  C   UNL     1      11.414  14.230  17.471  0.00  0.00    +0.000 A 
ATOM      9  C   UNL     1      10.069  14.286  17.771  0.00  0.00    +0.000 A 
ATOM     10  C   UNL     1       9.324  13.156  18.023  0.00  0.00    +0.000 A 
ATOM     11  O   UNL     1       9.576  15.550  17.646  0.00  0.00    +0.000 OA
ATOM     12  C   UNL     1      10.650  16.134  16.882  0.00  0.00    +0.000 C 
ATOM     13  O   UNL     1      11.900  15.442  17.087  0.00  0.00    +0.000 OA
ENDBRANCH   3   5
BRANCH   1  17
ATOM     14  C   UNL     1       6.980   6.245  17.786  0.00  0.00    +0.000 A 
ATOM     15  C   UNL     1       6.795   7.409  17.049  0.00  0.00    +0.000 A 
ATOM     16  C   UNL     1       7.490   8.562  17.402  0.00  0.00    +0.000 A 
ATOM     17  C   UNL     1       8.378   8.553  18.481  0.00  0.00    +0.000 A 
ATOM     18  C   UNL     1       8.573   7.379  19.217  0.00  0.00    +0.000 A 
ATOM     19  C   UNL     1       7.872   6.220  18.864  0.00  0.00    +0.000 A 
BRANCH  14  20
ATOM     20  N   UNL     1       6.291   5.068  17.384  0.00  0.00    +0.000 N 
ATOM     21  H   UNL     1       6.015   5.023  16.401  0.00  0.00    +0.000 HD
BRANCH  20  23
ATOM     22  C   UNL     1       3.997   3.672  17.199  0.00  0.00    +0.000 C 
ATOM     23  S   UNL     1       5.011   4.557  18.364  0.00  0.00    +0.000 S 
ATOM     24  O   UNL     1       4.305   5.767  18.731  0.00  0.00    +0.000 OA
ATOM     25  O   UNL     1       5.498   3.639  19.368  0.00  0.00    +0.000 OA
ENDBRANCH  20  23
ENDBRANCH  14  20
ENDBRANCH   1  17
TORSDOF 4
ENDMDL
