MODEL 1
REMARK VINA RESULT:      -5.6      0.000      0.000
REMARK  Name = 
REMARK  4 active torsions:
REMARK  status: ('A' for Active; 'I' for Inactive)
REMARK    1  A    between atoms: C_1  and  C_2
REMARK    2  A    between atoms: C_2  and  N_3
REMARK    3  A    between atoms: C_4  and  C_5
REMARK    4  A    between atoms: C_9  and  C_10
REMARK                            x       y       z     vdW  Elec       q    Type
REMARK                         _______ _______ _______ _____ _____    ______ ____
ROOT
ATOM      1  N   UNL     1       2.948   3.533  19.744  0.00  0.00    +0.000 N 
ATOM      2  C   UNL     1       3.363   2.813  18.710  0.00  0.00    +0.000 A 
ATOM      3  C   UNL     1       3.664   1.358  18.657  0.00  0.00    +0.000 C 
ATOM      4  S   UNL     1       3.553   3.786  17.314  0.00  0.00    +0.000 S 
ATOM      5  C   UNL     1       3.029   5.198  18.143  0.00  0.00    +0.000 A 
ATOM      6  C   UNL     1       2.902   6.504  17.644  0.00  0.00    +0.000 A 
ATOM      7  C   UNL     1       2.441   7.508  18.508  0.00  0.00    +0.000 A 
ATOM      8  C   UNL     1       2.298   8.923  18.018  0.00  0.00    +0.000 C 
ATOM      9  C   UNL     1       2.109   7.194  19.828  0.00  0.00    +0.000 A 
ATOM     10  C   UNL     1       2.241   5.887  20.321  0.00  0.00    +0.000 A 
ATOM     11  C   UNL     1       2.721   4.878  19.461  0.00  0.00    +0.000 A 
ENDROOT
BRANCH   1  13
ATOM     12  C   UNL     1       1.298   2.655  21.368  0.00  0.00    +0.000 C 
ATOM     13  C   UNL     1       2.756   2.970  21.087  0.00  0.00    +0.000 C 
ENDBRANCH   1  13
TORSDOF 1
ENDMDL
MODEL 2
REMARK VINA RESULT:      -5.6      2.236      4.651
REMARK  Name = 
REMARK  4 active torsions:
REMARK  status: ('A' for Active; 'I' for Inactive)
REMARK    1  A    between atoms: C_1  and  C_2
REMARK    2  A    between atoms: C_2  and  N_3
REMARK    3  A    between atoms: C_4  and  C_5
REMARK    4  A    between atoms: C_9  and  C_10
REMARK                            x       y       z     vdW  Elec       q    Type
REMARK                         _______ _______ _______ _____ _____    ______ ____
ROOT
ATOM      1  N   UNL     1       4.969   4.918  17.790  0.00  0.00    +0.000 N 
ATOM      2  C   UNL     1       4.422   6.043  17.349  0.00  0.00    +0.000 A 
ATOM      3  C   UNL     1       4.935   6.973  16.309  0.00  0.00    +0.000 C 
ATOM      4  S   UNL     1       2.948   6.375  18.153  0.00  0.00    +0.000 S 
ATOM      5  C   UNL     1       3.058   4.937  19.091  0.00  0.00    +0.000 A 
ATOM      6  C   UNL     1       2.164   4.461  20.063  0.00  0.00    +0.000 A 
ATOM      7  C   UNL     1       2.454   3.247  20.701  0.00  0.00    +0.000 A 
ATOM      8  C   UNL     1       1.527   2.703  21.754  0.00  0.00    +0.000 C 
ATOM      9  C   UNL     1       3.605   2.535  20.356  0.00  0.00    +0.000 A 
ATOM     10  C   UNL     1       4.496   3.019  19.386  0.00  0.00    +0.000 A 
ATOM     11  C   UNL     1       4.218   4.248  18.754  0.00  0.00    +0.000 A 
ENDROOT
BRANCH   1  13
ATOM     12  C   UNL     1       7.423   4.998  18.114  0.00  0.00    +0.000 C 
ATOM     13  C   UNL     1       6.266   4.417  17.319  0.00  0.00    +0.000 C 
ENDBRANCH   1  13
TORSDOF 1
ENDMDL
MODEL 3
REMARK VINA RESULT:      -5.6      2.736      4.946
REMARK  Name = 
REMARK  4 active torsions:
REMARK  status: ('A' for Active; 'I' for Inactive)
REMARK    1  A    between atoms: C_1  and  C_2
REMARK    2  A    between atoms: C_2  and  N_3
REMARK    3  A    between atoms: C_4  and  C_5
REMARK    4  A    between atoms: C_9  and  C_10
REMARK                            x       y       z     vdW  Elec       q    Type
REMARK                         _______ _______ _______ _____ _____    ______ ____
ROOT
ATOM      1  N   UNL     1       5.345   4.961  17.141  0.00  0.00    +0.000 N 
ATOM      2  C   UNL     1       5.225   6.270  17.316  0.00  0.00    +0.000 A 
ATOM      3  C   UNL     1       6.217   7.337  17.020  0.00  0.00    +0.000 C 
ATOM      4  S   UNL     1       3.700   6.671  17.983  0.00  0.00    +0.000 S 
ATOM      5  C   UNL     1       3.198   5.026  17.997  0.00  0.00    +0.000 A 
ATOM      6  C   UNL     1       1.976   4.491  18.435  0.00  0.00    +0.000 A 
ATOM      7  C   UNL     1       1.780   3.106  18.344  0.00  0.00    +0.000 A 
ATOM      8  C   UNL     1       0.490   2.490  18.810  0.00  0.00    +0.000 C 
ATOM      9  C   UNL     1       2.785   2.293  17.813  0.00  0.00    +0.000 A 
ATOM     10  C   UNL     1       4.005   2.833  17.379  0.00  0.00    +0.000 A 
ATOM     11  C   UNL     1       4.214   4.224  17.486  0.00  0.00    +0.000 A 
ENDROOT
BRANCH   1  13
ATOM     12  C   UNL     1       6.572   4.211  15.124  0.00  0.00    +0.000 C 
ATOM     13  C   UNL     1       6.570   4.328  16.638  0.00  0.00    +0.000 C 
ENDBRANCH   1  13
TORSDOF 1
ENDMDL
MODEL 4
REMARK VINA RESULT:      -5.6      2.850      4.829
REMARK  Name = 
REMARK  4 active torsions:
REMARK  status: ('A' for Active; 'I' for Inactive)
REMARK    1  A    between atoms: C_1  and  C_2
REMARK    2  A    between atoms: C_2  and  N_3
REMARK    3  A    between atoms: C_4  and  C_5
REMARK    4  A    between atoms: C_9  and  C_10
REMARK                            x       y       z     vdW  Elec       q    Type
REMARK                         _______ _______ _______ _____ _____    ______ ____
ROOT
ATOM      1  N   UNL     1       5.155   5.058  16.853  0.00  0.00    +0.000 N 
ATOM      2  C   UNL     1       6.092   5.591  17.626  0.00  0.00    +0.000 A 
ATOM      3  C   UNL     1       7.345   6.279  17.218  0.00  0.00    +0.000 C 
ATOM      4  S   UNL     1       5.715   5.396  19.284  0.00  0.00    +0.000 S 
ATOM      5  C   UNL     1       4.234   4.598  18.923  0.00  0.00    +0.000 A 
ATOM      6  C   UNL     1       3.280   4.086  19.816  0.00  0.00    +0.000 A 
ATOM      7  C   UNL     1       2.131   3.477  19.292  0.00  0.00    +0.000 A 
ATOM      8  C   UNL     1       1.088   2.907  20.213  0.00  0.00    +0.000 C 
ATOM      9  C   UNL     1       1.951   3.403  17.909  0.00  0.00    +0.000 A 
ATOM     10  C   UNL     1       2.910   3.914  17.021  0.00  0.00    +0.000 A 
ATOM     11  C   UNL     1       4.076   4.511  17.543  0.00  0.00    +0.000 A 
ENDROOT
BRANCH   1  13
ATOM     12  C   UNL     1       6.045   3.834  14.892  0.00  0.00    +0.000 C 
ATOM     13  C   UNL     1       5.246   5.027  15.388  0.00  0.00    +0.000 C 
ENDBRANCH   1  13
TORSDOF 1
ENDMDL
MODEL 5
REMARK VINA RESULT:      -5.6      2.435      4.271
REMARK  Name = 
REMARK  4 active torsions:
REMARK  status: ('A' for Active; 'I' for Inactive)
REMARK    1  A    between atoms: C_1  and  C_2
REMARK    2  A    between atoms: C_2  and  N_3
REMARK    3  A    between atoms: C_4  and  C_5
REMARK    4  A    between atoms: C_9  and  C_10
REMARK                            x       y       z     vdW  Elec       q    Type
REMARK                         _______ _______ _______ _____ _____    ______ ____
ROOT
ATOM      1  N   UNL     1       2.949   5.876  18.636  0.00  0.00    +0.000 N 
ATOM      2  C   UNL     1       2.380   4.779  19.118  0.00  0.00    +0.000 A 
ATOM      3  C   UNL     1       1.381   4.660  20.213  0.00  0.00    +0.000 C 
ATOM      4  S   UNL     1       2.947   3.380  18.310  0.00  0.00    +0.000 S 
ATOM      5  C   UNL     1       3.959   4.306  17.273  0.00  0.00    +0.000 A 
ATOM      6  C   UNL     1       4.814   3.851  16.256  0.00  0.00    +0.000 A 
ATOM      7  C   UNL     1       5.544   4.797  15.524  0.00  0.00    +0.000 A 
ATOM      8  C   UNL     1       6.478   4.353  14.431  0.00  0.00    +0.000 C 
ATOM      9  C   UNL     1       5.403   6.158  15.805  0.00  0.00    +0.000 A 
ATOM     10  C   UNL     1       4.549   6.606  16.824  0.00  0.00    +0.000 A 
ATOM     11  C   UNL     1       3.826   5.658  17.576  0.00  0.00    +0.000 A 
ENDROOT
BRANCH   1  13
ATOM     12  C   UNL     1       1.935   8.093  18.199  0.00  0.00    +0.000 C 
ATOM     13  C   UNL     1       2.694   7.216  19.179  0.00  0.00    +0.000 C 
ENDBRANCH   1  13
TORSDOF 1
ENDMDL
MODEL 6
REMARK VINA RESULT:      -5.5      1.571      4.241
REMARK  Name = 
REMARK  4 active torsions:
REMARK  status: ('A' for Active; 'I' for Inactive)
REMARK    1  A    between atoms: C_1  and  C_2
REMARK    2  A    between atoms: C_2  and  N_3
REMARK    3  A    between atoms: C_4  and  C_5
REMARK    4  A    between atoms: C_9  and  C_10
REMARK                            x       y       z     vdW  Elec       q    Type
REMARK                         _______ _______ _______ _____ _____    ______ ____
ROOT
ATOM      1  N   UNL     1       3.658   6.357  17.939  0.00  0.00    +0.000 N 
ATOM      2  C   UNL     1       4.383   5.695  17.048  0.00  0.00    +0.000 A 
ATOM      3  C   UNL     1       5.159   6.236  15.901  0.00  0.00    +0.000 C 
ATOM      4  S   UNL     1       4.341   4.009  17.343  0.00  0.00    +0.000 S 
ATOM      5  C   UNL     1       3.341   4.207  18.727  0.00  0.00    +0.000 A 
ATOM      6  C   UNL     1       2.830   3.217  19.582  0.00  0.00    +0.000 A 
ATOM      7  C   UNL     1       2.035   3.614  20.666  0.00  0.00    +0.000 A 
ATOM      8  C   UNL     1       1.460   2.586  21.601  0.00  0.00    +0.000 C 
ATOM      9  C   UNL     1       1.779   4.971  20.883  0.00  0.00    +0.000 A 
ATOM     10  C   UNL     1       2.290   5.954  20.023  0.00  0.00    +0.000 A 
ATOM     11  C   UNL     1       3.075   5.559  18.921  0.00  0.00    +0.000 A 
ENDROOT
BRANCH   1  13
ATOM     12  C   UNL     1       2.011   8.188  17.675  0.00  0.00    +0.000 C 
ATOM     13  C   UNL     1       3.466   7.812  17.895  0.00  0.00    +0.000 C 
ENDBRANCH   1  13
TORSDOF 1
ENDMDL
MODEL 7
REMARK VINA RESULT:      -5.5      2.242      3.886
REMARK  Name = 
REMARK  4 active torsions:
REMARK  status: ('A' for Active; 'I' for Inactive)
REMARK    1  A    between atoms: C_1  and  C_2
REMARK    2  A    between atoms: C_2  and  N_3
REMARK    3  A    between atoms: C_4  and  C_5
REMARK    4  A    between atoms: C_9  and  C_10
REMARK                            x       y       z     vdW  Elec       q    Type
REMARK                         _______ _______ _______ _____ _____    ______ ____
ROOT
ATOM      1  N   UNL     1       2.690   5.695  19.733  0.00  0.00    +0.000 N 
ATOM      2  C   UNL     1       2.289   6.959  19.696  0.00  0.00    +0.000 A 
ATOM      3  C   UNL     1       1.442   7.689  20.676  0.00  0.00    +0.000 C 
ATOM      4  S   UNL     1       2.871   7.754  18.296  0.00  0.00    +0.000 S 
ATOM      5  C   UNL     1       3.704   6.349  17.761  0.00  0.00    +0.000 A 
ATOM      6  C   UNL     1       4.476   6.182  16.600  0.00  0.00    +0.000 A 
ATOM      7  C   UNL     1       5.077   4.937  16.369  0.00  0.00    +0.000 A 
ATOM      8  C   UNL     1       5.906   4.713  15.134  0.00  0.00    +0.000 C 
ATOM      9  C   UNL     1       4.910   3.900  17.290  0.00  0.00    +0.000 A 
ATOM     10  C   UNL     1       4.134   4.072  18.446  0.00  0.00    +0.000 A 
ATOM     11  C   UNL     1       3.513   5.317  18.675  0.00  0.00    +0.000 A 
ENDROOT
BRANCH   1  13
ATOM     12  C   UNL     1       1.036   3.987  20.426  0.00  0.00    +0.000 C 
ATOM     13  C   UNL     1       2.293   4.758  20.791  0.00  0.00    +0.000 C 
ENDBRANCH   1  13
TORSDOF 1
ENDMDL
MODEL 8
REMARK VINA RESULT:      -5.4      2.376      3.769
REMARK  Name = 
REMARK  4 active torsions:
REMARK  status: ('A' for Active; 'I' for Inactive)
REMARK    1  A    between atoms: C_1  and  C_2
REMARK    2  A    between atoms: C_2  and  N_3
REMARK    3  A    between atoms: C_4  and  C_5
REMARK    4  A    between atoms: C_9  and  C_10
REMARK                            x       y       z     vdW  Elec       q    Type
REMARK                         _______ _______ _______ _____ _____    ______ ____
ROOT
ATOM      1  N   UNL     1       2.728   4.310  19.092  0.00  0.00    +0.000 N 
ATOM      2  C   UNL     1       2.366   5.492  19.572  0.00  0.00    +0.000 A 
ATOM      3  C   UNL     1       1.465   5.789  20.717  0.00  0.00    +0.000 C 
ATOM      4  S   UNL     1       3.076   6.769  18.679  0.00  0.00    +0.000 S 
ATOM      5  C   UNL     1       3.909   5.674  17.647  0.00  0.00    +0.000 A 
ATOM      6  C   UNL     1       4.765   5.967  16.574  0.00  0.00    +0.000 A 
ATOM      7  C   UNL     1       5.347   4.903  15.871  0.00  0.00    +0.000 A 
ATOM      8  C   UNL     1       6.263   5.173  14.709  0.00  0.00    +0.000 C 
ATOM      9  C   UNL     1       5.080   3.586  16.253  0.00  0.00    +0.000 A 
ATOM     10  C   UNL     1       4.222   3.299  17.325  0.00  0.00    +0.000 A 
ATOM     11  C   UNL     1       3.620   4.366  18.024  0.00  0.00    +0.000 A 
ENDROOT
BRANCH   1  13
ATOM     12  C   UNL     1       0.962   2.582  18.916  0.00  0.00    +0.000 C 
ATOM     13  C   UNL     1       2.223   3.039  19.627  0.00  0.00    +0.000 C 
ENDBRANCH   1  13
TORSDOF 1
ENDMDL
MODEL 9
REMARK VINA RESULT:      -5.4      2.243      3.357
REMARK  Name = 
REMARK  4 active torsions:
REMARK  status: ('A' for Active; 'I' for Inactive)
REMARK    1  A    between atoms: C_1  and  C_2
REMARK    2  A    between atoms: C_2  and  N_3
REMARK    3  A    between atoms: C_4  and  C_5
REMARK    4  A    between atoms: C_9  and  C_10
REMARK                            x       y       z     vdW  Elec       q    Type
REMARK                         _______ _______ _______ _____ _____    ______ ____
ROOT
ATOM      1  N   UNL     1       2.756   4.246  19.461  0.00  0.00    +0.000 N 
ATOM      2  C   UNL     1       1.974   3.264  19.031  0.00  0.00    +0.000 A 
ATOM      3  C   UNL     1       0.743   2.718  19.661  0.00  0.00    +0.000 C 
ATOM      4  S   UNL     1       2.555   2.607  17.560  0.00  0.00    +0.000 S 
ATOM      5  C   UNL     1       3.874   3.710  17.510  0.00  0.00    +0.000 A 
ATOM      6  C   UNL     1       4.885   3.816  16.542  0.00  0.00    +0.000 A 
ATOM      7  C   UNL     1       5.864   4.806  16.702  0.00  0.00    +0.000 A 
ATOM      8  C   UNL     1       6.970   4.949  15.692  0.00  0.00    +0.000 C 
ATOM      9  C   UNL     1       5.812   5.667  17.800  0.00  0.00    +0.000 A 
ATOM     10  C   UNL     1       4.801   5.554  18.767  0.00  0.00    +0.000 A 
ATOM     11  C   UNL     1       3.824   4.548  18.620  0.00  0.00    +0.000 A 
ENDROOT
BRANCH   1  13
ATOM     12  C   UNL     1       1.683   6.199  20.543  0.00  0.00    +0.000 C 
ATOM     13  C   UNL     1       2.531   4.952  20.728  0.00  0.00    +0.000 C 
ENDBRANCH   1  13
TORSDOF 1
ENDMDL
