MODEL 1
REMARK VINA RESULT:      -8.1      0.000      0.000
REMARK  Name = 
REMARK  7 active torsions:
REMARK  status: ('A' for Active; 'I' for Inactive)
REMARK    1  A    between atoms: C_1  and  O_2
REMARK    2  A    between atoms: O_2  and  C_3
REMARK    3  A    between atoms: C_7  and  O_8
REMARK    4  A    between atoms: O_8  and  C_9
REMARK    5  A    between atoms: C_10  and  C_11
REMARK    6  A    between atoms: N_17  and  C_18
REMARK    7  A    between atoms: C_18  and  C_19
REMARK                            x       y       z     vdW  Elec       q    Type
REMARK                         _______ _______ _______ _____ _____    ______ ____
ROOT
ATOM      1  C   UNL     1       3.844   4.235  19.770  0.00  0.00    +0.000 C 
ATOM      2  C   UNL     1       3.814   2.797  20.318  0.00  0.00    +0.000 C 
ATOM      3  C   UNL     1       2.913   2.723  21.522  0.00  0.00    +0.000 C 
ATOM      4  C   UNL     1       1.515   3.155  21.145  0.00  0.00    +0.000 C 
ATOM      5  C   UNL     1       1.413   4.458  20.376  0.00  0.00    +0.000 C 
ATOM      6  O   UNL     1       0.305   4.989  20.295  0.00  0.00    +0.000 OA
ATOM      7  N   UNL     1       2.541   4.943  19.738  0.00  0.00    +0.000 N 
ENDROOT
BRANCH   1  13
ATOM      8  C   UNL     1       6.001   4.709  18.497  0.00  0.00    +0.000 A 
ATOM      9  C   UNL     1       6.811   4.656  17.354  0.00  0.00    +0.000 A 
ATOM     10  C   UNL     1       6.266   4.300  16.129  0.00  0.00    +0.000 A 
ATOM     11  C   UNL     1       4.916   3.984  16.047  0.00  0.00    +0.000 A 
ATOM     12  C   UNL     1       4.099   3.982  17.188  0.00  0.00    +0.000 A 
ATOM     13  C   UNL     1       4.633   4.311  18.455  0.00  0.00    +0.000 A 
BRANCH   8  15
ATOM     14  C   UNL     1       7.778   5.767  19.648  0.00  0.00    +0.000 C 
ATOM     15  O   UNL     1       6.512   5.111  19.711  0.00  0.00    +0.000 OA
ENDBRANCH   8  15
BRANCH  12  16
ATOM     16  O   UNL     1       2.851   3.471  16.946  0.00  0.00    +0.000 OA
ATOM     17  C   UNL     1       2.618   2.127  17.353  0.00  0.00    +0.000 C 
ENDBRANCH  12  16
ENDBRANCH   1  13
BRANCH   7  18
ATOM     18  C   UNL     1       2.571   6.272  19.081  0.00  0.00    +0.000 C 
BRANCH  18  19
ATOM     19  C   UNL     1       2.006   7.502  19.736  0.00  0.00    +0.000 A 
ATOM     20  N   UNL     1       1.574   7.499  20.985  0.00  0.00    +0.000 NA
ATOM     21  C   UNL     1       0.945   8.694  21.280  0.00  0.00    +0.000 A 
ATOM     22  C   UNL     1       0.359   9.028  22.520  0.00  0.00    +0.000 A 
ATOM     23  C   UNL     1      -0.239  10.285  22.690  0.00  0.00    +0.000 A 
ATOM     24  C   UNL     1      -0.260  11.204  21.644  0.00  0.00    +0.000 A 
ATOM     25  C   UNL     1       0.304  10.884  20.402  0.00  0.00    +0.000 A 
ATOM     26  C   UNL     1       0.892   9.617  20.235  0.00  0.00    +0.000 A 
ATOM     27  S   UNL     1       1.600   8.911  18.831  0.00  0.00    +0.000 S 
ENDBRANCH  18  19
ENDBRANCH   7  18
TORSDOF 5
ENDMDL
MODEL 2
REMARK VINA RESULT:      -7.7      0.192      2.453
REMARK  Name = 
REMARK  7 active torsions:
REMARK  status: ('A' for Active; 'I' for Inactive)
REMARK    1  A    between atoms: C_1  and  O_2
REMARK    2  A    between atoms: O_2  and  C_3
REMARK    3  A    between atoms: C_7  and  O_8
REMARK    4  A    between atoms: O_8  and  C_9
REMARK    5  A    between atoms: C_10  and  C_11
REMARK    6  A    between atoms: N_17  and  C_18
REMARK    7  A    between atoms: C_18  and  C_19
REMARK                            x       y       z     vdW  Elec       q    Type
REMARK                         _______ _______ _______ _____ _____    ______ ____
ROOT
ATOM      1  C   UNL     1       3.775   4.214  19.923  0.00  0.00    +0.000 C 
ATOM      2  C   UNL     1       3.702   2.772  20.457  0.00  0.00    +0.000 C 
ATOM      3  C   UNL     1       2.736   2.698  21.609  0.00  0.00    +0.000 C 
ATOM      4  C   UNL     1       1.364   3.146  21.159  0.00  0.00    +0.000 C 
ATOM      5  C   UNL     1       1.316   4.455  20.395  0.00  0.00    +0.000 C 
ATOM      6  O   UNL     1       0.219   4.997  20.257  0.00  0.00    +0.000 OA
ATOM      7  N   UNL     1       2.482   4.934  19.824  0.00  0.00    +0.000 N 
ENDROOT
BRANCH   1  13
ATOM      8  C   UNL     1       4.048   3.945  17.403  0.00  0.00    +0.000 A 
ATOM      9  C   UNL     1       4.734   4.137  16.196  0.00  0.00    +0.000 A 
ATOM     10  C   UNL     1       6.045   4.587  16.203  0.00  0.00    +0.000 A 
ATOM     11  C   UNL     1       6.669   4.859  17.415  0.00  0.00    +0.000 A 
ATOM     12  C   UNL     1       5.983   4.721  18.632  0.00  0.00    +0.000 A 
ATOM     13  C   UNL     1       4.636   4.293  18.653  0.00  0.00    +0.000 A 
BRANCH   8  15
ATOM     14  C   UNL     1       2.664   2.025  17.453  0.00  0.00    +0.000 C 
ATOM     15  O   UNL     1       2.762   3.448  17.418  0.00  0.00    +0.000 OA
ENDBRANCH   8  15
BRANCH  12  16
ATOM     16  O   UNL     1       6.693   5.206  19.698  0.00  0.00    +0.000 OA
ATOM     17  C   UNL     1       7.918   5.871  19.404  0.00  0.00    +0.000 C 
ENDBRANCH  12  16
ENDBRANCH   1  13
BRANCH   7  18
ATOM     18  C   UNL     1       2.560   6.267  19.180  0.00  0.00    +0.000 C 
BRANCH  18  19
ATOM     19  C   UNL     1       1.995   7.503  19.825  0.00  0.00    +0.000 A 
ATOM     20  N   UNL     1       1.524   7.500  21.060  0.00  0.00    +0.000 NA
ATOM     21  C   UNL     1       0.907   8.703  21.344  0.00  0.00    +0.000 A 
ATOM     22  C   UNL     1       0.288   9.039  22.567  0.00  0.00    +0.000 A 
ATOM     23  C   UNL     1      -0.293  10.305  22.727  0.00  0.00    +0.000 A 
ATOM     24  C   UNL     1      -0.266  11.231  21.686  0.00  0.00    +0.000 A 
ATOM     25  C   UNL     1       0.331  10.909  20.461  0.00  0.00    +0.000 A 
ATOM     26  C   UNL     1       0.902   9.633  20.304  0.00  0.00    +0.000 A 
ATOM     27  S   UNL     1       1.642   8.924  18.918  0.00  0.00    +0.000 S 
ENDBRANCH  18  19
ENDBRANCH   7  18
TORSDOF 5
ENDMDL
MODEL 3
REMARK VINA RESULT:      -7.5      0.892      1.369
REMARK  Name = 
REMARK  7 active torsions:
REMARK  status: ('A' for Active; 'I' for Inactive)
REMARK    1  A    between atoms: C_1  and  O_2
REMARK    2  A    between atoms: O_2  and  C_3
REMARK    3  A    between atoms: C_7  and  O_8
REMARK    4  A    between atoms: O_8  and  C_9
REMARK    5  A    between atoms: C_10  and  C_11
REMARK    6  A    between atoms: N_17  and  C_18
REMARK    7  A    between atoms: C_18  and  C_19
REMARK                            x       y       z     vdW  Elec       q    Type
REMARK                         _______ _______ _______ _____ _____    ______ ____
ROOT
ATOM      1  C   UNL     1       3.943   4.243  19.794  0.00  0.00    +0.000 C 
ATOM      2  C   UNL     1       3.736   2.780  20.226  0.00  0.00    +0.000 C 
ATOM      3  C   UNL     1       2.847   2.722  21.439  0.00  0.00    +0.000 C 
ATOM      4  C   UNL     1       1.510   3.356  21.127  0.00  0.00    +0.000 C 
ATOM      5  C   UNL     1       1.566   4.720  20.466  0.00  0.00    +0.000 C 
ATOM      6  O   UNL     1       0.534   5.391  20.451  0.00  0.00    +0.000 OA
ATOM      7  N   UNL     1       2.740   5.109  19.845  0.00  0.00    +0.000 N 
ENDROOT
BRANCH   1  13
ATOM      8  C   UNL     1       6.098   4.694  18.509  0.00  0.00    +0.000 A 
ATOM      9  C   UNL     1       6.896   4.645  17.358  0.00  0.00    +0.000 A 
ATOM     10  C   UNL     1       6.333   4.325  16.132  0.00  0.00    +0.000 A 
ATOM     11  C   UNL     1       4.975   4.041  16.056  0.00  0.00    +0.000 A 
ATOM     12  C   UNL     1       4.168   4.034  17.205  0.00  0.00    +0.000 A 
ATOM     13  C   UNL     1       4.721   4.327  18.473  0.00  0.00    +0.000 A 
BRANCH   8  15
ATOM     14  C   UNL     1       7.884   5.737  19.660  0.00  0.00    +0.000 C 
ATOM     15  O   UNL     1       6.629   5.061  19.726  0.00  0.00    +0.000 OA
ENDBRANCH   8  15
BRANCH  12  16
ATOM     16  O   UNL     1       2.907   3.556  16.965  0.00  0.00    +0.000 OA
ATOM     17  C   UNL     1       2.673   2.184  17.266  0.00  0.00    +0.000 C 
ENDBRANCH  12  16
ENDBRANCH   1  13
BRANCH   7  18
ATOM     18  C   UNL     1       2.932   6.473  19.296  0.00  0.00    +0.000 C 
BRANCH  18  19
ATOM     19  C   UNL     1       2.008   7.611  19.638  0.00  0.00    +0.000 A 
ATOM     20  N   UNL     1       1.565   8.456  18.724  0.00  0.00    +0.000 NA
ATOM     21  C   UNL     1       0.887   9.500  19.322  0.00  0.00    +0.000 A 
ATOM     22  C   UNL     1       0.289  10.585  18.646  0.00  0.00    +0.000 A 
ATOM     23  C   UNL     1      -0.382  11.577  19.376  0.00  0.00    +0.000 A 
ATOM     24  C   UNL     1      -0.459  11.499  20.765  0.00  0.00    +0.000 A 
ATOM     25  C   UNL     1       0.141  10.437  21.454  0.00  0.00    +0.000 A 
ATOM     26  C   UNL     1       0.821   9.453  20.715  0.00  0.00    +0.000 A 
ATOM     27  S   UNL     1       1.704   8.079  21.267  0.00  0.00    +0.000 S 
ENDBRANCH  18  19
ENDBRANCH   7  18
TORSDOF 5
ENDMDL
MODEL 4
REMARK VINA RESULT:      -7.4      3.687      7.942
REMARK  Name = 
REMARK  7 active torsions:
REMARK  status: ('A' for Active; 'I' for Inactive)
REMARK    1  A    between atoms: C_1  and  O_2
REMARK    2  A    between atoms: O_2  and  C_3
REMARK    3  A    between atoms: C_7  and  O_8
REMARK    4  A    between atoms: O_8  and  C_9
REMARK    5  A    between atoms: C_10  and  C_11
REMARK    6  A    between atoms: N_17  and  C_18
REMARK    7  A    between atoms: C_18  and  C_19
REMARK                            x       y       z     vdW  Elec       q    Type
REMARK                         _______ _______ _______ _____ _____    ______ ____
ROOT
ATOM      1  C   UNL     1       5.519   4.926  17.905  0.00  0.00    +0.000 C 
ATOM      2  C   UNL     1       6.091   4.840  19.331  0.00  0.00    +0.000 C 
ATOM      3  C   UNL     1       7.571   5.114  19.309  0.00  0.00    +0.000 C 
ATOM      4  C   UNL     1       7.832   6.488  18.736  0.00  0.00    +0.000 C 
ATOM      5  C   UNL     1       7.126   6.803  17.431  0.00  0.00    +0.000 C 
ATOM      6  O   UNL     1       7.519   7.777  16.789  0.00  0.00    +0.000 OA
ATOM      7  N   UNL     1       6.032   6.037  17.066  0.00  0.00    +0.000 N 
ENDROOT
BRANCH   1  13
ATOM      8  C   UNL     1       3.403   3.512  17.750  0.00  0.00    +0.000 A 
ATOM      9  C   UNL     1       2.023   3.314  17.895  0.00  0.00    +0.000 A 
ATOM     10  C   UNL     1       1.182   4.396  18.109  0.00  0.00    +0.000 A 
ATOM     11  C   UNL     1       1.719   5.674  18.192  0.00  0.00    +0.000 A 
ATOM     12  C   UNL     1       3.103   5.889  18.100  0.00  0.00    +0.000 A 
ATOM     13  C   UNL     1       3.988   4.802  17.912  0.00  0.00    +0.000 A 
BRANCH   8  15
ATOM     14  C   UNL     1       3.930   1.242  18.162  0.00  0.00    +0.000 C 
ATOM     15  O   UNL     1       4.248   2.457  17.485  0.00  0.00    +0.000 OA
ENDBRANCH   8  15
BRANCH  12  16
ATOM     16  O   UNL     1       3.460   7.180  18.386  0.00  0.00    +0.000 OA
ATOM     17  C   UNL     1       2.622   8.207  17.867  0.00  0.00    +0.000 C 
ENDBRANCH  12  16
ENDBRANCH   1  13
BRANCH   7  18
ATOM     18  C   UNL     1       5.368   6.181  15.749  0.00  0.00    +0.000 C 
BRANCH  18  19
ATOM     19  C   UNL     1       5.737   5.326  14.568  0.00  0.00    +0.000 A 
ATOM     20  N   UNL     1       4.856   4.556  13.954  0.00  0.00    +0.000 NA
ATOM     21  C   UNL     1       5.486   3.748  13.027  0.00  0.00    +0.000 A 
ATOM     22  C   UNL     1       4.850   2.798  12.199  0.00  0.00    +0.000 A 
ATOM     23  C   UNL     1       5.608   2.048  11.289  0.00  0.00    +0.000 A 
ATOM     24  C   UNL     1       6.986   2.233  11.199  0.00  0.00    +0.000 A 
ATOM     25  C   UNL     1       7.637   3.161  12.023  0.00  0.00    +0.000 A 
ATOM     26  C   UNL     1       6.870   3.901  12.941  0.00  0.00    +0.000 A 
ATOM     27  S   UNL     1       7.377   5.053  14.118  0.00  0.00    +0.000 S 
ENDBRANCH  18  19
ENDBRANCH   7  18
TORSDOF 5
ENDMDL
MODEL 5
REMARK VINA RESULT:      -7.2      1.051      2.871
REMARK  Name = 
REMARK  7 active torsions:
REMARK  status: ('A' for Active; 'I' for Inactive)
REMARK    1  A    between atoms: C_1  and  O_2
REMARK    2  A    between atoms: O_2  and  C_3
REMARK    3  A    between atoms: C_7  and  O_8
REMARK    4  A    between atoms: O_8  and  C_9
REMARK    5  A    between atoms: C_10  and  C_11
REMARK    6  A    between atoms: N_17  and  C_18
REMARK    7  A    between atoms: C_18  and  C_19
REMARK                            x       y       z     vdW  Elec       q    Type
REMARK                         _______ _______ _______ _____ _____    ______ ____
ROOT
ATOM      1  C   UNL     1       4.003   4.002  20.020  0.00  0.00    +0.000 C 
ATOM      2  C   UNL     1       3.695   2.536  20.375  0.00  0.00    +0.000 C 
ATOM      3  C   UNL     1       2.713   2.478  21.514  0.00  0.00    +0.000 C 
ATOM      4  C   UNL     1       1.436   3.189  21.130  0.00  0.00    +0.000 C 
ATOM      5  C   UNL     1       1.607   4.573  20.532  0.00  0.00    +0.000 C 
ATOM      6  O   UNL     1       0.612   5.295  20.468  0.00  0.00    +0.000 OA
ATOM      7  N   UNL     1       2.842   4.926  20.017  0.00  0.00    +0.000 N 
ENDROOT
BRANCH   1  13
ATOM      8  C   UNL     1       4.382   3.580  17.535  0.00  0.00    +0.000 A 
ATOM      9  C   UNL     1       5.073   3.769  16.330  0.00  0.00    +0.000 A 
ATOM     10  C   UNL     1       6.313   4.387  16.326  0.00  0.00    +0.000 A 
ATOM     11  C   UNL     1       6.860   4.830  17.524  0.00  0.00    +0.000 A 
ATOM     12  C   UNL     1       6.163   4.697  18.735  0.00  0.00    +0.000 A 
ATOM     13  C   UNL     1       4.883   4.097  18.765  0.00  0.00    +0.000 A 
BRANCH   8  15
ATOM     14  C   UNL     1       2.078   3.638  16.997  0.00  0.00    +0.000 C 
ATOM     15  O   UNL     1       3.173   2.920  17.565  0.00  0.00    +0.000 OA
ENDBRANCH   8  15
BRANCH  12  16
ATOM     16  O   UNL     1       6.773   5.351  19.773  0.00  0.00    +0.000 OA
ATOM     17  C   UNL     1       8.099   5.816  19.547  0.00  0.00    +0.000 C 
ENDBRANCH  12  16
ENDBRANCH   1  13
BRANCH   7  18
ATOM     18  C   UNL     1       3.139   6.298  19.540  0.00  0.00    +0.000 C 
BRANCH  18  19
ATOM     19  C   UNL     1       2.147   7.422  19.666  0.00  0.00    +0.000 A 
ATOM     20  N   UNL     1       1.757   8.136  18.625  0.00  0.00    +0.000 NA
ATOM     21  C   UNL     1       0.990   9.208  19.037  0.00  0.00    +0.000 A 
ATOM     22  C   UNL     1       0.416  10.181  18.190  0.00  0.00    +0.000 A 
ATOM     23  C   UNL     1      -0.354  11.215  18.739  0.00  0.00    +0.000 A 
ATOM     24  C   UNL     1      -0.554  11.291  20.116  0.00  0.00    +0.000 A 
ATOM     25  C   UNL     1       0.019  10.343  20.973  0.00  0.00    +0.000 A 
ATOM     26  C   UNL     1       0.800   9.315  20.415  0.00  0.00    +0.000 A 
ATOM     27  S   UNL     1       1.679   8.056  21.198  0.00  0.00    +0.000 S 
ENDBRANCH  18  19
ENDBRANCH   7  18
TORSDOF 5
ENDMDL
MODEL 6
REMARK VINA RESULT:      -7.2      1.612      3.180
REMARK  Name = 
REMARK  7 active torsions:
REMARK  status: ('A' for Active; 'I' for Inactive)
REMARK    1  A    between atoms: C_1  and  O_2
REMARK    2  A    between atoms: O_2  and  C_3
REMARK    3  A    between atoms: C_7  and  O_8
REMARK    4  A    between atoms: O_8  and  C_9
REMARK    5  A    between atoms: C_10  and  C_11
REMARK    6  A    between atoms: N_17  and  C_18
REMARK    7  A    between atoms: C_18  and  C_19
REMARK                            x       y       z     vdW  Elec       q    Type
REMARK                         _______ _______ _______ _____ _____    ______ ____
ROOT
ATOM      1  C   UNL     1       4.735   3.853  18.551  0.00  0.00    +0.000 C 
ATOM      2  C   UNL     1       4.630   2.700  17.537  0.00  0.00    +0.000 C 
ATOM      3  C   UNL     1       3.537   1.750  17.949  0.00  0.00    +0.000 C 
ATOM      4  C   UNL     1       2.218   2.486  18.023  0.00  0.00    +0.000 C 
ATOM      5  C   UNL     1       2.233   3.787  18.803  0.00  0.00    +0.000 C 
ATOM      6  O   UNL     1       1.148   4.270  19.129  0.00  0.00    +0.000 OA
ATOM      7  N   UNL     1       3.448   4.407  19.037  0.00  0.00    +0.000 N 
ENDROOT
BRANCH   1  13
ATOM      8  C   UNL     1       5.597   5.459  16.769  0.00  0.00    +0.000 A 
ATOM      9  C   UNL     1       6.386   6.535  16.337  0.00  0.00    +0.000 A 
ATOM     10  C   UNL     1       7.391   7.034  17.152  0.00  0.00    +0.000 A 
ATOM     11  C   UNL     1       7.600   6.470  18.404  0.00  0.00    +0.000 A 
ATOM     12  C   UNL     1       6.789   5.427  18.876  0.00  0.00    +0.000 A 
ATOM     13  C   UNL     1       5.738   4.917  18.079  0.00  0.00    +0.000 A 
BRANCH   8  15
ATOM     14  C   UNL     1       5.060   4.603  14.629  0.00  0.00    +0.000 C 
ATOM     15  O   UNL     1       4.630   4.915  15.953  0.00  0.00    +0.000 OA
ENDBRANCH   8  15
BRANCH  12  16
ATOM     16  O   UNL     1       7.024   5.126  20.192  0.00  0.00    +0.000 OA
ATOM     17  C   UNL     1       8.370   5.230  20.643  0.00  0.00    +0.000 C 
ENDBRANCH  12  16
ENDBRANCH   1  13
BRANCH   7  18
ATOM     18  C   UNL     1       3.573   5.603  19.904  0.00  0.00    +0.000 C 
BRANCH  18  19
ATOM     19  C   UNL     1       2.824   6.877  19.624  0.00  0.00    +0.000 A 
ATOM     20  N   UNL     1       2.008   7.424  20.508  0.00  0.00    +0.000 NA
ATOM     21  C   UNL     1       1.317   8.476  19.940  0.00  0.00    +0.000 A 
ATOM     22  C   UNL     1       0.358   9.278  20.596  0.00  0.00    +0.000 A 
ATOM     23  C   UNL     1      -0.264  10.326  19.904  0.00  0.00    +0.000 A 
ATOM     24  C   UNL     1       0.057  10.581  18.572  0.00  0.00    +0.000 A 
ATOM     25  C   UNL     1       0.996   9.787  17.901  0.00  0.00    +0.000 A 
ATOM     26  C   UNL     1       1.606   8.730  18.599  0.00  0.00    +0.000 A 
ATOM     27  S   UNL     1       2.735   7.552  18.041  0.00  0.00    +0.000 S 
ENDBRANCH  18  19
ENDBRANCH   7  18
TORSDOF 5
ENDMDL
MODEL 7
REMARK VINA RESULT:      -7.1      1.035      1.280
REMARK  Name = 
REMARK  7 active torsions:
REMARK  status: ('A' for Active; 'I' for Inactive)
REMARK    1  A    between atoms: C_1  and  O_2
REMARK    2  A    between atoms: O_2  and  C_3
REMARK    3  A    between atoms: C_7  and  O_8
REMARK    4  A    between atoms: O_8  and  C_9
REMARK    5  A    between atoms: C_10  and  C_11
REMARK    6  A    between atoms: N_17  and  C_18
REMARK    7  A    between atoms: C_18  and  C_19
REMARK                            x       y       z     vdW  Elec       q    Type
REMARK                         _______ _______ _______ _____ _____    ______ ____
ROOT
ATOM      1  C   UNL     1       4.088   4.000  19.712  0.00  0.00    +0.000 C 
ATOM      2  C   UNL     1       3.599   2.563  19.966  0.00  0.00    +0.000 C 
ATOM      3  C   UNL     1       2.812   2.505  21.248  0.00  0.00    +0.000 C 
ATOM      4  C   UNL     1       1.628   3.440  21.167  0.00  0.00    +0.000 C 
ATOM      5  C   UNL     1       1.931   4.848  20.691  0.00  0.00    +0.000 C 
ATOM      6  O   UNL     1       1.073   5.712  20.875  0.00  0.00    +0.000 OA
ATOM      7  N   UNL     1       3.111   5.077  20.005  0.00  0.00    +0.000 N 
ENDROOT
BRANCH   1  13
ATOM      8  C   UNL     1       6.127   4.530  18.278  0.00  0.00    +0.000 A 
ATOM      9  C   UNL     1       6.839   4.518  17.071  0.00  0.00    +0.000 A 
ATOM     10  C   UNL     1       6.197   4.195  15.885  0.00  0.00    +0.000 A 
ATOM     11  C   UNL     1       4.846   3.870  15.906  0.00  0.00    +0.000 A 
ATOM     12  C   UNL     1       4.127   3.827  17.111  0.00  0.00    +0.000 A 
ATOM     13  C   UNL     1       4.763   4.122  18.338  0.00  0.00    +0.000 A 
BRANCH   8  15
ATOM     14  C   UNL     1       7.797   5.844  19.321  0.00  0.00    +0.000 C 
ATOM     15  O   UNL     1       6.736   4.900  19.458  0.00  0.00    +0.000 OA
ENDBRANCH   8  15
BRANCH  12  16
ATOM     16  O   UNL     1       2.867   3.312  16.958  0.00  0.00    +0.000 OA
ATOM     17  C   UNL     1       1.779   4.198  17.199  0.00  0.00    +0.000 C 
ENDBRANCH  12  16
ENDBRANCH   1  13
BRANCH   7  18
ATOM     18  C   UNL     1       3.555   6.440  19.625  0.00  0.00    +0.000 C 
BRANCH  18  19
ATOM     19  C   UNL     1       2.584   7.571  19.424  0.00  0.00    +0.000 A 
ATOM     20  N   UNL     1       1.962   8.154  20.434  0.00  0.00    +0.000 NA
ATOM     21  C   UNL     1       1.003   9.031  19.967  0.00  0.00    +0.000 A 
ATOM     22  C   UNL     1       0.147   9.815  20.771  0.00  0.00    +0.000 A 
ATOM     23  C   UNL     1      -0.779  10.677  20.167  0.00  0.00    +0.000 A 
ATOM     24  C   UNL     1      -0.862  10.763  18.779  0.00  0.00    +0.000 A 
ATOM     25  C   UNL     1      -0.031   9.981  17.965  0.00  0.00    +0.000 A 
ATOM     26  C   UNL     1       0.888   9.111  18.579  0.00  0.00    +0.000 A 
ATOM     27  S   UNL     1       1.984   7.990  17.864  0.00  0.00    +0.000 S 
ENDBRANCH  18  19
ENDBRANCH   7  18
TORSDOF 5
ENDMDL
MODEL 8
REMARK VINA RESULT:      -7.1      3.907      9.259
REMARK  Name = 
REMARK  7 active torsions:
REMARK  status: ('A' for Active; 'I' for Inactive)
REMARK    1  A    between atoms: C_1  and  O_2
REMARK    2  A    between atoms: O_2  and  C_3
REMARK    3  A    between atoms: C_7  and  O_8
REMARK    4  A    between atoms: O_8  and  C_9
REMARK    5  A    between atoms: C_10  and  C_11
REMARK    6  A    between atoms: N_17  and  C_18
REMARK    7  A    between atoms: C_18  and  C_19
REMARK                            x       y       z     vdW  Elec       q    Type
REMARK                         _______ _______ _______ _____ _____    ______ ____
ROOT
ATOM      1  C   UNL     1       0.978  12.801  21.033  0.00  0.00    +0.000 C 
ATOM      2  C   UNL     1       1.682  14.061  21.567  0.00  0.00    +0.000 C 
ATOM      3  C   UNL     1       3.066  14.165  20.983  0.00  0.00    +0.000 C 
ATOM      4  C   UNL     1       2.984  14.226  19.475  0.00  0.00    +0.000 C 
ATOM      5  C   UNL     1       2.113  13.172  18.818  0.00  0.00    +0.000 C 
ATOM      6  O   UNL     1       2.236  13.003  17.605  0.00  0.00    +0.000 OA
ATOM      7  N   UNL     1       1.173  12.513  19.591  0.00  0.00    +0.000 N 
ENDROOT
BRANCH   1  13
ATOM      8  C   UNL     1      -0.863  11.791  22.478  0.00  0.00    +0.000 A 
ATOM      9  C   UNL     1      -2.146  11.791  23.042  0.00  0.00    +0.000 A 
ATOM     10  C   UNL     1      -3.112  12.671  22.578  0.00  0.00    +0.000 A 
ATOM     11  C   UNL     1      -2.793  13.562  21.560  0.00  0.00    +0.000 A 
ATOM     12  C   UNL     1      -1.500  13.612  21.017  0.00  0.00    +0.000 A 
ATOM     13  C   UNL     1      -0.487  12.747  21.491  0.00  0.00    +0.000 A 
BRANCH   8  15
ATOM     14  C   UNL     1      -0.412   9.626  23.323  0.00  0.00    +0.000 C 
ATOM     15  O   UNL     1       0.094  10.888  22.889  0.00  0.00    +0.000 OA
ENDBRANCH   8  15
BRANCH  12  16
ATOM     16  O   UNL     1      -1.326  14.668  20.161  0.00  0.00    +0.000 OA
ATOM     17  C   UNL     1      -1.757  15.944  20.620  0.00  0.00    +0.000 C 
ENDBRANCH  12  16
ENDBRANCH   1  13
BRANCH   7  18
ATOM     18  C   UNL     1       0.377  11.375  19.070  0.00  0.00    +0.000 C 
BRANCH  18  19
ATOM     19  C   UNL     1       0.906   9.968  19.054  0.00  0.00    +0.000 A 
ATOM     20  N   UNL     1       0.775   9.154  20.087  0.00  0.00    +0.000 NA
ATOM     21  C   UNL     1       1.499   7.995  19.882  0.00  0.00    +0.000 A 
ATOM     22  C   UNL     1       1.589   6.913  20.785  0.00  0.00    +0.000 A 
ATOM     23  C   UNL     1       2.352   5.787  20.447  0.00  0.00    +0.000 A 
ATOM     24  C   UNL     1       3.024   5.729  19.228  0.00  0.00    +0.000 A 
ATOM     25  C   UNL     1       2.957   6.799  18.326  0.00  0.00    +0.000 A 
ATOM     26  C   UNL     1       2.199   7.930  18.677  0.00  0.00    +0.000 A 
ATOM     27  S   UNL     1       1.978   9.412  17.824  0.00  0.00    +0.000 S 
ENDBRANCH  18  19
ENDBRANCH   7  18
TORSDOF 5
ENDMDL
MODEL 9
REMARK VINA RESULT:      -7.1      8.865     10.894
REMARK  Name = 
REMARK  7 active torsions:
REMARK  status: ('A' for Active; 'I' for Inactive)
REMARK    1  A    between atoms: C_1  and  O_2
REMARK    2  A    between atoms: O_2  and  C_3
REMARK    3  A    between atoms: C_7  and  O_8
REMARK    4  A    between atoms: O_8  and  C_9
REMARK    5  A    between atoms: C_10  and  C_11
REMARK    6  A    between atoms: N_17  and  C_18
REMARK    7  A    between atoms: C_18  and  C_19
REMARK                            x       y       z     vdW  Elec       q    Type
REMARK                         _______ _______ _______ _____ _____    ______ ____
ROOT
ATOM      1  C   UNL     1       7.947  14.149  18.688  0.00  0.00    +0.000 C 
ATOM      2  C   UNL     1       6.982  14.355  17.506  0.00  0.00    +0.000 C 
ATOM      3  C   UNL     1       5.637  14.803  18.011  0.00  0.00    +0.000 C 
ATOM      4  C   UNL     1       5.782  16.096  18.782  0.00  0.00    +0.000 C 
ATOM      5  C   UNL     1       6.875  16.117  19.833  0.00  0.00    +0.000 C 
ATOM      6  O   UNL     1       6.850  17.023  20.666  0.00  0.00    +0.000 OA
ATOM      7  N   UNL     1       7.886  15.174  19.759  0.00  0.00    +0.000 N 
ENDROOT
BRANCH   1  13
ATOM      8  C   UNL     1       9.863  12.508  18.326  0.00  0.00    +0.000 A 
ATOM      9  C   UNL     1      11.091  12.129  17.765  0.00  0.00    +0.000 A 
ATOM     10  C   UNL     1      11.897  13.074  17.150  0.00  0.00    +0.000 A 
ATOM     11  C   UNL     1      11.473  14.396  17.081  0.00  0.00    +0.000 A 
ATOM     12  C   UNL     1      10.225  14.786  17.591  0.00  0.00    +0.000 A 
ATOM     13  C   UNL     1       9.369  13.838  18.198  0.00  0.00    +0.000 A 
BRANCH   8  15
ATOM     14  C   UNL     1       9.034  10.292  18.404  0.00  0.00    +0.000 C 
ATOM     15  O   UNL     1       9.072  11.593  18.987  0.00  0.00    +0.000 OA
ENDBRANCH   8  15
BRANCH  12  16
ATOM     16  O   UNL     1       9.902  16.078  17.272  0.00  0.00    +0.000 OA
ATOM     17  C   UNL     1      10.478  17.101  18.078  0.00  0.00    +0.000 C 
ENDBRANCH  12  16
ENDBRANCH   1  13
BRANCH   7  18
ATOM     18  C   UNL     1       8.916  15.032  20.816  0.00  0.00    +0.000 C 
BRANCH  18  19
ATOM     19  C   UNL     1       8.647  14.299  22.102  0.00  0.00    +0.000 A 
ATOM     20  N   UNL     1       7.918  13.197  22.146  0.00  0.00    +0.000 NA
ATOM     21  C   UNL     1       7.679  12.830  23.456  0.00  0.00    +0.000 A 
ATOM     22  C   UNL     1       6.928  11.708  23.870  0.00  0.00    +0.000 A 
ATOM     23  C   UNL     1       6.771  11.442  25.237  0.00  0.00    +0.000 A 
ATOM     24  C   UNL     1       7.349  12.278  26.189  0.00  0.00    +0.000 A 
ATOM     25  C   UNL     1       8.085  13.404  25.798  0.00  0.00    +0.000 A 
ATOM     26  C   UNL     1       8.228  13.671  24.424  0.00  0.00    +0.000 A 
ATOM     27  S   UNL     1       9.007  14.992  23.638  0.00  0.00    +0.000 S 
ENDBRANCH  18  19
ENDBRANCH   7  18
TORSDOF 5
ENDMDL
