MODEL 1
REMARK VINA RESULT:      -8.8      0.000      0.000
REMARK  Name = 
REMARK  5 active torsions:
REMARK  status: ('A' for Active; 'I' for Inactive)
REMARK    1  A    between atoms: C_2  and  C_15
REMARK    2  A    between atoms: N_3  and  C_4
REMARK    3  A    between atoms: C_4  and  C_5
REMARK    4  A    between atoms: C_10  and  C_11
REMARK    5  A    between atoms: C_17  and  C_18
REMARK                            x       y       z     vdW  Elec       q    Type
REMARK                         _______ _______ _______ _____ _____    ______ ____
ROOT
ATOM      1  O   UNL     1       5.338   6.925  17.558  0.00  0.00    +0.000 OA
ATOM      2  C   UNL     1       5.612   5.737  17.697  0.00  0.00    +0.000 C 
ATOM      3  N   UNL     1       5.052   4.951  18.681  0.00  0.00    +0.000 N 
ATOM      4  H   UNL     1       5.385   3.996  18.784  0.00  0.00    +0.000 HD
ENDROOT
BRANCH   2   5
ATOM      5  C   UNL     1       6.514   4.979  16.716  0.00  0.00    +0.000 C 
ATOM      6  C   UNL     1       5.711   4.155  15.742  0.00  0.00    +0.000 C 
ATOM      7  C   UNL     1       6.460   4.453  14.494  0.00  0.00    +0.000 C 
ATOM      8  N   UNL     1       7.358   5.379  14.602  0.00  0.00    +0.000 NA
ATOM      9  O   UNL     1       7.308   5.867  15.929  0.00  0.00    +0.000 OA
BRANCH   7  10
ATOM     10  C   UNL     1       6.152   3.756  13.222  0.00  0.00    +0.000 A 
ATOM     11  C   UNL     1       4.828   3.708  12.763  0.00  0.00    +0.000 A 
ATOM     12  C   UNL     1       4.510   3.010  11.594  0.00  0.00    +0.000 A 
ATOM     13  C   UNL     1       5.514   2.358  10.880  0.00  0.00    +0.000 A 
ATOM     14  C   UNL     1       6.825   2.418  11.336  0.00  0.00    +0.000 A 
ATOM     15  F   UNL     1       7.790   1.788  10.652  0.00  0.00    +0.000 F 
ATOM     16  C   UNL     1       7.157   3.111  12.495  0.00  0.00    +0.000 A 
ENDBRANCH   7  10
ENDBRANCH   2   5
BRANCH   3  17
ATOM     17  C   UNL     1       4.143   5.476  19.673  0.00  0.00    +0.000 C 
BRANCH  17  18
ATOM     18  C   UNL     1       3.020   4.517  20.006  0.00  0.00    +0.000 A 
ATOM     19  C   UNL     1       2.985   3.974  21.307  0.00  0.00    +0.000 A 
ATOM     20  C   UNL     1       1.981   3.088  21.699  0.00  0.00    +0.000 A 
ATOM     21  C   UNL     1       0.998   2.711  20.794  0.00  0.00    +0.000 A 
ATOM     22  C   UNL     1       1.010   3.239  19.504  0.00  0.00    +0.000 A 
ATOM     23  C   UNL     1       2.004   4.155  19.091  0.00  0.00    +0.000 A 
BRANCH  23  24
ATOM     24  C   UNL     1       1.886   4.695  17.683  0.00  0.00    +0.000 C 
ATOM     25  F   UNL     1       0.668   4.540  17.095  0.00  0.00    +0.000 F 
ATOM     26  F   UNL     1       2.157   6.029  17.614  0.00  0.00    +0.000 F 
ATOM     27  F   UNL     1       2.771   4.096  16.834  0.00  0.00    +0.000 F 
ENDBRANCH  23  24
ENDBRANCH  17  18
ENDBRANCH   3  17
TORSDOF 5
ENDMDL
MODEL 2
REMARK VINA RESULT:      -8.8      1.244      1.357
REMARK  Name = 
REMARK  5 active torsions:
REMARK  status: ('A' for Active; 'I' for Inactive)
REMARK    1  A    between atoms: C_2  and  C_15
REMARK    2  A    between atoms: N_3  and  C_4
REMARK    3  A    between atoms: C_4  and  C_5
REMARK    4  A    between atoms: C_10  and  C_11
REMARK    5  A    between atoms: C_17  and  C_18
REMARK                            x       y       z     vdW  Elec       q    Type
REMARK                         _______ _______ _______ _____ _____    ______ ____
ROOT
ATOM      1  O   UNL     1       6.761   5.824  18.597  0.00  0.00    +0.000 OA
ATOM      2  C   UNL     1       6.588   4.797  17.948  0.00  0.00    +0.000 C 
ATOM      3  N   UNL     1       5.705   3.810  18.331  0.00  0.00    +0.000 N 
ATOM      4  H   UNL     1       5.673   2.953  17.787  0.00  0.00    +0.000 HD
ENDROOT
BRANCH   2   5
ATOM      5  C   UNL     1       7.249   4.563  16.585  0.00  0.00    +0.000 C 
ATOM      6  C   UNL     1       6.453   3.605  15.736  0.00  0.00    +0.000 C 
ATOM      7  C   UNL     1       6.542   4.307  14.429  0.00  0.00    +0.000 C 
ATOM      8  N   UNL     1       7.064   5.491  14.478  0.00  0.00    +0.000 NA
ATOM      9  O   UNL     1       7.359   5.770  15.832  0.00  0.00    +0.000 OA
BRANCH   7  10
ATOM     10  C   UNL     1       6.023   3.692  13.183  0.00  0.00    +0.000 A 
ATOM     11  C   UNL     1       4.726   4.000  12.748  0.00  0.00    +0.000 A 
ATOM     12  C   UNL     1       4.200   3.388  11.606  0.00  0.00    +0.000 A 
ATOM     13  C   UNL     1       4.968   2.468  10.895  0.00  0.00    +0.000 A 
ATOM     14  C   UNL     1       6.256   2.175  11.327  0.00  0.00    +0.000 A 
ATOM     15  F   UNL     1       6.993   1.287  10.647  0.00  0.00    +0.000 F 
ATOM     16  C   UNL     1       6.793   2.777  12.459  0.00  0.00    +0.000 A 
ENDBRANCH   7  10
ENDBRANCH   2   5
BRANCH   3  17
ATOM     17  C   UNL     1       4.955   3.873  19.564  0.00  0.00    +0.000 C 
BRANCH  17  18
ATOM     18  C   UNL     1       3.487   3.553  19.375  0.00  0.00    +0.000 A 
ATOM     19  C   UNL     1       3.009   2.334  19.896  0.00  0.00    +0.000 A 
ATOM     20  C   UNL     1       1.670   1.964  19.771  0.00  0.00    +0.000 A 
ATOM     21  C   UNL     1       0.780   2.799  19.109  0.00  0.00    +0.000 A 
ATOM     22  C   UNL     1       1.230   4.011  18.589  0.00  0.00    +0.000 A 
ATOM     23  C   UNL     1       2.577   4.416  18.722  0.00  0.00    +0.000 A 
BRANCH  23  24
ATOM     24  C   UNL     1       2.936   5.775  18.159  0.00  0.00    +0.000 C 
ATOM     25  F   UNL     1       1.882   6.554  17.791  0.00  0.00    +0.000 F 
ATOM     26  F   UNL     1       3.656   6.527  19.039  0.00  0.00    +0.000 F 
ATOM     27  F   UNL     1       3.712   5.671  17.042  0.00  0.00    +0.000 F 
ENDBRANCH  23  24
ENDBRANCH  17  18
ENDBRANCH   3  17
TORSDOF 5
ENDMDL
MODEL 3
REMARK VINA RESULT:      -8.6      0.902      1.496
REMARK  Name = 
REMARK  5 active torsions:
REMARK  status: ('A' for Active; 'I' for Inactive)
REMARK    1  A    between atoms: C_2  and  C_15
REMARK    2  A    between atoms: N_3  and  C_4
REMARK    3  A    between atoms: C_4  and  C_5
REMARK    4  A    between atoms: C_10  and  C_11
REMARK    5  A    between atoms: C_17  and  C_18
REMARK                            x       y       z     vdW  Elec       q    Type
REMARK                         _______ _______ _______ _____ _____    ______ ____
ROOT
ATOM      1  O   UNL     1       5.352   6.907  17.532  0.00  0.00    +0.000 OA
ATOM      2  C   UNL     1       5.643   5.725  17.687  0.00  0.00    +0.000 C 
ATOM      3  N   UNL     1       5.101   4.947  18.687  0.00  0.00    +0.000 N 
ATOM      4  H   UNL     1       5.448   3.999  18.803  0.00  0.00    +0.000 HD
ENDROOT
BRANCH   2   5
ATOM      5  C   UNL     1       6.548   4.964  16.711  0.00  0.00    +0.000 C 
ATOM      6  C   UNL     1       5.748   4.118  15.754  0.00  0.00    +0.000 C 
ATOM      7  C   UNL     1       6.487   4.407  14.497  0.00  0.00    +0.000 C 
ATOM      8  N   UNL     1       7.375   5.344  14.588  0.00  0.00    +0.000 NA
ATOM      9  O   UNL     1       7.327   5.850  15.907  0.00  0.00    +0.000 OA
BRANCH   7  10
ATOM     10  C   UNL     1       6.180   3.688  13.237  0.00  0.00    +0.000 A 
ATOM     11  C   UNL     1       7.225   3.119  12.494  0.00  0.00    +0.000 A 
ATOM     12  C   UNL     1       6.961   2.484  11.276  0.00  0.00    +0.000 A 
ATOM     13  C   UNL     1       5.654   2.416  10.797  0.00  0.00    +0.000 A 
ATOM     14  C   UNL     1       4.624   2.974  11.543  0.00  0.00    +0.000 A 
ATOM     15  F   UNL     1       3.368   2.913  11.081  0.00  0.00    +0.000 F 
ATOM     16  C   UNL     1       4.870   3.606  12.757  0.00  0.00    +0.000 A 
ENDBRANCH   7  10
ENDBRANCH   2   5
BRANCH   3  17
ATOM     17  C   UNL     1       4.193   5.476  19.677  0.00  0.00    +0.000 C 
BRANCH  17  18
ATOM     18  C   UNL     1       3.054   4.529  19.995  0.00  0.00    +0.000 A 
ATOM     19  C   UNL     1       3.008   3.968  21.287  0.00  0.00    +0.000 A 
ATOM     20  C   UNL     1       1.990   3.091  21.664  0.00  0.00    +0.000 A 
ATOM     21  C   UNL     1       1.003   2.743  20.752  0.00  0.00    +0.000 A 
ATOM     22  C   UNL     1       1.026   3.290  19.470  0.00  0.00    +0.000 A 
ATOM     23  C   UNL     1       2.035   4.196  19.073  0.00  0.00    +0.000 A 
BRANCH  23  24
ATOM     24  C   UNL     1       1.928   4.760  17.672  0.00  0.00    +0.000 C 
ATOM     25  F   UNL     1       2.128   6.102  17.562  0.00  0.00    +0.000 F 
ATOM     26  F   UNL     1       2.818   4.187  16.813  0.00  0.00    +0.000 F 
ATOM     27  F   UNL     1       0.696   4.536  17.128  0.00  0.00    +0.000 F 
ENDBRANCH  23  24
ENDBRANCH  17  18
ENDBRANCH   3  17
TORSDOF 5
ENDMDL
MODEL 4
REMARK VINA RESULT:      -8.5      1.552      1.899
REMARK  Name = 
REMARK  5 active torsions:
REMARK  status: ('A' for Active; 'I' for Inactive)
REMARK    1  A    between atoms: C_2  and  C_15
REMARK    2  A    between atoms: N_3  and  C_4
REMARK    3  A    between atoms: C_4  and  C_5
REMARK    4  A    between atoms: C_10  and  C_11
REMARK    5  A    between atoms: C_17  and  C_18
REMARK                            x       y       z     vdW  Elec       q    Type
REMARK                         _______ _______ _______ _____ _____    ______ ____
ROOT
ATOM      1  O   UNL     1       6.818   5.987  18.617  0.00  0.00    +0.000 OA
ATOM      2  C   UNL     1       6.665   4.957  17.967  0.00  0.00    +0.000 C 
ATOM      3  N   UNL     1       5.765   3.976  18.322  0.00  0.00    +0.000 N 
ATOM      4  H   UNL     1       5.749   3.116  17.781  0.00  0.00    +0.000 HD
ENDROOT
BRANCH   2   5
ATOM      5  C   UNL     1       7.375   4.714  16.631  0.00  0.00    +0.000 C 
ATOM      6  C   UNL     1       6.654   3.687  15.795  0.00  0.00    +0.000 C 
ATOM      7  C   UNL     1       6.741   4.349  14.467  0.00  0.00    +0.000 C 
ATOM      8  N   UNL     1       7.198   5.560  14.488  0.00  0.00    +0.000 NA
ATOM      9  O   UNL     1       7.442   5.900  15.839  0.00  0.00    +0.000 OA
BRANCH   7  10
ATOM     10  C   UNL     1       6.291   3.665  13.231  0.00  0.00    +0.000 A 
ATOM     11  C   UNL     1       7.227   2.991  12.434  0.00  0.00    +0.000 A 
ATOM     12  C   UNL     1       6.830   2.386  11.237  0.00  0.00    +0.000 A 
ATOM     13  C   UNL     1       5.498   2.452  10.833  0.00  0.00    +0.000 A 
ATOM     14  C   UNL     1       4.575   3.115  11.633  0.00  0.00    +0.000 A 
ATOM     15  F   UNL     1       3.295   3.183  11.243  0.00  0.00    +0.000 F 
ATOM     16  C   UNL     1       4.954   3.718  12.827  0.00  0.00    +0.000 A 
ENDBRANCH   7  10
ENDBRANCH   2   5
BRANCH   3  17
ATOM     17  C   UNL     1       4.971   4.048  19.526  0.00  0.00    +0.000 C 
BRANCH  17  18
ATOM     18  C   UNL     1       3.523   3.667  19.298  0.00  0.00    +0.000 A 
ATOM     19  C   UNL     1       3.097   2.403  19.755  0.00  0.00    +0.000 A 
ATOM     20  C   UNL     1       1.779   1.976  19.591  0.00  0.00    +0.000 A 
ATOM     21  C   UNL     1       0.860   2.797  18.951  0.00  0.00    +0.000 A 
ATOM     22  C   UNL     1       1.258   4.052  18.495  0.00  0.00    +0.000 A 
ATOM     23  C   UNL     1       2.582   4.515  18.669  0.00  0.00    +0.000 A 
BRANCH  23  24
ATOM     24  C   UNL     1       2.882   5.913  18.175  0.00  0.00    +0.000 C 
ATOM     25  F   UNL     1       1.796   6.661  17.836  0.00  0.00    +0.000 F 
ATOM     26  F   UNL     1       3.563   6.654  19.094  0.00  0.00    +0.000 F 
ATOM     27  F   UNL     1       3.668   5.898  17.060  0.00  0.00    +0.000 F 
ENDBRANCH  23  24
ENDBRANCH  17  18
ENDBRANCH   3  17
TORSDOF 5
ENDMDL
MODEL 5
REMARK VINA RESULT:      -8.5      4.018      5.442
REMARK  Name = 
REMARK  5 active torsions:
REMARK  status: ('A' for Active; 'I' for Inactive)
REMARK    1  A    between atoms: C_2  and  C_15
REMARK    2  A    between atoms: N_3  and  C_4
REMARK    3  A    between atoms: C_4  and  C_5
REMARK    4  A    between atoms: C_10  and  C_11
REMARK    5  A    between atoms: C_17  and  C_18
REMARK                            x       y       z     vdW  Elec       q    Type
REMARK                         _______ _______ _______ _____ _____    ______ ____
ROOT
ATOM      1  O   UNL     1       1.071   4.189  20.809  0.00  0.00    +0.000 OA
ATOM      2  C   UNL     1       2.021   4.621  20.163  0.00  0.00    +0.000 C 
ATOM      3  N   UNL     1       2.393   5.948  20.178  0.00  0.00    +0.000 N 
ATOM      4  H   UNL     1       3.140   6.247  19.557  0.00  0.00    +0.000 HD
ENDROOT
BRANCH   2   5
ATOM      5  C   UNL     1       2.959   3.707  19.367  0.00  0.00    +0.000 C 
ATOM      6  C   UNL     1       3.256   4.267  17.999  0.00  0.00    +0.000 C 
ATOM      7  C   UNL     1       4.714   3.990  17.933  0.00  0.00    +0.000 C 
ATOM      8  N   UNL     1       5.242   3.569  19.037  0.00  0.00    +0.000 NA
ATOM      9  O   UNL     1       4.221   3.545  20.015  0.00  0.00    +0.000 OA
BRANCH   7  10
ATOM     10  C   UNL     1       5.491   4.228  16.692  0.00  0.00    +0.000 A 
ATOM     11  C   UNL     1       6.773   4.792  16.777  0.00  0.00    +0.000 A 
ATOM     12  C   UNL     1       7.499   5.073  15.616  0.00  0.00    +0.000 A 
ATOM     13  C   UNL     1       6.948   4.793  14.367  0.00  0.00    +0.000 A 
ATOM     14  C   UNL     1       5.682   4.226  14.292  0.00  0.00    +0.000 A 
ATOM     15  F   UNL     1       5.149   3.961  13.091  0.00  0.00    +0.000 F 
ATOM     16  C   UNL     1       4.949   3.938  15.438  0.00  0.00    +0.000 A 
ENDBRANCH   7  10
ENDBRANCH   2   5
BRANCH   3  17
ATOM     17  C   UNL     1       1.657   6.954  20.906  0.00  0.00    +0.000 C 
BRANCH  17  18
ATOM     18  C   UNL     1       1.484   8.238  20.123  0.00  0.00    +0.000 A 
ATOM     19  C   UNL     1       2.017   8.288  18.819  0.00  0.00    +0.000 A 
ATOM     20  C   UNL     1       1.896   9.430  18.027  0.00  0.00    +0.000 A 
ATOM     21  C   UNL     1       1.252  10.554  18.526  0.00  0.00    +0.000 A 
ATOM     22  C   UNL     1       0.714  10.526  19.811  0.00  0.00    +0.000 A 
ATOM     23  C   UNL     1       0.805   9.373  20.623  0.00  0.00    +0.000 A 
BRANCH  23  24
ATOM     24  C   UNL     1       0.141   9.446  21.981  0.00  0.00    +0.000 C 
ATOM     25  F   UNL     1       0.972   9.305  23.050  0.00  0.00    +0.000 F 
ATOM     26  F   UNL     1      -0.509  10.628  22.178  0.00  0.00    +0.000 F 
ATOM     27  F   UNL     1      -0.806   8.476  22.135  0.00  0.00    +0.000 F 
ENDBRANCH  23  24
ENDBRANCH  17  18
ENDBRANCH   3  17
TORSDOF 5
ENDMDL
MODEL 6
REMARK VINA RESULT:      -8.5      1.763      2.210
REMARK  Name = 
REMARK  5 active torsions:
REMARK  status: ('A' for Active; 'I' for Inactive)
REMARK    1  A    between atoms: C_2  and  C_15
REMARK    2  A    between atoms: N_3  and  C_4
REMARK    3  A    between atoms: C_4  and  C_5
REMARK    4  A    between atoms: C_10  and  C_11
REMARK    5  A    between atoms: C_17  and  C_18
REMARK                            x       y       z     vdW  Elec       q    Type
REMARK                         _______ _______ _______ _____ _____    ______ ____
ROOT
ATOM      1  O   UNL     1       6.565   5.389  20.079  0.00  0.00    +0.000 OA
ATOM      2  C   UNL     1       6.314   4.920  18.972  0.00  0.00    +0.000 C 
ATOM      3  N   UNL     1       5.507   3.818  18.794  0.00  0.00    +0.000 N 
ATOM      4  H   UNL     1       5.408   3.438  17.856  0.00  0.00    +0.000 HD
ENDROOT
BRANCH   2   5
ATOM      5  C   UNL     1       6.779   5.584  17.672  0.00  0.00    +0.000 C 
ATOM      6  C   UNL     1       7.094   4.565  16.606  0.00  0.00    +0.000 C 
ATOM      7  C   UNL     1       6.467   5.234  15.437  0.00  0.00    +0.000 C 
ATOM      8  N   UNL     1       5.761   6.281  15.718  0.00  0.00    +0.000 NA
ATOM      9  O   UNL     1       5.776   6.440  17.123  0.00  0.00    +0.000 OA
BRANCH   7  10
ATOM     10  C   UNL     1       6.621   4.694  14.064  0.00  0.00    +0.000 A 
ATOM     11  C   UNL     1       7.622   5.209  13.226  0.00  0.00    +0.000 A 
ATOM     12  C   UNL     1       7.748   4.751  11.911  0.00  0.00    +0.000 A 
ATOM     13  C   UNL     1       6.875   3.777  11.429  0.00  0.00    +0.000 A 
ATOM     14  C   UNL     1       5.893   3.265  12.267  0.00  0.00    +0.000 A 
ATOM     15  F   UNL     1       5.051   2.332  11.802  0.00  0.00    +0.000 F 
ATOM     16  C   UNL     1       5.757   3.709  13.578  0.00  0.00    +0.000 A 
ENDBRANCH   7  10
ENDBRANCH   2   5
BRANCH   3  17
ATOM     17  C   UNL     1       4.938   3.082  19.899  0.00  0.00    +0.000 C 
BRANCH  17  18
ATOM     18  C   UNL     1       3.428   3.175  19.951  0.00  0.00    +0.000 A 
ATOM     19  C   UNL     1       2.843   3.720  21.112  0.00  0.00    +0.000 A 
ATOM     20  C   UNL     1       1.459   3.847  21.239  0.00  0.00    +0.000 A 
ATOM     21  C   UNL     1       0.627   3.418  20.214  0.00  0.00    +0.000 A 
ATOM     22  C   UNL     1       1.184   2.880  19.055  0.00  0.00    +0.000 A 
ATOM     23  C   UNL     1       2.583   2.761  18.895  0.00  0.00    +0.000 A 
BRANCH  23  24
ATOM     24  C   UNL     1       3.070   2.206  17.574  0.00  0.00    +0.000 C 
ATOM     25  F   UNL     1       2.103   1.708  16.755  0.00  0.00    +0.000 F 
ATOM     26  F   UNL     1       3.732   3.138  16.832  0.00  0.00    +0.000 F 
ATOM     27  F   UNL     1       3.953   1.181  17.749  0.00  0.00    +0.000 F 
ENDBRANCH  23  24
ENDBRANCH  17  18
ENDBRANCH   3  17
TORSDOF 5
ENDMDL
MODEL 7
REMARK VINA RESULT:      -8.3      1.405      1.809
REMARK  Name = 
REMARK  5 active torsions:
REMARK  status: ('A' for Active; 'I' for Inactive)
REMARK    1  A    between atoms: C_2  and  C_15
REMARK    2  A    between atoms: N_3  and  C_4
REMARK    3  A    between atoms: C_4  and  C_5
REMARK    4  A    between atoms: C_10  and  C_11
REMARK    5  A    between atoms: C_17  and  C_18
REMARK                            x       y       z     vdW  Elec       q    Type
REMARK                         _______ _______ _______ _____ _____    ______ ____
ROOT
ATOM      1  O   UNL     1       5.539   4.142  20.162  0.00  0.00    +0.000 OA
ATOM      2  C   UNL     1       5.543   4.844  19.155  0.00  0.00    +0.000 C 
ATOM      3  N   UNL     1       4.583   5.802  18.909  0.00  0.00    +0.000 N 
ATOM      4  H   UNL     1       4.606   6.290  18.018  0.00  0.00    +0.000 HD
ENDROOT
BRANCH   2   5
ATOM      5  C   UNL     1       6.680   4.806  18.129  0.00  0.00    +0.000 C 
ATOM      6  C   UNL     1       6.269   4.090  16.867  0.00  0.00    +0.000 C 
ATOM      7  C   UNL     1       6.865   5.007  15.861  0.00  0.00    +0.000 C 
ATOM      8  N   UNL     1       7.335   6.113  16.340  0.00  0.00    +0.000 NA
ATOM      9  O   UNL     1       7.083   6.116  17.731  0.00  0.00    +0.000 OA
BRANCH   7  10
ATOM     10  C   UNL     1       6.867   4.674  14.416  0.00  0.00    +0.000 A 
ATOM     11  C   UNL     1       7.743   5.347  13.553  0.00  0.00    +0.000 A 
ATOM     12  C   UNL     1       7.723   5.085  12.179  0.00  0.00    +0.000 A 
ATOM     13  C   UNL     1       6.827   4.149  11.665  0.00  0.00    +0.000 A 
ATOM     14  C   UNL     1       5.968   3.480  12.528  0.00  0.00    +0.000 A 
ATOM     15  F   UNL     1       5.104   2.583  12.032  0.00  0.00    +0.000 F 
ATOM     16  C   UNL     1       5.979   3.728  13.896  0.00  0.00    +0.000 A 
ENDBRANCH   7  10
ENDBRANCH   2   5
BRANCH   3  17
ATOM     17  C   UNL     1       3.456   6.018  19.785  0.00  0.00    +0.000 C 
BRANCH  17  18
ATOM     18  C   UNL     1       2.643   4.762  20.016  0.00  0.00    +0.000 A 
ATOM     19  C   UNL     1       2.614   4.230  21.322  0.00  0.00    +0.000 A 
ATOM     20  C   UNL     1       1.884   3.079  21.622  0.00  0.00    +0.000 A 
ATOM     21  C   UNL     1       1.179   2.425  20.620  0.00  0.00    +0.000 A 
ATOM     22  C   UNL     1       1.191   2.935  19.324  0.00  0.00    +0.000 A 
ATOM     23  C   UNL     1       1.905   4.111  19.001  0.00  0.00    +0.000 A 
BRANCH  23  24
ATOM     24  C   UNL     1       1.803   4.595  17.570  0.00  0.00    +0.000 C 
ATOM     25  F   UNL     1       0.689   4.199  16.895  0.00  0.00    +0.000 F 
ATOM     26  F   UNL     1       1.819   5.955  17.480  0.00  0.00    +0.000 F 
ATOM     27  F   UNL     1       2.853   4.164  16.813  0.00  0.00    +0.000 F 
ENDBRANCH  23  24
ENDBRANCH  17  18
ENDBRANCH   3  17
TORSDOF 5
ENDMDL
MODEL 8
REMARK VINA RESULT:      -8.3      3.463      4.407
REMARK  Name = 
REMARK  5 active torsions:
REMARK  status: ('A' for Active; 'I' for Inactive)
REMARK    1  A    between atoms: C_2  and  C_15
REMARK    2  A    between atoms: N_3  and  C_4
REMARK    3  A    between atoms: C_4  and  C_5
REMARK    4  A    between atoms: C_10  and  C_11
REMARK    5  A    between atoms: C_17  and  C_18
REMARK                            x       y       z     vdW  Elec       q    Type
REMARK                         _______ _______ _______ _____ _____    ______ ____
ROOT
ATOM      1  O   UNL     1       2.096   3.881  18.889  0.00  0.00    +0.000 OA
ATOM      2  C   UNL     1       3.173   4.463  18.795  0.00  0.00    +0.000 C 
ATOM      3  N   UNL     1       3.413   5.688  19.380  0.00  0.00    +0.000 N 
ATOM      4  H   UNL     1       4.301   6.145  19.195  0.00  0.00    +0.000 HD
ENDROOT
BRANCH   2   5
ATOM      5  C   UNL     1       4.395   3.832  18.119  0.00  0.00    +0.000 C 
ATOM      6  C   UNL     1       4.280   3.866  16.616  0.00  0.00    +0.000 C 
ATOM      7  C   UNL     1       5.668   4.268  16.274  0.00  0.00    +0.000 C 
ATOM      8  N   UNL     1       6.404   4.607  17.283  0.00  0.00    +0.000 NA
ATOM      9  O   UNL     1       5.600   4.524  18.443  0.00  0.00    +0.000 OA
BRANCH   7  10
ATOM     10  C   UNL     1       6.138   4.309  14.868  0.00  0.00    +0.000 A 
ATOM     11  C   UNL     1       5.502   3.514  13.903  0.00  0.00    +0.000 A 
ATOM     12  C   UNL     1       5.964   3.499  12.583  0.00  0.00    +0.000 A 
ATOM     13  C   UNL     1       7.061   4.279  12.223  0.00  0.00    +0.000 A 
ATOM     14  C   UNL     1       7.680   5.071  13.182  0.00  0.00    +0.000 A 
ATOM     15  F   UNL     1       8.738   5.817  12.837  0.00  0.00    +0.000 F 
ATOM     16  C   UNL     1       7.230   5.099  14.498  0.00  0.00    +0.000 A 
ENDBRANCH   7  10
ENDBRANCH   2   5
BRANCH   3  17
ATOM     17  C   UNL     1       2.397   6.419  20.100  0.00  0.00    +0.000 C 
BRANCH  17  18
ATOM     18  C   UNL     1       2.056   7.744  19.450  0.00  0.00    +0.000 A 
ATOM     19  C   UNL     1       2.578   7.999  18.166  0.00  0.00    +0.000 A 
ATOM     20  C   UNL     1       2.307   9.191  17.494  0.00  0.00    +0.000 A 
ATOM     21  C   UNL     1       1.520  10.163  18.097  0.00  0.00    +0.000 A 
ATOM     22  C   UNL     1       0.990   9.930  19.364  0.00  0.00    +0.000 A 
ATOM     23  C   UNL     1       1.233   8.721  20.055  0.00  0.00    +0.000 A 
BRANCH  23  24
ATOM     24  C   UNL     1       0.564   8.565  21.404  0.00  0.00    +0.000 C 
ATOM     25  F   UNL     1       1.405   8.515  22.473  0.00  0.00    +0.000 F 
ATOM     26  F   UNL     1      -0.307   9.578  21.672  0.00  0.00    +0.000 F 
ATOM     27  F   UNL     1      -0.173   7.418  21.474  0.00  0.00    +0.000 F 
ENDBRANCH  23  24
ENDBRANCH  17  18
ENDBRANCH   3  17
TORSDOF 5
ENDMDL
MODEL 9
REMARK VINA RESULT:      -8.2      1.694      2.005
REMARK  Name = 
REMARK  5 active torsions:
REMARK  status: ('A' for Active; 'I' for Inactive)
REMARK    1  A    between atoms: C_2  and  C_15
REMARK    2  A    between atoms: N_3  and  C_4
REMARK    3  A    between atoms: C_4  and  C_5
REMARK    4  A    between atoms: C_10  and  C_11
REMARK    5  A    between atoms: C_17  and  C_18
REMARK                            x       y       z     vdW  Elec       q    Type
REMARK                         _______ _______ _______ _____ _____    ______ ____
ROOT
ATOM      1  O   UNL     1       7.648   5.147  18.847  0.00  0.00    +0.000 OA
ATOM      2  C   UNL     1       6.731   5.185  18.033  0.00  0.00    +0.000 C 
ATOM      3  N   UNL     1       5.409   5.026  18.389  0.00  0.00    +0.000 N 
ATOM      4  H   UNL     1       4.711   4.991  17.651  0.00  0.00    +0.000 HD
ENDROOT
BRANCH   2   5
ATOM      5  C   UNL     1       6.954   5.531  16.557  0.00  0.00    +0.000 C 
ATOM      6  C   UNL     1       6.942   4.300  15.687  0.00  0.00    +0.000 C 
ATOM      7  C   UNL     1       6.133   4.812  14.551  0.00  0.00    +0.000 C 
ATOM      8  N   UNL     1       5.596   5.974  14.741  0.00  0.00    +0.000 NA
ATOM      9  O   UNL     1       5.931   6.389  16.050  0.00  0.00    +0.000 OA
BRANCH   7  10
ATOM     10  C   UNL     1       5.936   4.010  13.318  0.00  0.00    +0.000 A 
ATOM     11  C   UNL     1       4.643   3.843  12.801  0.00  0.00    +0.000 A 
ATOM     12  C   UNL     1       4.432   3.047  11.671  0.00  0.00    +0.000 A 
ATOM     13  C   UNL     1       5.511   2.417  11.054  0.00  0.00    +0.000 A 
ATOM     14  C   UNL     1       6.790   2.595  11.567  0.00  0.00    +0.000 A 
ATOM     15  F   UNL     1       7.827   1.986  10.976  0.00  0.00    +0.000 F 
ATOM     16  C   UNL     1       7.016   3.386  12.688  0.00  0.00    +0.000 A 
ENDBRANCH   7  10
ENDBRANCH   2   5
BRANCH   3  17
ATOM     17  C   UNL     1       4.997   4.738  19.742  0.00  0.00    +0.000 C 
BRANCH  17  18
ATOM     18  C   UNL     1       3.525   4.399  19.849  0.00  0.00    +0.000 A 
ATOM     19  C   UNL     1       2.662   5.382  20.375  0.00  0.00    +0.000 A 
ATOM     20  C   UNL     1       1.291   5.154  20.502  0.00  0.00    +0.000 A 
ATOM     21  C   UNL     1       0.754   3.932  20.120  0.00  0.00    +0.000 A 
ATOM     22  C   UNL     1       1.588   2.948  19.593  0.00  0.00    +0.000 A 
ATOM     23  C   UNL     1       2.975   3.164  19.435  0.00  0.00    +0.000 A 
BRANCH  23  24
ATOM     24  C   UNL     1       3.770   2.039  18.807  0.00  0.00    +0.000 C 
ATOM     25  F   UNL     1       3.081   0.885  18.589  0.00  0.00    +0.000 F 
ATOM     26  F   UNL     1       4.293   2.385  17.598  0.00  0.00    +0.000 F 
ATOM     27  F   UNL     1       4.835   1.679  19.579  0.00  0.00    +0.000 F 
ENDBRANCH  23  24
ENDBRANCH  17  18
ENDBRANCH   3  17
TORSDOF 5
ENDMDL
