MODEL 1
REMARK VINA RESULT:      -6.3      0.000      0.000
REMARK  Name = 
REMARK  2 active torsions:
REMARK  status: ('A' for Active; 'I' for Inactive)
REMARK    1  A    between atoms: C_2  and  O_3
REMARK    2  A    between atoms: C_2  and  C_4
REMARK                            x       y       z     vdW  Elec       q    Type
REMARK                         _______ _______ _______ _____ _____    ______ ____
ROOT
ATOM      1  C   UNL     1       1.333   3.234  20.161  0.00  0.00    +0.000 C 
ATOM      2  C   UNL     1       1.283   2.178  19.053  0.00  0.00    +0.000 C 
ATOM      3  C   UNL     1       2.597   2.053  18.304  0.00  0.00    +0.000 C 
ATOM      4  S   UNL     1       2.982   3.567  17.384  0.00  0.00    +0.000 S 
ATOM      5  C   UNL     1       2.509   4.841  18.536  0.00  0.00    +0.000 A 
ATOM      6  C   UNL     1       2.917   6.148  18.222  0.00  0.00    +0.000 A 
ATOM      7  C   UNL     1       2.609   7.222  19.061  0.00  0.00    +0.000 A 
ATOM      8  C   UNL     1       1.878   6.999  20.219  0.00  0.00    +0.000 A 
ATOM      9 CL   UNL     1       1.500   8.311  21.262  0.00  0.00    +0.000 Cl
ATOM     10  C   UNL     1       1.460   5.710  20.544  0.00  0.00    +0.000 A 
ATOM     11  C   UNL     1       1.773   4.615  19.710  0.00  0.00    +0.000 A 
ENDROOT
BRANCH   1  13
ATOM     12  O   UNL     1       3.359   2.663  21.348  0.00  0.00    +0.000 OA
ATOM     13  C   UNL     1       2.135   2.700  21.342  0.00  0.00    +0.000 C 
BRANCH  13  14
ATOM     14  O   UNL     1       1.418   2.331  22.426  0.00  0.00    +0.000 OA
ATOM     15  H   UNL     1       0.738   1.649  22.270  0.00  0.00    +0.000 HD
ENDBRANCH  13  14
ENDBRANCH   1  13
TORSDOF 2
ENDMDL
MODEL 2
REMARK VINA RESULT:      -6.3      2.878      3.598
REMARK  Name = 
REMARK  2 active torsions:
REMARK  status: ('A' for Active; 'I' for Inactive)
REMARK    1  A    between atoms: C_2  and  O_3
REMARK    2  A    between atoms: C_2  and  C_4
REMARK                            x       y       z     vdW  Elec       q    Type
REMARK                         _______ _______ _______ _____ _____    ______ ____
ROOT
ATOM      1  C   UNL     1       3.980   2.833  19.251  0.00  0.00    +0.000 C 
ATOM      2  C   UNL     1       3.521   2.509  20.676  0.00  0.00    +0.000 C 
ATOM      3  C   UNL     1       2.069   2.874  20.921  0.00  0.00    +0.000 C 
ATOM      4  S   UNL     1       1.811   4.666  20.825  0.00  0.00    +0.000 S 
ATOM      5  C   UNL     1       2.822   5.120  19.429  0.00  0.00    +0.000 A 
ATOM      6  C   UNL     1       2.646   6.421  18.930  0.00  0.00    +0.000 A 
ATOM      7  C   UNL     1       3.380   6.878  17.832  0.00  0.00    +0.000 A 
ATOM      8  C   UNL     1       4.307   6.039  17.230  0.00  0.00    +0.000 A 
ATOM      9 CL   UNL     1       5.210   6.588  15.876  0.00  0.00    +0.000 Cl
ATOM     10  C   UNL     1       4.499   4.747  17.716  0.00  0.00    +0.000 A 
ATOM     11  C   UNL     1       3.757   4.270  18.818  0.00  0.00    +0.000 A 
ENDROOT
BRANCH   1  13
ATOM     12  O   UNL     1       2.435   2.054  17.563  0.00  0.00    +0.000 OA
ATOM     13  C   UNL     1       3.397   1.811  18.281  0.00  0.00    +0.000 C 
BRANCH  13  14
ATOM     14  O   UNL     1       4.051   0.631  18.201  0.00  0.00    +0.000 OA
ATOM     15  H   UNL     1       3.700  -0.001  17.545  0.00  0.00    +0.000 HD
ENDBRANCH  13  14
ENDBRANCH   1  13
TORSDOF 2
ENDMDL
MODEL 3
REMARK VINA RESULT:      -6.3      3.359      4.150
REMARK  Name = 
REMARK  2 active torsions:
REMARK  status: ('A' for Active; 'I' for Inactive)
REMARK    1  A    between atoms: C_2  and  O_3
REMARK    2  A    between atoms: C_2  and  C_4
REMARK                            x       y       z     vdW  Elec       q    Type
REMARK                         _______ _______ _______ _____ _____    ______ ____
ROOT
ATOM      1  C   UNL     1       2.989   3.476  19.176  0.00  0.00    +0.000 C 
ATOM      2  C   UNL     1       2.568   4.097  20.511  0.00  0.00    +0.000 C 
ATOM      3  C   UNL     1       1.712   5.338  20.335  0.00  0.00    +0.000 C 
ATOM      4  S   UNL     1       2.645   6.682  19.555  0.00  0.00    +0.000 S 
ATOM      5  C   UNL     1       3.575   5.821  18.302  0.00  0.00    +0.000 A 
ATOM      6  C   UNL     1       4.221   6.620  17.345  0.00  0.00    +0.000 A 
ATOM      7  C   UNL     1       4.969   6.049  16.313  0.00  0.00    +0.000 A 
ATOM      8  C   UNL     1       5.087   4.668  16.235  0.00  0.00    +0.000 A 
ATOM      9 CL   UNL     1       5.999   3.954  14.966  0.00  0.00    +0.000 Cl
ATOM     10  C   UNL     1       4.458   3.859  17.180  0.00  0.00    +0.000 A 
ATOM     11  C   UNL     1       3.692   4.424  18.222  0.00  0.00    +0.000 A 
ENDROOT
BRANCH   1  13
ATOM     12  O   UNL     1       1.035   3.303  17.764  0.00  0.00    +0.000 OA
ATOM     13  C   UNL     1       1.801   2.757  18.549  0.00  0.00    +0.000 C 
BRANCH  13  14
ATOM     14  O   UNL     1       1.675   1.446  18.851  0.00  0.00    +0.000 OA
ATOM     15  H   UNL     1       1.324   1.250  19.740  0.00  0.00    +0.000 HD
ENDBRANCH  13  14
ENDBRANCH   1  13
TORSDOF 2
ENDMDL
MODEL 4
REMARK VINA RESULT:      -6.2      3.147      4.426
REMARK  Name = 
REMARK  2 active torsions:
REMARK  status: ('A' for Active; 'I' for Inactive)
REMARK    1  A    between atoms: C_2  and  O_3
REMARK    2  A    between atoms: C_2  and  C_4
REMARK                            x       y       z     vdW  Elec       q    Type
REMARK                         _______ _______ _______ _____ _____    ______ ____
ROOT
ATOM      1  C   UNL     1       4.928   4.630  17.894  0.00  0.00    +0.000 C 
ATOM      2  C   UNL     1       4.903   5.565  16.681  0.00  0.00    +0.000 C 
ATOM      3  C   UNL     1       4.801   7.027  17.072  0.00  0.00    +0.000 C 
ATOM      4  S   UNL     1       3.219   7.390  17.879  0.00  0.00    +0.000 S 
ATOM      5  C   UNL     1       2.997   5.970  18.932  0.00  0.00    +0.000 A 
ATOM      6  C   UNL     1       1.974   6.059  19.890  0.00  0.00    +0.000 A 
ATOM      7  C   UNL     1       1.720   5.007  20.775  0.00  0.00    +0.000 A 
ATOM      8  C   UNL     1       2.480   3.849  20.699  0.00  0.00    +0.000 A 
ATOM      9 CL   UNL     1       2.181   2.553  21.785  0.00  0.00    +0.000 Cl
ATOM     10  C   UNL     1       3.496   3.741  19.750  0.00  0.00    +0.000 A 
ATOM     11  C   UNL     1       3.769   4.800  18.858  0.00  0.00    +0.000 A 
ENDROOT
BRANCH   1  13
ATOM     12  O   UNL     1       6.457   5.198  19.678  0.00  0.00    +0.000 OA
ATOM     13  C   UNL     1       6.293   4.704  18.569  0.00  0.00    +0.000 C 
BRANCH  13  14
ATOM     14  O   UNL     1       7.316   4.125  17.903  0.00  0.00    +0.000 OA
ATOM     15  H   UNL     1       8.043   3.787  18.459  0.00  0.00    +0.000 HD
ENDBRANCH  13  14
ENDBRANCH   1  13
TORSDOF 2
ENDMDL
MODEL 5
REMARK VINA RESULT:      -6.0      1.666      2.001
REMARK  Name = 
REMARK  2 active torsions:
REMARK  status: ('A' for Active; 'I' for Inactive)
REMARK    1  A    between atoms: C_2  and  O_3
REMARK    2  A    between atoms: C_2  and  C_4
REMARK                            x       y       z     vdW  Elec       q    Type
REMARK                         _______ _______ _______ _____ _____    ______ ____
ROOT
ATOM      1  C   UNL     1       1.517   3.994  18.755  0.00  0.00    +0.000 C 
ATOM      2  C   UNL     1       1.799   2.590  18.212  0.00  0.00    +0.000 C 
ATOM      3  C   UNL     1       3.245   2.169  18.402  0.00  0.00    +0.000 C 
ATOM      4  S   UNL     1       4.370   3.200  17.423  0.00  0.00    +0.000 S 
ATOM      5  C   UNL     1       3.678   4.828  17.641  0.00  0.00    +0.000 A 
ATOM      6  C   UNL     1       4.469   5.904  17.207  0.00  0.00    +0.000 A 
ATOM      7  C   UNL     1       4.028   7.224  17.339  0.00  0.00    +0.000 A 
ATOM      8  C   UNL     1       2.783   7.477  17.898  0.00  0.00    +0.000 A 
ATOM      9 CL   UNL     1       2.234   9.096  18.072  0.00  0.00    +0.000 Cl
ATOM     10  C   UNL     1       1.982   6.421  18.328  0.00  0.00    +0.000 A 
ATOM     11  C   UNL     1       2.420   5.084  18.209  0.00  0.00    +0.000 A 
ENDROOT
BRANCH   1  13
ATOM     12  O   UNL     1       2.131   4.707  20.981  0.00  0.00    +0.000 OA
ATOM     13  C   UNL     1       1.468   3.954  20.278  0.00  0.00    +0.000 C 
BRANCH  13  14
ATOM     14  O   UNL     1       0.590   3.082  20.820  0.00  0.00    +0.000 OA
ATOM     15  H   UNL     1      -0.308   3.096  20.437  0.00  0.00    +0.000 HD
ENDBRANCH  13  14
ENDBRANCH   1  13
TORSDOF 2
ENDMDL
MODEL 6
REMARK VINA RESULT:      -5.9      2.869      3.435
REMARK  Name = 
REMARK  2 active torsions:
REMARK  status: ('A' for Active; 'I' for Inactive)
REMARK    1  A    between atoms: C_2  and  O_3
REMARK    2  A    between atoms: C_2  and  C_4
REMARK                            x       y       z     vdW  Elec       q    Type
REMARK                         _______ _______ _______ _____ _____    ______ ____
ROOT
ATOM      1  C   UNL     1       3.688   3.275  19.948  0.00  0.00    +0.000 C 
ATOM      2  C   UNL     1       2.166   3.209  20.111  0.00  0.00    +0.000 C 
ATOM      3  C   UNL     1       1.437   3.152  18.781  0.00  0.00    +0.000 C 
ATOM      4  S   UNL     1       1.664   4.682  17.835  0.00  0.00    +0.000 S 
ATOM      5  C   UNL     1       3.386   5.047  18.111  0.00  0.00    +0.000 A 
ATOM      6  C   UNL     1       3.947   6.049  17.303  0.00  0.00    +0.000 A 
ATOM      7  C   UNL     1       5.292   6.409  17.429  0.00  0.00    +0.000 A 
ATOM      8  C   UNL     1       6.085   5.776  18.375  0.00  0.00    +0.000 A 
ATOM      9 CL   UNL     1       7.740   6.205  18.534  0.00  0.00    +0.000 Cl
ATOM     10  C   UNL     1       5.543   4.783  19.190  0.00  0.00    +0.000 A 
ATOM     11  C   UNL     1       4.189   4.404  19.066  0.00  0.00    +0.000 A 
ENDROOT
BRANCH   1  13
ATOM     12  O   UNL     1       3.784   1.289  18.574  0.00  0.00    +0.000 OA
ATOM     13  C   UNL     1       4.219   1.906  19.539  0.00  0.00    +0.000 C 
BRANCH  13  14
ATOM     14  O   UNL     1       5.257   1.434  20.262  0.00  0.00    +0.000 OA
ATOM     15  H   UNL     1       6.126   1.833  20.064  0.00  0.00    +0.000 HD
ENDBRANCH  13  14
ENDBRANCH   1  13
TORSDOF 2
ENDMDL
MODEL 7
REMARK VINA RESULT:      -5.9      3.688      5.154
REMARK  Name = 
REMARK  2 active torsions:
REMARK  status: ('A' for Active; 'I' for Inactive)
REMARK    1  A    between atoms: C_2  and  O_3
REMARK    2  A    between atoms: C_2  and  C_4
REMARK                            x       y       z     vdW  Elec       q    Type
REMARK                         _______ _______ _______ _____ _____    ______ ____
ROOT
ATOM      1  C   UNL     1       5.594   4.677  16.795  0.00  0.00    +0.000 C 
ATOM      2  C   UNL     1       5.839   5.983  16.034  0.00  0.00    +0.000 C 
ATOM      3  C   UNL     1       5.616   7.213  16.895  0.00  0.00    +0.000 C 
ATOM      4  S   UNL     1       3.880   7.369  17.392  0.00  0.00    +0.000 S 
ATOM      5  C   UNL     1       3.443   5.684  17.776  0.00  0.00    +0.000 A 
ATOM      6  C   UNL     1       2.219   5.494  18.438  0.00  0.00    +0.000 A 
ATOM      7  C   UNL     1       1.783   4.215  18.795  0.00  0.00    +0.000 A 
ATOM      8  C   UNL     1       2.564   3.112  18.481  0.00  0.00    +0.000 A 
ATOM      9 CL   UNL     1       2.042   1.536  18.922  0.00  0.00    +0.000 Cl
ATOM     10  C   UNL     1       3.779   3.282  17.819  0.00  0.00    +0.000 A 
ATOM     11  C   UNL     1       4.235   4.569  17.461  0.00  0.00    +0.000 A 
ENDROOT
BRANCH   1  13
ATOM     12  O   UNL     1       6.625   4.398  18.963  0.00  0.00    +0.000 OA
ATOM     13  C   UNL     1       6.756   4.413  17.745  0.00  0.00    +0.000 C 
BRANCH  13  14
ATOM     14  O   UNL     1       7.941   4.121  17.165  0.00  0.00    +0.000 OA
ATOM     15  H   UNL     1       8.626   4.813  17.234  0.00  0.00    +0.000 HD
ENDBRANCH  13  14
ENDBRANCH   1  13
TORSDOF 2
ENDMDL
MODEL 8
REMARK VINA RESULT:      -5.8      3.615      4.507
REMARK  Name = 
REMARK  2 active torsions:
REMARK  status: ('A' for Active; 'I' for Inactive)
REMARK    1  A    between atoms: C_2  and  O_3
REMARK    2  A    between atoms: C_2  and  C_4
REMARK                            x       y       z     vdW  Elec       q    Type
REMARK                         _______ _______ _______ _____ _____    ______ ____
ROOT
ATOM      1  C   UNL     1       3.920   3.545  18.702  0.00  0.00    +0.000 C 
ATOM      2  C   UNL     1       3.286   4.063  19.996  0.00  0.00    +0.000 C 
ATOM      3  C   UNL     1       2.144   5.029  19.742  0.00  0.00    +0.000 C 
ATOM      4  S   UNL     1       2.726   6.554  18.954  0.00  0.00    +0.000 S 
ATOM      5  C   UNL     1       3.909   5.940  17.770  0.00  0.00    +0.000 A 
ATOM      6  C   UNL     1       4.366   6.860  16.813  0.00  0.00    +0.000 A 
ATOM      7  C   UNL     1       5.287   6.483  15.832  0.00  0.00    +0.000 A 
ATOM      8  C   UNL     1       5.769   5.182  15.808  0.00  0.00    +0.000 A 
ATOM      9 CL   UNL     1       6.896   4.706  14.602  0.00  0.00    +0.000 Cl
ATOM     10  C   UNL     1       5.331   4.257  16.754  0.00  0.00    +0.000 A 
ATOM     11  C   UNL     1       4.393   4.623  17.744  0.00  0.00    +0.000 A 
ENDROOT
BRANCH   1  13
ATOM     12  O   UNL     1       2.970   1.345  18.392  0.00  0.00    +0.000 OA
ATOM     13  C   UNL     1       2.996   2.522  18.053  0.00  0.00    +0.000 C 
BRANCH  13  14
ATOM     14  O   UNL     1       2.143   3.001  17.121  0.00  0.00    +0.000 OA
ATOM     15  H   UNL     1       1.194   2.897  17.325  0.00  0.00    +0.000 HD
ENDBRANCH  13  14
ENDBRANCH   1  13
TORSDOF 2
ENDMDL
MODEL 9
REMARK VINA RESULT:      -5.8      4.070      5.217
REMARK  Name = 
REMARK  2 active torsions:
REMARK  status: ('A' for Active; 'I' for Inactive)
REMARK    1  A    between atoms: C_2  and  O_3
REMARK    2  A    between atoms: C_2  and  C_4
REMARK                            x       y       z     vdW  Elec       q    Type
REMARK                         _______ _______ _______ _____ _____    ______ ____
ROOT
ATOM      1  C   UNL     1       6.889   5.180  18.141  0.00  0.00    +0.000 C 
ATOM      2  C   UNL     1       7.694   4.448  17.063  0.00  0.00    +0.000 C 
ATOM      3  C   UNL     1       7.155   4.690  15.665  0.00  0.00    +0.000 C 
ATOM      4  S   UNL     1       5.496   3.986  15.462  0.00  0.00    +0.000 S 
ATOM      5  C   UNL     1       4.717   4.400  17.010  0.00  0.00    +0.000 A 
ATOM      6  C   UNL     1       3.328   4.210  17.078  0.00  0.00    +0.000 A 
ATOM      7  C   UNL     1       2.613   4.512  18.241  0.00  0.00    +0.000 A 
ATOM      8  C   UNL     1       3.288   4.996  19.353  0.00  0.00    +0.000 A 
ATOM      9 CL   UNL     1       2.420   5.377  20.785  0.00  0.00    +0.000 Cl
ATOM     10  C   UNL     1       4.668   5.184  19.306  0.00  0.00    +0.000 A 
ATOM     11  C   UNL     1       5.399   4.892  18.134  0.00  0.00    +0.000 A 
ENDROOT
BRANCH   1  13
ATOM     12  O   UNL     1       6.544   7.479  17.482  0.00  0.00    +0.000 OA
ATOM     13  C   UNL     1       7.219   6.668  18.103  0.00  0.00    +0.000 C 
BRANCH  13  14
ATOM     14  O   UNL     1       8.266   7.062  18.860  0.00  0.00    +0.000 OA
ATOM     15  H   UNL     1       9.101   7.215  18.377  0.00  0.00    +0.000 HD
ENDBRANCH  13  14
ENDBRANCH   1  13
TORSDOF 2
ENDMDL
