MODEL 1
REMARK VINA RESULT:      -7.2      0.000      0.000
REMARK  Name = 
REMARK  12 active torsions:
REMARK  status: ('A' for Active; 'I' for Inactive)
REMARK    1  A    between atoms: CG1_1  and  CB_2
REMARK    2  A    between atoms: CB_2  and  CG2_3
REMARK    3  A    between atoms: CB_2  and  CA_4
REMARK    4  A    between atoms: CA_4  and  N_5
REMARK    5  A    between atoms: CA_4  and  C_10
REMARK    6  A    between atoms: C_6  and  CA_8
REMARK    7  A    between atoms: CA_8  and  N_9
REMARK    8  A    between atoms: N_12  and  CA_13
REMARK    9  A    between atoms: CA_13  and  CB_14
REMARK   10  A    between atoms: CA_13  and  C_21
REMARK   11  A    between atoms: CB_14  and  CG_15
REMARK   12  A    between atoms: C_21  and  OXT_23
REMARK                            x       y       z     vdW  Elec       q    Type
REMARK                         _______ _______ _______ _____ _____    ______ ____
ROOT
ATOM      1  C   VAL A   2       3.677   4.575  17.611  0.00  0.00    +0.000 C 
ATOM      2  O   VAL A   2       3.482   3.681  16.787  0.00  0.00    +0.000 OA
ATOM      3  N   PHE A   3       4.897   5.197  17.744  0.00  0.00    +0.000 N 
ATOM      4  H   PHE A   3       4.989   5.994  18.372  0.00  0.00    +0.000 HD
ENDROOT
BRANCH   1   5
ATOM      5  CA  VAL A   2       2.573   5.132  18.538  0.00  0.00    +0.000 C 
BRANCH   5   6
ATOM      6  N   VAL A   2       2.443   4.255  19.698  0.00  0.00    +0.000 N 
ATOM      7  C   GLY A   1       1.538   3.224  19.726  0.00  0.00    +0.000 C 
ATOM      8  O   GLY A   1       0.798   2.961  18.784  0.00  0.00    +0.000 OA
ATOM      9  H   VAL A   2       3.152   4.257  20.433  0.00  0.00    +0.000 HD
BRANCH   7  10
ATOM     10  CA  GLY A   1       1.431   2.493  21.069  0.00  0.00    +0.000 C 
BRANCH  10  11
ATOM     11  N   GLY A   1       2.193   3.174  22.131  0.00  0.00    +0.000 NA
ATOM     12  H1  GLY A   1       2.676   3.970  21.712  0.00  0.00    +0.000 HD
ATOM     13  H2  GLY A   1       2.936   2.541  22.433  0.00  0.00    +0.000 HD
ENDBRANCH  10  11
ENDBRANCH   7  10
ENDBRANCH   5   6
BRANCH   5  15
ATOM     14  CG1 VAL A   2       2.160   6.973  20.248  0.00  0.00    +0.000 C 
ATOM     15  CB  VAL A   2       2.871   6.594  18.942  0.00  0.00    +0.000 C 
ATOM     16  CG2 VAL A   2       2.419   7.555  17.835  0.00  0.00    +0.000 C 
ENDBRANCH   5  15
ENDBRANCH   1   5
BRANCH   3  17
ATOM     17  CA  PHE A   3       6.095   4.753  17.038  0.00  0.00    +0.000 C 
BRANCH  17  18
ATOM     18  C   PHE A   3       7.256   4.643  18.035  0.00  0.00    +0.000 C 
ATOM     19  O   PHE A   3       8.343   4.149  17.772  0.00  0.00    +0.000 OA
BRANCH  18  20
ATOM     20  OXT PHE A   3       6.998   5.160  19.264  0.00  0.00    +0.000 OA
ATOM     21  HXT PHE A   3       7.336   6.062  19.420  0.00  0.00    +0.000 HD
ENDBRANCH  18  20
ENDBRANCH  17  18
BRANCH  17  22
ATOM     22  CB  PHE A   3       6.409   5.618  15.807  0.00  0.00    +0.000 C 
BRANCH  22  23
ATOM     23  CG  PHE A   3       6.557   4.916  14.474  0.00  0.00    +0.000 A 
ATOM     24  CD1 PHE A   3       5.628   3.963  14.029  0.00  0.00    +0.000 A 
ATOM     25  CE1 PHE A   3       5.734   3.403  12.754  0.00  0.00    +0.000 A 
ATOM     26  CZ  PHE A   3       6.753   3.804  11.897  0.00  0.00    +0.000 A 
ATOM     27  CE2 PHE A   3       7.685   4.746  12.324  0.00  0.00    +0.000 A 
ATOM     28  CD2 PHE A   3       7.593   5.292  13.606  0.00  0.00    +0.000 A 
ENDBRANCH  22  23
ENDBRANCH  17  22
ENDBRANCH   3  17
TORSDOF 10
ENDMDL
MODEL 2
REMARK VINA RESULT:      -7.2      2.276      6.592
REMARK  Name = 
REMARK  12 active torsions:
REMARK  status: ('A' for Active; 'I' for Inactive)
REMARK    1  A    between atoms: CG1_1  and  CB_2
REMARK    2  A    between atoms: CB_2  and  CG2_3
REMARK    3  A    between atoms: CB_2  and  CA_4
REMARK    4  A    between atoms: CA_4  and  N_5
REMARK    5  A    between atoms: CA_4  and  C_10
REMARK    6  A    between atoms: C_6  and  CA_8
REMARK    7  A    between atoms: CA_8  and  N_9
REMARK    8  A    between atoms: N_12  and  CA_13
REMARK    9  A    between atoms: CA_13  and  CB_14
REMARK   10  A    between atoms: CA_13  and  C_21
REMARK   11  A    between atoms: CB_14  and  CG_15
REMARK   12  A    between atoms: C_21  and  OXT_23
REMARK                            x       y       z     vdW  Elec       q    Type
REMARK                         _______ _______ _______ _____ _____    ______ ____
ROOT
ATOM      1  C   VAL A   2       6.152   4.648  18.481  0.00  0.00    +0.000 C 
ATOM      2  O   VAL A   2       6.432   4.994  19.628  0.00  0.00    +0.000 OA
ATOM      3  N   PHE A   3       4.999   3.958  18.183  0.00  0.00    +0.000 N 
ATOM      4  H   PHE A   3       4.761   3.773  17.210  0.00  0.00    +0.000 HD
ENDROOT
BRANCH   1   5
ATOM      5  CA  VAL A   2       7.024   4.992  17.252  0.00  0.00    +0.000 C 
BRANCH   5   6
ATOM      6  N   VAL A   2       6.473   4.321  16.079  0.00  0.00    +0.000 N 
ATOM      7  C   GLY A   1       6.948   4.569  14.816  0.00  0.00    +0.000 C 
ATOM      8  O   GLY A   1       7.868   5.348  14.590  0.00  0.00    +0.000 OA
ATOM      9  H   VAL A   2       5.862   3.509  16.184  0.00  0.00    +0.000 HD
BRANCH   7  10
ATOM     10  CA  GLY A   1       6.165   3.891  13.685  0.00  0.00    +0.000 C 
BRANCH  10  11
ATOM     11  N   GLY A   1       6.859   3.999  12.390  0.00  0.00    +0.000 NA
ATOM     12  H1  GLY A   1       6.179   4.305  11.692  0.00  0.00    +0.000 HD
ATOM     13  H2  GLY A   1       7.129   3.056  12.104  0.00  0.00    +0.000 HD
ENDBRANCH  10  11
ENDBRANCH   7  10
ENDBRANCH   5   6
BRANCH   5  15
ATOM     14  CG1 VAL A   2       7.959   7.177  18.165  0.00  0.00    +0.000 C 
ATOM     15  CB  VAL A   2       7.128   6.522  17.055  0.00  0.00    +0.000 C 
ATOM     16  CG2 VAL A   2       5.729   7.154  17.045  0.00  0.00    +0.000 C 
ENDBRANCH   5  15
ENDBRANCH   1   5
BRANCH   3  17
ATOM     17  CA  PHE A   3       4.094   3.446  19.207  0.00  0.00    +0.000 C 
BRANCH  17  18
ATOM     18  C   PHE A   3       4.277   1.928  19.331  0.00  0.00    +0.000 C 
ATOM     19  O   PHE A   3       3.666   1.106  18.663  0.00  0.00    +0.000 OA
BRANCH  18  20
ATOM     20  OXT PHE A   3       5.201   1.542  20.248  0.00  0.00    +0.000 OA
ATOM     21  HXT PHE A   3       5.862   2.219  20.488  0.00  0.00    +0.000 HD
ENDBRANCH  18  20
ENDBRANCH  17  18
BRANCH  17  22
ATOM     22  CB  PHE A   3       2.638   3.883  18.978  0.00  0.00    +0.000 C 
BRANCH  22  23
ATOM     23  CG  PHE A   3       2.291   5.335  19.229  0.00  0.00    +0.000 A 
ATOM     24  CD1 PHE A   3       1.891   5.796  20.493  0.00  0.00    +0.000 A 
ATOM     25  CE1 PHE A   3       1.670   7.156  20.721  0.00  0.00    +0.000 A 
ATOM     26  CZ  PHE A   3       1.869   8.077  19.698  0.00  0.00    +0.000 A 
ATOM     27  CE2 PHE A   3       2.263   7.636  18.438  0.00  0.00    +0.000 A 
ATOM     28  CD2 PHE A   3       2.464   6.275  18.202  0.00  0.00    +0.000 A 
ENDBRANCH  22  23
ENDBRANCH  17  22
ENDBRANCH   3  17
TORSDOF 10
ENDMDL
MODEL 3
REMARK VINA RESULT:      -7.1      2.207      6.614
REMARK  Name = 
REMARK  12 active torsions:
REMARK  status: ('A' for Active; 'I' for Inactive)
REMARK    1  A    between atoms: CG1_1  and  CB_2
REMARK    2  A    between atoms: CB_2  and  CG2_3
REMARK    3  A    between atoms: CB_2  and  CA_4
REMARK    4  A    between atoms: CA_4  and  N_5
REMARK    5  A    between atoms: CA_4  and  C_10
REMARK    6  A    between atoms: C_6  and  CA_8
REMARK    7  A    between atoms: CA_8  and  N_9
REMARK    8  A    between atoms: N_12  and  CA_13
REMARK    9  A    between atoms: CA_13  and  CB_14
REMARK   10  A    between atoms: CA_13  and  C_21
REMARK   11  A    between atoms: CB_14  and  CG_15
REMARK   12  A    between atoms: C_21  and  OXT_23
REMARK                            x       y       z     vdW  Elec       q    Type
REMARK                         _______ _______ _______ _____ _____    ______ ____
ROOT
ATOM      1  C   VAL A   2       6.154   4.644  18.431  0.00  0.00    +0.000 C 
ATOM      2  O   VAL A   2       6.638   4.711  19.560  0.00  0.00    +0.000 OA
ATOM      3  N   PHE A   3       4.846   4.278  18.213  0.00  0.00    +0.000 N 
ATOM      4  H   PHE A   3       4.460   4.326  17.271  0.00  0.00    +0.000 HD
ENDROOT
BRANCH   1   5
ATOM      5  CA  VAL A   2       6.934   5.014  17.148  0.00  0.00    +0.000 C 
BRANCH   5   6
ATOM      6  N   VAL A   2       6.262   4.416  15.998  0.00  0.00    +0.000 N 
ATOM      7  C   GLY A   1       6.741   4.572  14.721  0.00  0.00    +0.000 C 
ATOM      8  O   GLY A   1       7.762   5.200  14.464  0.00  0.00    +0.000 OA
ATOM      9  H   VAL A   2       5.539   3.708  16.129  0.00  0.00    +0.000 HD
BRANCH   7  10
ATOM     10  CA  GLY A   1       5.839   4.004  13.619  0.00  0.00    +0.000 C 
BRANCH  10  11
ATOM     11  N   GLY A   1       6.603   3.224  12.629  0.00  0.00    +0.000 NA
ATOM     12  H1  GLY A   1       6.410   2.234  12.790  0.00  0.00    +0.000 HD
ATOM     13  H2  GLY A   1       7.595   3.340  12.842  0.00  0.00    +0.000 HD
ENDBRANCH  10  11
ENDBRANCH   7  10
ENDBRANCH   5   6
BRANCH   5  15
ATOM     14  CG1 VAL A   2       7.935   7.135  18.138  0.00  0.00    +0.000 C 
ATOM     15  CB  VAL A   2       7.080   6.547  17.008  0.00  0.00    +0.000 C 
ATOM     16  CG2 VAL A   2       5.700   7.217  17.031  0.00  0.00    +0.000 C 
ENDBRANCH   5  15
ENDBRANCH   1   5
BRANCH   3  17
ATOM     17  CA  PHE A   3       3.970   3.792  19.275  0.00  0.00    +0.000 C 
BRANCH  17  18
ATOM     18  C   PHE A   3       4.068   2.262  19.350  0.00  0.00    +0.000 C 
ATOM     19  O   PHE A   3       3.298   1.496  18.788  0.00  0.00    +0.000 OA
BRANCH  18  20
ATOM     20  OXT PHE A   3       5.106   1.797  20.092  0.00  0.00    +0.000 OA
ATOM     21  HXT PHE A   3       5.373   2.362  20.841  0.00  0.00    +0.000 HD
ENDBRANCH  18  20
ENDBRANCH  17  18
BRANCH  17  22
ATOM     22  CB  PHE A   3       2.533   4.320  19.143  0.00  0.00    +0.000 C 
BRANCH  22  23
ATOM     23  CG  PHE A   3       2.319   5.814  19.257  0.00  0.00    +0.000 A 
ATOM     24  CD1 PHE A   3       2.419   6.666  18.147  0.00  0.00    +0.000 A 
ATOM     25  CE1 PHE A   3       2.122   8.026  18.260  0.00  0.00    +0.000 A 
ATOM     26  CZ  PHE A   3       1.696   8.549  19.476  0.00  0.00    +0.000 A 
ATOM     27  CE2 PHE A   3       1.594   7.718  20.588  0.00  0.00    +0.000 A 
ATOM     28  CD2 PHE A   3       1.911   6.362  20.482  0.00  0.00    +0.000 A 
ENDBRANCH  22  23
ENDBRANCH  17  22
ENDBRANCH   3  17
TORSDOF 10
ENDMDL
MODEL 4
REMARK VINA RESULT:      -6.8      1.630      2.203
REMARK  Name = 
REMARK  12 active torsions:
REMARK  status: ('A' for Active; 'I' for Inactive)
REMARK    1  A    between atoms: CG1_1  and  CB_2
REMARK    2  A    between atoms: CB_2  and  CG2_3
REMARK    3  A    between atoms: CB_2  and  CA_4
REMARK    4  A    between atoms: CA_4  and  N_5
REMARK    5  A    between atoms: CA_4  and  C_10
REMARK    6  A    between atoms: C_6  and  CA_8
REMARK    7  A    between atoms: CA_8  and  N_9
REMARK    8  A    between atoms: N_12  and  CA_13
REMARK    9  A    between atoms: CA_13  and  CB_14
REMARK   10  A    between atoms: CA_13  and  C_21
REMARK   11  A    between atoms: CB_14  and  CG_15
REMARK   12  A    between atoms: C_21  and  OXT_23
REMARK                            x       y       z     vdW  Elec       q    Type
REMARK                         _______ _______ _______ _____ _____    ______ ____
ROOT
ATOM      1  C   VAL A   2       4.753   4.937  18.790  0.00  0.00    +0.000 C 
ATOM      2  O   VAL A   2       5.171   3.952  19.398  0.00  0.00    +0.000 OA
ATOM      3  N   PHE A   3       5.592   5.796  18.119  0.00  0.00    +0.000 N 
ATOM      4  H   PHE A   3       5.196   6.544  17.551  0.00  0.00    +0.000 HD
ENDROOT
BRANCH   1   5
ATOM      5  CA  VAL A   2       3.252   5.285  18.665  0.00  0.00    +0.000 C 
BRANCH   5   6
ATOM      6  N   VAL A   2       2.463   4.133  19.095  0.00  0.00    +0.000 N 
ATOM      7  C   GLY A   1       1.911   3.260  18.192  0.00  0.00    +0.000 C 
ATOM      8  O   GLY A   1       2.055   3.374  16.979  0.00  0.00    +0.000 OA
ATOM      9  H   VAL A   2       2.468   3.835  20.071  0.00  0.00    +0.000 HD
BRANCH   7  10
ATOM     10  CA  GLY A   1       0.996   2.192  18.802  0.00  0.00    +0.000 C 
BRANCH  10  11
ATOM     11  N   GLY A   1       0.062   2.763  19.788  0.00  0.00    +0.000 NA
ATOM     12  H1  GLY A   1      -0.881   2.453  19.546  0.00  0.00    +0.000 HD
ATOM     13  H2  GLY A   1       0.051   3.776  19.654  0.00  0.00    +0.000 HD
ENDBRANCH  10  11
ENDBRANCH   7  10
ENDBRANCH   5   6
BRANCH   5  15
ATOM     14  CG1 VAL A   2       1.824   6.289  20.519  0.00  0.00    +0.000 C 
ATOM     15  CB  VAL A   2       2.908   6.561  19.468  0.00  0.00    +0.000 C 
ATOM     16  CG2 VAL A   2       2.418   7.667  18.525  0.00  0.00    +0.000 C 
ENDBRANCH   5  15
ENDBRANCH   1   5
BRANCH   3  17
ATOM     17  CA  PHE A   3       7.047   5.706  18.195  0.00  0.00    +0.000 C 
BRANCH  17  18
ATOM     18  C   PHE A   3       7.652   7.098  17.969  0.00  0.00    +0.000 C 
ATOM     19  O   PHE A   3       7.366   7.827  17.030  0.00  0.00    +0.000 OA
BRANCH  18  20
ATOM     20  OXT PHE A   3       8.543   7.489  18.916  0.00  0.00    +0.000 OA
ATOM     21  HXT PHE A   3       8.351   7.185  19.824  0.00  0.00    +0.000 HD
ENDBRANCH  18  20
ENDBRANCH  17  18
BRANCH  17  22
ATOM     22  CB  PHE A   3       7.620   4.619  17.273  0.00  0.00    +0.000 C 
BRANCH  22  23
ATOM     23  CG  PHE A   3       7.054   4.511  15.874  0.00  0.00    +0.000 A 
ATOM     24  CD1 PHE A   3       7.683   5.106  14.769  0.00  0.00    +0.000 A 
ATOM     25  CE1 PHE A   3       7.193   4.910  13.476  0.00  0.00    +0.000 A 
ATOM     26  CZ  PHE A   3       6.083   4.100  13.265  0.00  0.00    +0.000 A 
ATOM     27  CE2 PHE A   3       5.445   3.505  14.350  0.00  0.00    +0.000 A 
ATOM     28  CD2 PHE A   3       5.921   3.716  15.645  0.00  0.00    +0.000 A 
ENDBRANCH  22  23
ENDBRANCH  17  22
ENDBRANCH   3  17
TORSDOF 10
ENDMDL
MODEL 5
REMARK VINA RESULT:      -6.7      1.194      1.770
REMARK  Name = 
REMARK  12 active torsions:
REMARK  status: ('A' for Active; 'I' for Inactive)
REMARK    1  A    between atoms: CG1_1  and  CB_2
REMARK    2  A    between atoms: CB_2  and  CG2_3
REMARK    3  A    between atoms: CB_2  and  CA_4
REMARK    4  A    between atoms: CA_4  and  N_5
REMARK    5  A    between atoms: CA_4  and  C_10
REMARK    6  A    between atoms: C_6  and  CA_8
REMARK    7  A    between atoms: CA_8  and  N_9
REMARK    8  A    between atoms: N_12  and  CA_13
REMARK    9  A    between atoms: CA_13  and  CB_14
REMARK   10  A    between atoms: CA_13  and  C_21
REMARK   11  A    between atoms: CB_14  and  CG_15
REMARK   12  A    between atoms: C_21  and  OXT_23
REMARK                            x       y       z     vdW  Elec       q    Type
REMARK                         _______ _______ _______ _____ _____    ______ ____
ROOT
ATOM      1  C   VAL A   2       4.169   6.130  17.614  0.00  0.00    +0.000 C 
ATOM      2  O   VAL A   2       4.797   7.132  17.274  0.00  0.00    +0.000 OA
ATOM      3  N   PHE A   3       4.719   4.869  17.571  0.00  0.00    +0.000 N 
ATOM      4  H   PHE A   3       4.198   4.080  17.949  0.00  0.00    +0.000 HD
ENDROOT
BRANCH   1   5
ATOM      5  CA  VAL A   2       2.729   6.178  18.174  0.00  0.00    +0.000 C 
BRANCH   5   6
ATOM      6  N   VAL A   2       2.422   4.893  18.797  0.00  0.00    +0.000 N 
ATOM      7  C   GLY A   1       1.543   4.007  18.228  0.00  0.00    +0.000 C 
ATOM      8  O   GLY A   1       0.976   4.221  17.162  0.00  0.00    +0.000 OA
ATOM      9  H   VAL A   2       2.997   4.537  19.562  0.00  0.00    +0.000 HD
BRANCH   7  10
ATOM     10  CA  GLY A   1       1.225   2.774  19.081  0.00  0.00    +0.000 C 
BRANCH  10  11
ATOM     11  N   GLY A   1       0.624   3.138  20.376  0.00  0.00    +0.000 NA
ATOM     12  H1  GLY A   1       1.254   2.826  21.117  0.00  0.00    +0.000 HD
ATOM     13  H2  GLY A   1      -0.223   2.578  20.494  0.00  0.00    +0.000 HD
ENDBRANCH  10  11
ENDBRANCH   7  10
ENDBRANCH   5   6
BRANCH   5  15
ATOM     14  CG1 VAL A   2       1.745   6.949  20.392  0.00  0.00    +0.000 C 
ATOM     15  CB  VAL A   2       2.552   7.360  19.154  0.00  0.00    +0.000 C 
ATOM     16  CG2 VAL A   2       1.834   8.525  18.459  0.00  0.00    +0.000 C 
ENDBRANCH   5  15
ENDBRANCH   1   5
BRANCH   3  17
ATOM     17  CA  PHE A   3       6.025   4.593  16.981  0.00  0.00    +0.000 C 
BRANCH  17  18
ATOM     18  C   PHE A   3       7.085   4.564  18.090  0.00  0.00    +0.000 C 
ATOM     19  O   PHE A   3       6.892   4.945  19.235  0.00  0.00    +0.000 OA
BRANCH  18  20
ATOM     20  OXT PHE A   3       8.288   4.059  17.710  0.00  0.00    +0.000 OA
ATOM     21  HXT PHE A   3       8.827   3.676  18.427  0.00  0.00    +0.000 HD
ENDBRANCH  18  20
ENDBRANCH  17  18
BRANCH  17  22
ATOM     22  CB  PHE A   3       6.361   5.543  15.820  0.00  0.00    +0.000 C 
BRANCH  22  23
ATOM     23  CG  PHE A   3       6.453   4.951  14.430  0.00  0.00    +0.000 A 
ATOM     24  CD1 PHE A   3       7.508   5.260  13.559  0.00  0.00    +0.000 A 
ATOM     25  CE1 PHE A   3       7.621   4.627  12.319  0.00  0.00    +0.000 A 
ATOM     26  CZ  PHE A   3       6.697   3.659  11.943  0.00  0.00    +0.000 A 
ATOM     27  CE2 PHE A   3       5.642   3.342  12.794  0.00  0.00    +0.000 A 
ATOM     28  CD2 PHE A   3       5.515   3.989  14.024  0.00  0.00    +0.000 A 
ENDBRANCH  22  23
ENDBRANCH  17  22
ENDBRANCH   3  17
TORSDOF 10
ENDMDL
MODEL 6
REMARK VINA RESULT:      -6.7      1.928      3.259
REMARK  Name = 
REMARK  12 active torsions:
REMARK  status: ('A' for Active; 'I' for Inactive)
REMARK    1  A    between atoms: CG1_1  and  CB_2
REMARK    2  A    between atoms: CB_2  and  CG2_3
REMARK    3  A    between atoms: CB_2  and  CA_4
REMARK    4  A    between atoms: CA_4  and  N_5
REMARK    5  A    between atoms: CA_4  and  C_10
REMARK    6  A    between atoms: C_6  and  CA_8
REMARK    7  A    between atoms: CA_8  and  N_9
REMARK    8  A    between atoms: N_12  and  CA_13
REMARK    9  A    between atoms: CA_13  and  CB_14
REMARK   10  A    between atoms: CA_13  and  C_21
REMARK   11  A    between atoms: CB_14  and  CG_15
REMARK   12  A    between atoms: C_21  and  OXT_23
REMARK                            x       y       z     vdW  Elec       q    Type
REMARK                         _______ _______ _______ _____ _____    ______ ____
ROOT
ATOM      1  C   VAL A   2       4.650   4.711  19.046  0.00  0.00    +0.000 C 
ATOM      2  O   VAL A   2       5.151   3.625  19.335  0.00  0.00    +0.000 OA
ATOM      3  N   PHE A   3       5.307   5.640  18.272  0.00  0.00    +0.000 N 
ATOM      4  H   PHE A   3       4.820   6.486  17.980  0.00  0.00    +0.000 HD
ENDROOT
BRANCH   1   5
ATOM      5  CA  VAL A   2       3.222   5.128  19.467  0.00  0.00    +0.000 C 
BRANCH   5   6
ATOM      6  N   VAL A   2       2.896   6.402  18.833  0.00  0.00    +0.000 N 
ATOM      7  C   GLY A   1       2.238   7.398  19.510  0.00  0.00    +0.000 C 
ATOM      8  O   GLY A   1       1.898   7.294  20.685  0.00  0.00    +0.000 OA
ATOM      9  H   VAL A   2       3.320   6.662  17.942  0.00  0.00    +0.000 HD
BRANCH   7  10
ATOM     10  CA  GLY A   1       1.847   8.610  18.658  0.00  0.00    +0.000 C 
BRANCH  10  11
ATOM     11  N   GLY A   1       2.582   8.648  17.381  0.00  0.00    +0.000 NA
ATOM     12  H1  GLY A   1       2.874   9.613  17.214  0.00  0.00    +0.000 HD
ATOM     13  H2  GLY A   1       1.917   8.438  16.635  0.00  0.00    +0.000 HD
ENDBRANCH  10  11
ENDBRANCH   7  10
ENDBRANCH   5   6
BRANCH   5  15
ATOM     14  CG1 VAL A   2       1.557   4.259  17.748  0.00  0.00    +0.000 C 
ATOM     15  CB  VAL A   2       2.196   4.024  19.123  0.00  0.00    +0.000 C 
ATOM     16  CG2 VAL A   2       1.087   3.979  20.183  0.00  0.00    +0.000 C 
ENDBRANCH   5  15
ENDBRANCH   1   5
BRANCH   3  17
ATOM     17  CA  PHE A   3       6.698   5.487  17.859  0.00  0.00    +0.000 C 
BRANCH  17  18
ATOM     18  C   PHE A   3       7.616   6.004  18.975  0.00  0.00    +0.000 C 
ATOM     19  O   PHE A   3       8.324   6.996  18.878  0.00  0.00    +0.000 OA
BRANCH  18  20
ATOM     20  OXT PHE A   3       7.581   5.274  20.120  0.00  0.00    +0.000 OA
ATOM     21  HXT PHE A   3       7.984   4.387  20.065  0.00  0.00    +0.000 HD
ENDBRANCH  18  20
ENDBRANCH  17  18
BRANCH  17  22
ATOM     22  CB  PHE A   3       6.977   6.111  16.483  0.00  0.00    +0.000 C 
BRANCH  22  23
ATOM     23  CG  PHE A   3       6.619   5.300  15.256  0.00  0.00    +0.000 A 
ATOM     24  CD1 PHE A   3       7.446   5.261  14.123  0.00  0.00    +0.000 A 
ATOM     25  CE1 PHE A   3       7.141   4.429  13.044  0.00  0.00    +0.000 A 
ATOM     26  CZ  PHE A   3       6.022   3.606  13.091  0.00  0.00    +0.000 A 
ATOM     27  CE2 PHE A   3       5.189   3.634  14.206  0.00  0.00    +0.000 A 
ATOM     28  CD2 PHE A   3       5.480   4.481  15.277  0.00  0.00    +0.000 A 
ENDBRANCH  22  23
ENDBRANCH  17  22
ENDBRANCH   3  17
TORSDOF 10
ENDMDL
MODEL 7
REMARK VINA RESULT:      -6.7      2.063      6.638
REMARK  Name = 
REMARK  12 active torsions:
REMARK  status: ('A' for Active; 'I' for Inactive)
REMARK    1  A    between atoms: CG1_1  and  CB_2
REMARK    2  A    between atoms: CB_2  and  CG2_3
REMARK    3  A    between atoms: CB_2  and  CA_4
REMARK    4  A    between atoms: CA_4  and  N_5
REMARK    5  A    between atoms: CA_4  and  C_10
REMARK    6  A    between atoms: C_6  and  CA_8
REMARK    7  A    between atoms: CA_8  and  N_9
REMARK    8  A    between atoms: N_12  and  CA_13
REMARK    9  A    between atoms: CA_13  and  CB_14
REMARK   10  A    between atoms: CA_13  and  C_21
REMARK   11  A    between atoms: CB_14  and  CG_15
REMARK   12  A    between atoms: C_21  and  OXT_23
REMARK                            x       y       z     vdW  Elec       q    Type
REMARK                         _______ _______ _______ _____ _____    ______ ____
ROOT
ATOM      1  C   VAL A   2       5.383   4.301  18.333  0.00  0.00    +0.000 C 
ATOM      2  O   VAL A   2       5.927   4.026  19.402  0.00  0.00    +0.000 OA
ATOM      3  N   PHE A   3       4.052   4.041  18.098  0.00  0.00    +0.000 N 
ATOM      4  H   PHE A   3       3.620   4.369  17.235  0.00  0.00    +0.000 HD
ENDROOT
BRANCH   1   5
ATOM      5  CA  VAL A   2       6.108   5.013  17.168  0.00  0.00    +0.000 C 
BRANCH   5   6
ATOM      6  N   VAL A   2       5.623   4.464  15.904  0.00  0.00    +0.000 N 
ATOM      7  C   GLY A   1       6.440   4.348  14.808  0.00  0.00    +0.000 C 
ATOM      8  O   GLY A   1       7.622   4.675  14.818  0.00  0.00    +0.000 OA
ATOM      9  H   VAL A   2       4.730   3.972  15.860  0.00  0.00    +0.000 HD
BRANCH   7  10
ATOM     10  CA  GLY A   1       5.738   3.888  13.525  0.00  0.00    +0.000 C 
BRANCH  10  11
ATOM     11  N   GLY A   1       6.666   3.220  12.596  0.00  0.00    +0.000 NA
ATOM     12  H1  GLY A   1       6.144   2.968  11.755  0.00  0.00    +0.000 HD
ATOM     13  H2  GLY A   1       6.937   2.329  13.017  0.00  0.00    +0.000 HD
ENDBRANCH  10  11
ENDBRANCH   7  10
ENDBRANCH   5   6
BRANCH   5  15
ATOM     14  CG1 VAL A   2       5.099   7.075  16.068  0.00  0.00    +0.000 C 
ATOM     15  CB  VAL A   2       5.921   6.545  17.249  0.00  0.00    +0.000 C 
ATOM     16  CG2 VAL A   2       7.285   7.248  17.258  0.00  0.00    +0.000 C 
ENDBRANCH   5  15
ENDBRANCH   1   5
BRANCH   3  17
ATOM     17  CA  PHE A   3       3.216   3.284  19.024  0.00  0.00    +0.000 C 
BRANCH  17  18
ATOM     18  C   PHE A   3       2.941   1.893  18.437  0.00  0.00    +0.000 C 
ATOM     19  O   PHE A   3       3.738   0.967  18.465  0.00  0.00    +0.000 OA
BRANCH  18  20
ATOM     20  OXT PHE A   3       1.712   1.747  17.879  0.00  0.00    +0.000 OA
ATOM     21  HXT PHE A   3       1.439   2.459  17.270  0.00  0.00    +0.000 HD
ENDBRANCH  18  20
ENDBRANCH  17  18
BRANCH  17  22
ATOM     22  CB  PHE A   3       1.948   4.050  19.435  0.00  0.00    +0.000 C 
BRANCH  22  23
ATOM     23  CG  PHE A   3       2.007   5.562  19.429  0.00  0.00    +0.000 A 
ATOM     24  CD1 PHE A   3       2.230   6.294  18.253  0.00  0.00    +0.000 A 
ATOM     25  CE1 PHE A   3       2.182   7.689  18.258  0.00  0.00    +0.000 A 
ATOM     26  CZ  PHE A   3       1.887   8.373  19.432  0.00  0.00    +0.000 A 
ATOM     27  CE2 PHE A   3       1.666   7.664  20.609  0.00  0.00    +0.000 A 
ATOM     28  CD2 PHE A   3       1.734   6.269  20.610  0.00  0.00    +0.000 A 
ENDBRANCH  22  23
ENDBRANCH  17  22
ENDBRANCH   3  17
TORSDOF 10
ENDMDL
MODEL 8
REMARK VINA RESULT:      -6.7      2.487      6.970
REMARK  Name = 
REMARK  12 active torsions:
REMARK  status: ('A' for Active; 'I' for Inactive)
REMARK    1  A    between atoms: CG1_1  and  CB_2
REMARK    2  A    between atoms: CB_2  and  CG2_3
REMARK    3  A    between atoms: CB_2  and  CA_4
REMARK    4  A    between atoms: CA_4  and  N_5
REMARK    5  A    between atoms: CA_4  and  C_10
REMARK    6  A    between atoms: C_6  and  CA_8
REMARK    7  A    between atoms: CA_8  and  N_9
REMARK    8  A    between atoms: N_12  and  CA_13
REMARK    9  A    between atoms: CA_13  and  CB_14
REMARK   10  A    between atoms: CA_13  and  C_21
REMARK   11  A    between atoms: CB_14  and  CG_15
REMARK   12  A    between atoms: C_21  and  OXT_23
REMARK                            x       y       z     vdW  Elec       q    Type
REMARK                         _______ _______ _______ _____ _____    ______ ____
ROOT
ATOM      1  C   VAL A   2       5.212   5.955  16.678  0.00  0.00    +0.000 C 
ATOM      2  O   VAL A   2       4.866   6.969  16.072  0.00  0.00    +0.000 OA
ATOM      3  N   PHE A   3       4.327   5.202  17.415  0.00  0.00    +0.000 N 
ATOM      4  H   PHE A   3       4.636   4.321  17.823  0.00  0.00    +0.000 HD
ENDROOT
BRANCH   1   5
ATOM      5  CA  VAL A   2       6.650   5.389  16.637  0.00  0.00    +0.000 C 
BRANCH   5   6
ATOM      6  N   VAL A   2       7.200   5.595  15.300  0.00  0.00    +0.000 N 
ATOM      7  C   GLY A   1       6.945   4.721  14.273  0.00  0.00    +0.000 C 
ATOM      8  O   GLY A   1       6.233   3.730  14.401  0.00  0.00    +0.000 OA
ATOM      9  H   VAL A   2       7.619   6.489  15.042  0.00  0.00    +0.000 HD
BRANCH   7  10
ATOM     10  CA  GLY A   1       7.713   5.004  12.977  0.00  0.00    +0.000 C 
BRANCH  10  11
ATOM     11  N   GLY A   1       7.229   4.179  11.856  0.00  0.00    +0.000 NA
ATOM     12  H1  GLY A   1       8.028   3.679  11.464  0.00  0.00    +0.000 HD
ATOM     13  H2  GLY A   1       6.922   4.813  11.115  0.00  0.00    +0.000 HD
ENDBRANCH  10  11
ENDBRANCH   7  10
ENDBRANCH   5   6
BRANCH   5  15
ATOM     14  CG1 VAL A   2       7.034   5.660  19.139  0.00  0.00    +0.000 C 
ATOM     15  CB  VAL A   2       7.531   6.028  17.735  0.00  0.00    +0.000 C 
ATOM     16  CG2 VAL A   2       7.533   7.556  17.594  0.00  0.00    +0.000 C 
ENDBRANCH   5  15
ENDBRANCH   1   5
BRANCH   3  17
ATOM     17  CA  PHE A   3       2.950   5.616  17.667  0.00  0.00    +0.000 C 
BRANCH  17  18
ATOM     18  C   PHE A   3       2.929   6.617  18.829  0.00  0.00    +0.000 C 
ATOM     19  O   PHE A   3       2.287   7.658  18.827  0.00  0.00    +0.000 OA
BRANCH  18  20
ATOM     20  OXT PHE A   3       3.679   6.256  19.902  0.00  0.00    +0.000 OA
ATOM     21  HXT PHE A   3       3.289   5.570  20.476  0.00  0.00    +0.000 HD
ENDBRANCH  18  20
ENDBRANCH  17  18
BRANCH  17  22
ATOM     22  CB  PHE A   3       2.000   4.422  17.852  0.00  0.00    +0.000 C 
BRANCH  22  23
ATOM     23  CG  PHE A   3       2.091   3.645  19.148  0.00  0.00    +0.000 A 
ATOM     24  CD1 PHE A   3       3.252   2.950  19.518  0.00  0.00    +0.000 A 
ATOM     25  CE1 PHE A   3       3.343   2.322  20.762  0.00  0.00    +0.000 A 
ATOM     26  CZ  PHE A   3       2.288   2.401  21.663  0.00  0.00    +0.000 A 
ATOM     27  CE2 PHE A   3       1.128   3.084  21.312  0.00  0.00    +0.000 A 
ATOM     28  CD2 PHE A   3       1.026   3.695  20.060  0.00  0.00    +0.000 A 
ENDBRANCH  22  23
ENDBRANCH  17  22
ENDBRANCH   3  17
TORSDOF 10
ENDMDL
MODEL 9
REMARK VINA RESULT:      -6.7      2.436      6.907
REMARK  Name = 
REMARK  12 active torsions:
REMARK  status: ('A' for Active; 'I' for Inactive)
REMARK    1  A    between atoms: CG1_1  and  CB_2
REMARK    2  A    between atoms: CB_2  and  CG2_3
REMARK    3  A    between atoms: CB_2  and  CA_4
REMARK    4  A    between atoms: CA_4  and  N_5
REMARK    5  A    between atoms: CA_4  and  C_10
REMARK    6  A    between atoms: C_6  and  CA_8
REMARK    7  A    between atoms: CA_8  and  N_9
REMARK    8  A    between atoms: N_12  and  CA_13
REMARK    9  A    between atoms: CA_13  and  CB_14
REMARK   10  A    between atoms: CA_13  and  C_21
REMARK   11  A    between atoms: CB_14  and  CG_15
REMARK   12  A    between atoms: C_21  and  OXT_23
REMARK                            x       y       z     vdW  Elec       q    Type
REMARK                         _______ _______ _______ _____ _____    ______ ____
ROOT
ATOM      1  C   VAL A   2       4.365   5.385  17.644  0.00  0.00    +0.000 C 
ATOM      2  O   VAL A   2       3.572   4.528  17.255  0.00  0.00    +0.000 OA
ATOM      3  N   PHE A   3       3.963   6.479  18.376  0.00  0.00    +0.000 N 
ATOM      4  H   PHE A   3       4.663   7.114  18.757  0.00  0.00    +0.000 HD
ENDROOT
BRANCH   1   5
ATOM      5  CA  VAL A   2       5.890   5.302  17.407  0.00  0.00    +0.000 C 
BRANCH   5   6
ATOM      6  N   VAL A   2       6.152   5.406  15.974  0.00  0.00    +0.000 N 
ATOM      7  C   GLY A   1       6.221   4.295  15.172  0.00  0.00    +0.000 C 
ATOM      8  O   GLY A   1       6.054   3.155  15.594  0.00  0.00    +0.000 OA
ATOM      9  H   VAL A   2       6.091   6.307  15.499  0.00  0.00    +0.000 HD
BRANCH   7  10
ATOM     10  CA  GLY A   1       6.645   4.568  13.724  0.00  0.00    +0.000 C 
BRANCH  10  11
ATOM     11  N   GLY A   1       6.394   3.411  12.847  0.00  0.00    +0.000 NA
ATOM     12  H1  GLY A   1       7.008   3.491  12.035  0.00  0.00    +0.000 HD
ATOM     13  H2  GLY A   1       5.447   3.505  12.475  0.00  0.00    +0.000 HD
ENDBRANCH  10  11
ENDBRANCH   7  10
ENDBRANCH   5   6
BRANCH   5  15
ATOM     14  CG1 VAL A   2       7.407   7.345  17.298  0.00  0.00    +0.000 C 
ATOM     15  CB  VAL A   2       6.638   6.386  18.217  0.00  0.00    +0.000 C 
ATOM     16  CG2 VAL A   2       7.629   5.734  19.192  0.00  0.00    +0.000 C 
ENDBRANCH   5  15
ENDBRANCH   1   5
BRANCH   3  17
ATOM     17  CA  PHE A   3       2.560   6.798  18.620  0.00  0.00    +0.000 C 
BRANCH  17  18
ATOM     18  C   PHE A   3       2.302   8.263  18.244  0.00  0.00    +0.000 C 
ATOM     19  O   PHE A   3       1.670   9.049  18.935  0.00  0.00    +0.000 OA
BRANCH  18  20
ATOM     20  OXT PHE A   3       2.851   8.650  17.064  0.00  0.00    +0.000 OA
ATOM     21  HXT PHE A   3       2.253   8.623  16.293  0.00  0.00    +0.000 HD
ENDBRANCH  18  20
ENDBRANCH  17  18
BRANCH  17  22
ATOM     22  CB  PHE A   3       2.110   6.431  20.043  0.00  0.00    +0.000 C 
BRANCH  22  23
ATOM     23  CG  PHE A   3       1.823   4.974  20.336  0.00  0.00    +0.000 A 
ATOM     24  CD1 PHE A   3       1.052   4.180  19.473  0.00  0.00    +0.000 A 
ATOM     25  CE1 PHE A   3       0.883   2.816  19.717  0.00  0.00    +0.000 A 
ATOM     26  CZ  PHE A   3       1.500   2.220  20.811  0.00  0.00    +0.000 A 
ATOM     27  CE2 PHE A   3       2.266   2.993  21.679  0.00  0.00    +0.000 A 
ATOM     28  CD2 PHE A   3       2.419   4.361  21.449  0.00  0.00    +0.000 A 
ENDBRANCH  22  23
ENDBRANCH  17  22
ENDBRANCH   3  17
TORSDOF 10
ENDMDL
