MODEL 1
REMARK VINA RESULT:      -6.4      0.000      0.000
REMARK  Name = 
REMARK  4 active torsions:
REMARK  status: ('A' for Active; 'I' for Inactive)
REMARK    1  A    between atoms: O_1  and  C_2
REMARK    2  A    between atoms: C_2  and  C_3
REMARK    3  A    between atoms: C_3  and  N_4
REMARK    4  A    between atoms: C_8  and  C_9
REMARK                            x       y       z     vdW  Elec       q    Type
REMARK                         _______ _______ _______ _____ _____    ______ ____
ROOT
ATOM      1  N   UNL     1       6.274   4.727  17.576  0.00  0.00    +0.000 N 
ATOM      2  C   UNL     1       7.308   4.854  16.680  0.00  0.00    +0.000 A 
ATOM      3  N   UNL     1       6.998   4.370  15.504  0.00  0.00    +0.000 NA
ATOM      4  C   UNL     1       5.712   3.925  15.639  0.00  0.00    +0.000 A 
ATOM      5  C   UNL     1       5.212   4.137  16.918  0.00  0.00    +0.000 A 
ENDROOT
BRANCH   5   6
ATOM      6  C   UNL     1       3.898   3.757  17.460  0.00  0.00    +0.000 A 
ATOM      7  C   UNL     1       2.903   4.737  17.610  0.00  0.00    +0.000 A 
ATOM      8  C   UNL     1       1.632   4.411  18.095  0.00  0.00    +0.000 A 
ATOM      9  C   UNL     1       1.333   3.095  18.428  0.00  0.00    +0.000 A 
ATOM     10  C   UNL     1       2.313   2.114  18.311  0.00  0.00    +0.000 A 
ATOM     11  C   UNL     1       3.592   2.449  17.856  0.00  0.00    +0.000 A 
ENDBRANCH   5   6
BRANCH   1  12
ATOM     12  C   UNL     1       6.380   5.190  18.946  0.00  0.00    +0.000 C 
BRANCH  12  13
ATOM     13  C   UNL     1       7.726   5.795  19.325  0.00  0.00    +0.000 C 
BRANCH  13  14
ATOM     14  O   UNL     1       8.051   5.388  20.653  0.00  0.00    +0.000 OA
ATOM     15  H   UNL     1       8.696   6.030  20.999  0.00  0.00    +0.000 HD
ENDBRANCH  13  14
ENDBRANCH  12  13
ENDBRANCH   1  12
TORSDOF 4
ENDMDL
MODEL 2
REMARK VINA RESULT:      -6.4      0.101      1.288
REMARK  Name = 
REMARK  4 active torsions:
REMARK  status: ('A' for Active; 'I' for Inactive)
REMARK    1  A    between atoms: O_1  and  C_2
REMARK    2  A    between atoms: C_2  and  C_3
REMARK    3  A    between atoms: C_3  and  N_4
REMARK    4  A    between atoms: C_8  and  C_9
REMARK                            x       y       z     vdW  Elec       q    Type
REMARK                         _______ _______ _______ _____ _____    ______ ____
ROOT
ATOM      1  N   UNL     1       6.247   4.717  17.533  0.00  0.00    +0.000 N 
ATOM      2  C   UNL     1       7.267   4.856  16.623  0.00  0.00    +0.000 A 
ATOM      3  N   UNL     1       6.936   4.397  15.443  0.00  0.00    +0.000 NA
ATOM      4  C   UNL     1       5.650   3.957  15.589  0.00  0.00    +0.000 A 
ATOM      5  C   UNL     1       5.170   4.146  16.879  0.00  0.00    +0.000 A 
ENDROOT
BRANCH   5   6
ATOM      6  C   UNL     1       3.863   3.763  17.434  0.00  0.00    +0.000 A 
ATOM      7  C   UNL     1       3.626   2.423  17.780  0.00  0.00    +0.000 A 
ATOM      8  C   UNL     1       2.406   2.023  18.337  0.00  0.00    +0.000 A 
ATOM      9  C   UNL     1       1.407   2.963  18.565  0.00  0.00    +0.000 A 
ATOM     10  C   UNL     1       1.613   4.290  18.205  0.00  0.00    +0.000 A 
ATOM     11  C   UNL     1       2.822   4.681  17.620  0.00  0.00    +0.000 A 
ENDBRANCH   5   6
BRANCH   1  12
ATOM     12  C   UNL     1       6.376   5.153  18.909  0.00  0.00    +0.000 C 
BRANCH  12  13
ATOM     13  C   UNL     1       7.727   5.755  19.276  0.00  0.00    +0.000 C 
BRANCH  13  14
ATOM     14  O   UNL     1       8.023   5.424  20.632  0.00  0.00    +0.000 OA
ATOM     15  H   UNL     1       8.123   6.262  21.116  0.00  0.00    +0.000 HD
ENDBRANCH  13  14
ENDBRANCH  12  13
ENDBRANCH   1  12
TORSDOF 4
ENDMDL
MODEL 3
REMARK VINA RESULT:      -6.1      1.034      1.034
REMARK  Name = 
REMARK  4 active torsions:
REMARK  status: ('A' for Active; 'I' for Inactive)
REMARK    1  A    between atoms: O_1  and  C_2
REMARK    2  A    between atoms: C_2  and  C_3
REMARK    3  A    between atoms: C_3  and  N_4
REMARK    4  A    between atoms: C_8  and  C_9
REMARK                            x       y       z     vdW  Elec       q    Type
REMARK                         _______ _______ _______ _____ _____    ______ ____
ROOT
ATOM      1  N   UNL     1       6.062   5.565  17.893  0.00  0.00    +0.000 N 
ATOM      2  C   UNL     1       6.844   6.308  17.042  0.00  0.00    +0.000 A 
ATOM      3  N   UNL     1       6.322   6.389  15.844  0.00  0.00    +0.000 NA
ATOM      4  C   UNL     1       5.153   5.685  15.925  0.00  0.00    +0.000 A 
ATOM      5  C   UNL     1       4.941   5.158  17.193  0.00  0.00    +0.000 A 
ENDROOT
BRANCH   5   6
ATOM      6  C   UNL     1       3.831   4.311  17.657  0.00  0.00    +0.000 A 
ATOM      7  C   UNL     1       2.670   4.913  18.169  0.00  0.00    +0.000 A 
ATOM      8  C   UNL     1       1.582   4.143  18.594  0.00  0.00    +0.000 A 
ATOM      9  C   UNL     1       1.636   2.757  18.503  0.00  0.00    +0.000 A 
ATOM     10  C   UNL     1       2.787   2.141  18.024  0.00  0.00    +0.000 A 
ATOM     11  C   UNL     1       3.885   2.912  17.629  0.00  0.00    +0.000 A 
ENDBRANCH   5   6
BRANCH   1  12
ATOM     12  C   UNL     1       6.432   5.332  19.275  0.00  0.00    +0.000 C 
BRANCH  12  13
ATOM     13  C   UNL     1       7.878   5.662  19.625  0.00  0.00    +0.000 C 
BRANCH  13  14
ATOM     14  O   UNL     1       8.112   5.304  20.985  0.00  0.00    +0.000 OA
ATOM     15  H   UNL     1       8.112   6.128  21.502  0.00  0.00    +0.000 HD
ENDBRANCH  13  14
ENDBRANCH  12  13
ENDBRANCH   1  12
TORSDOF 4
ENDMDL
MODEL 4
REMARK VINA RESULT:      -6.0      1.928      3.046
REMARK  Name = 
REMARK  4 active torsions:
REMARK  status: ('A' for Active; 'I' for Inactive)
REMARK    1  A    between atoms: O_1  and  C_2
REMARK    2  A    between atoms: C_2  and  C_3
REMARK    3  A    between atoms: C_3  and  N_4
REMARK    4  A    between atoms: C_8  and  C_9
REMARK                            x       y       z     vdW  Elec       q    Type
REMARK                         _______ _______ _______ _____ _____    ______ ____
ROOT
ATOM      1  N   UNL     1       6.393   4.457  17.213  0.00  0.00    +0.000 N 
ATOM      2  C   UNL     1       7.561   4.959  17.735  0.00  0.00    +0.000 A 
ATOM      3  N   UNL     1       7.426   5.307  18.989  0.00  0.00    +0.000 NA
ATOM      4  C   UNL     1       6.128   5.008  19.297  0.00  0.00    +0.000 A 
ATOM      5  C   UNL     1       5.443   4.462  18.218  0.00  0.00    +0.000 A 
ENDROOT
BRANCH   5   6
ATOM      6  C   UNL     1       4.030   4.059  18.142  0.00  0.00    +0.000 A 
ATOM      7  C   UNL     1       3.675   2.731  18.427  0.00  0.00    +0.000 A 
ATOM      8  C   UNL     1       2.340   2.315  18.393  0.00  0.00    +0.000 A 
ATOM      9  C   UNL     1       1.337   3.226  18.083  0.00  0.00    +0.000 A 
ATOM     10  C   UNL     1       1.671   4.540  17.771  0.00  0.00    +0.000 A 
ATOM     11  C   UNL     1       3.010   4.945  17.775  0.00  0.00    +0.000 A 
ENDBRANCH   5   6
BRANCH   1  12
ATOM     12  C   UNL     1       6.294   4.004  15.840  0.00  0.00    +0.000 C 
BRANCH  12  13
ATOM     13  C   UNL     1       6.243   5.111  14.793  0.00  0.00    +0.000 C 
BRANCH  13  14
ATOM     14  O   UNL     1       7.567   5.355  14.321  0.00  0.00    +0.000 OA
ATOM     15  H   UNL     1       8.178   4.998  14.989  0.00  0.00    +0.000 HD
ENDBRANCH  13  14
ENDBRANCH  12  13
ENDBRANCH   1  12
TORSDOF 4
ENDMDL
MODEL 5
REMARK VINA RESULT:      -6.0      1.049      1.172
REMARK  Name = 
REMARK  4 active torsions:
REMARK  status: ('A' for Active; 'I' for Inactive)
REMARK    1  A    between atoms: O_1  and  C_2
REMARK    2  A    between atoms: C_2  and  C_3
REMARK    3  A    between atoms: C_3  and  N_4
REMARK    4  A    between atoms: C_8  and  C_9
REMARK                            x       y       z     vdW  Elec       q    Type
REMARK                         _______ _______ _______ _____ _____    ______ ____
ROOT
ATOM      1  N   UNL     1       6.663   4.830  16.719  0.00  0.00    +0.000 N 
ATOM      2  C   UNL     1       7.493   5.037  15.644  0.00  0.00    +0.000 A 
ATOM      3  N   UNL     1       6.822   5.205  14.533  0.00  0.00    +0.000 NA
ATOM      4  C   UNL     1       5.508   5.117  14.904  0.00  0.00    +0.000 A 
ATOM      5  C   UNL     1       5.358   4.893  16.267  0.00  0.00    +0.000 A 
ENDROOT
BRANCH   5   6
ATOM      6  C   UNL     1       4.116   4.696  17.029  0.00  0.00    +0.000 A 
ATOM      7  C   UNL     1       3.573   5.770  17.754  0.00  0.00    +0.000 A 
ATOM      8  C   UNL     1       2.378   5.631  18.468  0.00  0.00    +0.000 A 
ATOM      9  C   UNL     1       1.703   4.416  18.461  0.00  0.00    +0.000 A 
ATOM     10  C   UNL     1       2.238   3.333  17.771  0.00  0.00    +0.000 A 
ATOM     11  C   UNL     1       3.449   3.466  17.083  0.00  0.00    +0.000 A 
ENDBRANCH   5   6
BRANCH   1  12
ATOM     12  C   UNL     1       7.175   4.618  18.059  0.00  0.00    +0.000 C 
BRANCH  12  13
ATOM     13  C   UNL     1       7.455   5.886  18.856  0.00  0.00    +0.000 C 
BRANCH  13  14
ATOM     14  O   UNL     1       7.818   5.519  20.186  0.00  0.00    +0.000 OA
ATOM     15  H   UNL     1       8.697   5.104  20.138  0.00  0.00    +0.000 HD
ENDBRANCH  13  14
ENDBRANCH  12  13
ENDBRANCH   1  12
TORSDOF 4
ENDMDL
MODEL 6
REMARK VINA RESULT:      -6.0      1.941      2.779
REMARK  Name = 
REMARK  4 active torsions:
REMARK  status: ('A' for Active; 'I' for Inactive)
REMARK    1  A    between atoms: O_1  and  C_2
REMARK    2  A    between atoms: C_2  and  C_3
REMARK    3  A    between atoms: C_3  and  N_4
REMARK    4  A    between atoms: C_8  and  C_9
REMARK                            x       y       z     vdW  Elec       q    Type
REMARK                         _______ _______ _______ _____ _____    ______ ____
ROOT
ATOM      1  N   UNL     1       6.484   4.470  17.248  0.00  0.00    +0.000 N 
ATOM      2  C   UNL     1       7.653   4.944  17.793  0.00  0.00    +0.000 A 
ATOM      3  N   UNL     1       7.495   5.325  19.035  0.00  0.00    +0.000 NA
ATOM      4  C   UNL     1       6.179   5.077  19.310  0.00  0.00    +0.000 A 
ATOM      5  C   UNL     1       5.507   4.531  18.224  0.00  0.00    +0.000 A 
ENDROOT
BRANCH   5   6
ATOM      6  C   UNL     1       4.084   4.175  18.115  0.00  0.00    +0.000 A 
ATOM      7  C   UNL     1       3.120   5.195  18.043  0.00  0.00    +0.000 A 
ATOM      8  C   UNL     1       1.760   4.898  17.910  0.00  0.00    +0.000 A 
ATOM      9  C   UNL     1       1.342   3.574  17.837  0.00  0.00    +0.000 A 
ATOM     10  C   UNL     1       2.278   2.550  17.933  0.00  0.00    +0.000 A 
ATOM     11  C   UNL     1       3.634   2.849  18.097  0.00  0.00    +0.000 A 
ENDBRANCH   5   6
BRANCH   1  12
ATOM     12  C   UNL     1       6.409   3.990  15.883  0.00  0.00    +0.000 C 
BRANCH  12  13
ATOM     13  C   UNL     1       6.314   5.075  14.817  0.00  0.00    +0.000 C 
BRANCH  13  14
ATOM     14  O   UNL     1       7.630   5.386  14.363  0.00  0.00    +0.000 OA
ATOM     15  H   UNL     1       7.984   6.068  14.960  0.00  0.00    +0.000 HD
ENDBRANCH  13  14
ENDBRANCH  12  13
ENDBRANCH   1  12
TORSDOF 4
ENDMDL
MODEL 7
REMARK VINA RESULT:      -6.0      1.051      1.674
REMARK  Name = 
REMARK  4 active torsions:
REMARK  status: ('A' for Active; 'I' for Inactive)
REMARK    1  A    between atoms: O_1  and  C_2
REMARK    2  A    between atoms: C_2  and  C_3
REMARK    3  A    between atoms: C_3  and  N_4
REMARK    4  A    between atoms: C_8  and  C_9
REMARK                            x       y       z     vdW  Elec       q    Type
REMARK                         _______ _______ _______ _____ _____    ______ ____
ROOT
ATOM      1  N   UNL     1       6.646   4.847  16.793  0.00  0.00    +0.000 N 
ATOM      2  C   UNL     1       7.484   5.019  15.718  0.00  0.00    +0.000 A 
ATOM      3  N   UNL     1       6.821   5.207  14.605  0.00  0.00    +0.000 NA
ATOM      4  C   UNL     1       5.505   5.169  14.974  0.00  0.00    +0.000 A 
ATOM      5  C   UNL     1       5.345   4.957  16.338  0.00  0.00    +0.000 A 
ENDROOT
BRANCH   5   6
ATOM      6  C   UNL     1       4.096   4.810  17.100  0.00  0.00    +0.000 A 
ATOM      7  C   UNL     1       3.416   3.581  17.080  0.00  0.00    +0.000 A 
ATOM      8  C   UNL     1       2.240   3.391  17.813  0.00  0.00    +0.000 A 
ATOM      9  C   UNL     1       1.731   4.427  18.587  0.00  0.00    +0.000 A 
ATOM     10  C   UNL     1       2.375   5.660  18.599  0.00  0.00    +0.000 A 
ATOM     11  C   UNL     1       3.533   5.856  17.840  0.00  0.00    +0.000 A 
ENDBRANCH   5   6
BRANCH   1  12
ATOM     12  C   UNL     1       7.148   4.622  18.133  0.00  0.00    +0.000 C 
BRANCH  12  13
ATOM     13  C   UNL     1       7.540   5.879  18.901  0.00  0.00    +0.000 C 
BRANCH  13  14
ATOM     14  O   UNL     1       7.844   5.517  20.247  0.00  0.00    +0.000 OA
ATOM     15  H   UNL     1       8.576   4.877  20.212  0.00  0.00    +0.000 HD
ENDBRANCH  13  14
ENDBRANCH  12  13
ENDBRANCH   1  12
TORSDOF 4
ENDMDL
MODEL 8
REMARK VINA RESULT:      -5.9      1.337      1.472
REMARK  Name = 
REMARK  4 active torsions:
REMARK  status: ('A' for Active; 'I' for Inactive)
REMARK    1  A    between atoms: O_1  and  C_2
REMARK    2  A    between atoms: C_2  and  C_3
REMARK    3  A    between atoms: C_3  and  N_4
REMARK    4  A    between atoms: C_8  and  C_9
REMARK                            x       y       z     vdW  Elec       q    Type
REMARK                         _______ _______ _______ _____ _____    ______ ____
ROOT
ATOM      1  N   UNL     1       5.668   4.750  18.160  0.00  0.00    +0.000 N 
ATOM      2  C   UNL     1       6.417   4.671  17.011  0.00  0.00    +0.000 A 
ATOM      3  N   UNL     1       5.746   4.134  16.025  0.00  0.00    +0.000 NA
ATOM      4  C   UNL     1       4.511   3.866  16.549  0.00  0.00    +0.000 A 
ATOM      5  C   UNL     1       4.411   4.245  17.882  0.00  0.00    +0.000 A 
ENDROOT
BRANCH   5   6
ATOM      6  C   UNL     1       3.270   4.079  18.795  0.00  0.00    +0.000 A 
ATOM      7  C   UNL     1       2.815   5.181  19.538  0.00  0.00    +0.000 A 
ATOM      8  C   UNL     1       1.715   5.071  20.397  0.00  0.00    +0.000 A 
ATOM      9  C   UNL     1       1.047   3.858  20.517  0.00  0.00    +0.000 A 
ATOM     10  C   UNL     1       1.499   2.749  19.810  0.00  0.00    +0.000 A 
ATOM     11  C   UNL     1       2.617   2.853  18.976  0.00  0.00    +0.000 A 
ENDBRANCH   5   6
BRANCH   1  12
ATOM     12  C   UNL     1       6.196   5.308  19.389  0.00  0.00    +0.000 C 
BRANCH  12  13
ATOM     13  C   UNL     1       7.677   5.663  19.358  0.00  0.00    +0.000 C 
BRANCH  13  14
ATOM     14  O   UNL     1       8.233   5.420  20.649  0.00  0.00    +0.000 OA
ATOM     15  H   UNL     1       8.972   6.042  20.764  0.00  0.00    +0.000 HD
ENDBRANCH  13  14
ENDBRANCH  12  13
ENDBRANCH   1  12
TORSDOF 4
ENDMDL
MODEL 9
REMARK VINA RESULT:      -5.9      2.527      3.528
REMARK  Name = 
REMARK  4 active torsions:
REMARK  status: ('A' for Active; 'I' for Inactive)
REMARK    1  A    between atoms: O_1  and  C_2
REMARK    2  A    between atoms: C_2  and  C_3
REMARK    3  A    between atoms: C_3  and  N_4
REMARK    4  A    between atoms: C_8  and  C_9
REMARK                            x       y       z     vdW  Elec       q    Type
REMARK                         _______ _______ _______ _____ _____    ______ ____
ROOT
ATOM      1  N   UNL     1       3.869   5.903  17.742  0.00  0.00    +0.000 N 
ATOM      2  C   UNL     1       4.023   7.164  17.219  0.00  0.00    +0.000 A 
ATOM      3  N   UNL     1       3.160   8.011  17.722  0.00  0.00    +0.000 NA
ATOM      4  C   UNL     1       2.429   7.275  18.613  0.00  0.00    +0.000 A 
ATOM      5  C   UNL     1       2.844   5.950  18.669  0.00  0.00    +0.000 A 
ENDROOT
BRANCH   5   6
ATOM      6  C   UNL     1       2.280   4.849  19.464  0.00  0.00    +0.000 A 
ATOM      7  C   UNL     1       1.397   3.940  18.857  0.00  0.00    +0.000 A 
ATOM      8  C   UNL     1       0.862   2.863  19.571  0.00  0.00    +0.000 A 
ATOM      9  C   UNL     1       1.210   2.673  20.903  0.00  0.00    +0.000 A 
ATOM     10  C   UNL     1       2.061   3.577  21.530  0.00  0.00    +0.000 A 
ATOM     11  C   UNL     1       2.570   4.670  20.822  0.00  0.00    +0.000 A 
ENDBRANCH   5   6
BRANCH   1  12
ATOM     12  C   UNL     1       4.710   4.793  17.339  0.00  0.00    +0.000 C 
BRANCH  12  13
ATOM     13  C   UNL     1       5.902   4.518  18.247  0.00  0.00    +0.000 C 
BRANCH  13  14
ATOM     14  O   UNL     1       5.552   3.478  19.159  0.00  0.00    +0.000 OA
ATOM     15  H   UNL     1       4.943   3.865  19.812  0.00  0.00    +0.000 HD
ENDBRANCH  13  14
ENDBRANCH  12  13
ENDBRANCH   1  12
TORSDOF 4
ENDMDL
